#------------------------------------------------------------------------------
#$Date: 2017-11-07 02:48:25 +0200 (Tue, 07 Nov 2017) $
#$Revision: 202706 $
#$URL: file:///home/coder/svn-repositories/cod/cif/4/03/28/4032876.cif $
#------------------------------------------------------------------------------
#
# This file is available in the Crystallography Open Database (COD),
# http://www.crystallography.net/
#
# All data on this site have been placed in the public domain by the
# contributors.
#
data_4032876
loop_
_publ_author_name
'Kawashima, Hiroyuki'
'Hiroto, Satoru'
'Shinokubo, Hiroshi'
_publ_section_title
;
 Acid-Mediated Migration of Bromide in an Antiaromatic Porphyrinoid:
 Preparation of Two Regioisomeric Ni(II) Bromonorcorroles.
;
_journal_issue                   19
_journal_name_full               'The Journal of organic chemistry'
_journal_page_first              10425
_journal_page_last               10432
_journal_paper_doi               10.1021/acs.joc.7b01899
_journal_volume                  82
_journal_year                    2017
_chemical_formula_sum            'C36 H29 Br N4 Ni'
_chemical_formula_weight         656.25
_chemical_name_systematic
;
 ?
;
_space_group_crystal_system      monoclinic
_space_group_IT_number           14
_space_group_name_Hall           '-P 2ybc'
_space_group_name_H-M_alt        'P 1 21/c 1'
_symmetry_space_group_name_Hall  '-P 2ybc'
_symmetry_space_group_name_H-M   'P 1 21/c 1'
_atom_sites_solution_hydrogens   geom
_audit_creation_method           SHELXL-2014
_cell_angle_alpha                90
_cell_angle_beta                 98.977(2)
_cell_angle_gamma                90
_cell_formula_units_Z            4
_cell_length_a                   12.6966(3)
_cell_length_b                   27.8406(7)
_cell_length_c                   8.1912(2)
_cell_measurement_reflns_used    10405
_cell_measurement_temperature    93(2)
_cell_measurement_theta_max      31.49
_cell_measurement_theta_min      2.18
_cell_volume                     2859.97(12)
_computing_cell_refinement       'CrysAlisPro 1.171.38.41 (Rigaku OD, 2015)'
_computing_data_collection       'CrystalClear (Rigaku Inc., 2008)'
_computing_data_reduction        'CrysAlisPro 1.171.38.41 (Rigaku OD, 2015)'
_computing_structure_refinement  'SHELXL-2014 (Sheldrick, 2014)'
_computing_structure_solution    'SHELXT-2014/7 (Sheldrick, 2014)'
_diffrn_ambient_temperature      93(2)
_diffrn_detector_area_resol_mean 7.111
_diffrn_measured_fraction_theta_full 0.997
_diffrn_measured_fraction_theta_max 0.991
_diffrn_measurement_device_type  'Rigaku Saturn724'
_diffrn_measurement_method       \w
_diffrn_radiation_type           'Mo K\a'
_diffrn_radiation_wavelength     0.71075
_diffrn_reflns_av_R_equivalents  0.0306
_diffrn_reflns_av_unetI/netI     0.0214
_diffrn_reflns_Laue_measured_fraction_full 0.997
_diffrn_reflns_Laue_measured_fraction_max 0.991
_diffrn_reflns_limit_h_max       14
_diffrn_reflns_limit_h_min       -16
_diffrn_reflns_limit_k_max       36
_diffrn_reflns_limit_k_min       -36
_diffrn_reflns_limit_l_max       9
_diffrn_reflns_limit_l_min       -10
_diffrn_reflns_number            23533
_diffrn_reflns_point_group_measured_fraction_full 0.997
_diffrn_reflns_point_group_measured_fraction_max 0.991
_diffrn_reflns_theta_full        25.242
_diffrn_reflns_theta_max         27.499
_diffrn_reflns_theta_min         1.463
_exptl_absorpt_coefficient_mu    2.109
_exptl_absorpt_correction_T_max  0.900
_exptl_absorpt_correction_T_min  0.734
_exptl_absorpt_correction_type   multi-scan
_exptl_absorpt_process_details   'REQAB (Rigaku, 1998)'
_exptl_crystal_colour            green
_exptl_crystal_density_diffrn    1.524
_exptl_crystal_density_method    'not measured'
_exptl_crystal_description       block
_exptl_crystal_F_000             1344
_exptl_crystal_size_max          0.290
_exptl_crystal_size_mid          0.120
_exptl_crystal_size_min          0.050
_refine_diff_density_max         1.557
_refine_diff_density_min         -0.605
_refine_diff_density_rms         0.154
_refine_ls_extinction_method     none
_refine_ls_goodness_of_fit_ref   1.272
_refine_ls_hydrogen_treatment    constr
_refine_ls_matrix_type           full
_refine_ls_number_parameters     395
_refine_ls_number_reflns         6513
_refine_ls_number_restraints     0
_refine_ls_restrained_S_all      1.272
_refine_ls_R_factor_all          0.0491
_refine_ls_R_factor_gt           0.0445
_refine_ls_shift/su_max          0.002
_refine_ls_shift/su_mean         0.000
_refine_ls_structure_factor_coef Fsqd
_refine_ls_weighting_details
'w=1/[\s^2^(Fo^2^)+(0.0647P)^2^+4.0513P] where P=(Fo^2^+2Fc^2^)/3'
_refine_ls_weighting_scheme      calc
_refine_ls_wR_factor_gt          0.1288
_refine_ls_wR_factor_ref         0.1403
_reflns_Friedel_coverage         0.000
_reflns_number_gt                6185
_reflns_number_total             6513
_reflns_threshold_expression     'I > 2\s(I)'
_cod_data_source_file            jo7b01899_si_002.cif
_cod_data_source_block           v161024-2BrNor_a_compound_2b
_cod_depositor_comments
'Adding full bibliography for 4032875--4032877.cif.'
_cod_database_code               4032876
_shelx_space_group_comment
;
The symmetry employed for this shelxl refinement is uniquely defined
by the following loop, which should always be used as a source of
symmetry information in preference to the above space-group names.
They are only intended as comments.
;
_shelx_estimated_absorpt_t_min   0.580
_shelx_estimated_absorpt_t_max   0.902
_shelxl_version_number           2014-3
_shelx_res_file
;
TITL v161024-2BrNor_a.res
REM  Yadorkari-X generated
CELL 0.71073 12.6966 27.8406 8.1912 90.0000 98.9770 90.0000
ZERR 4.0 0.0003 0.0007 0.0002 0.0000 0.0020 0.0000
LATT 1
SYMM -X, 1/2+Y, 1/2-Z
REM  SPGR P21/c monoclinic
SFAC C H N Ni Br
UNIT 144 116 16 4 4
SIZE 0.05 0.12 0.29
TEMP -180.0
L.S. 10
FMAP 2
PLAN -20
ACTA
CONF
BOND$H
OMIT -10.000000 55.000000

SIMU 0.02 Br1 Br2
WGHT    0.064700    4.051300
FVAR       0.43375   0.93024
C1    1    0.433873    0.446450    0.404688    11.00000    0.02137    0.02575 =
         0.02401   -0.00101    0.00770    0.00100
C2    1    0.331162    0.461624    0.425738    11.00000    0.02036    0.02450 =
         0.02683   -0.00016    0.00306    0.00130
PART 2
AFIX  43
H29   2    0.295652    0.489416    0.377500   -21.00000   -1.20000
PART 0
AFIX   0
C3    1    0.290038    0.429116    0.529166    11.00000    0.01961    0.02925 =
         0.02368   -0.00287    0.00643   -0.00022
AFIX  43
H19   2    0.222538    0.430722    0.565192    11.00000   -1.20000
AFIX   0
C4    1    0.369079    0.393175    0.569863    11.00000    0.01975    0.02972 =
         0.02528   -0.00067    0.00856    0.00005
C5    1    0.371380    0.347973    0.658628    11.00000    0.02066    0.03349 =
         0.02042   -0.00089    0.00598   -0.00141
C6    1    0.452246    0.313941    0.661597    11.00000    0.02041    0.02967 =
         0.02244    0.00280    0.00647   -0.00177
C7    1    0.465607    0.265082    0.721537    11.00000    0.02276    0.03167 =
         0.02434    0.00336    0.00478   -0.00203
AFIX  43
H20   2    0.418223    0.248149    0.779902    11.00000   -1.20000
AFIX   0
C8    1    0.559419    0.247337    0.679014    11.00000    0.02259    0.02983 =
         0.02609    0.00428    0.00398    0.00101
AFIX  43
H21   2    0.587861    0.216033    0.701203    11.00000   -1.20000
AFIX   0
C9    1    0.605580    0.285336    0.594851    11.00000    0.01872    0.02599 =
         0.02432    0.00212    0.00376    0.00087
C10   1    0.697312    0.295782    0.507027    11.00000    0.01966    0.02805 =
         0.02308    0.00070    0.00363   -0.00014
C11   1    0.787184    0.274375    0.454663    11.00000    0.02168    0.03334 =
         0.03278    0.00177    0.00667    0.00418
AFIX  43
H30   2    0.814513    0.243155    0.482271    11.00000   -1.20000
AFIX   0
C12   1    0.828342    0.308087    0.354023    11.00000    0.01980    0.03289 =
         0.03155   -0.00025    0.00675    0.00301
AFIX  43
H23   2    0.889263    0.303955    0.301275    11.00000   -1.20000
AFIX   0
C13   1    0.762143    0.349695    0.345247    11.00000    0.01816    0.03068 =
         0.02088   -0.00190    0.00510   -0.00154
C14   1    0.758501    0.394017    0.252516    11.00000    0.01808    0.02901 =
         0.01961   -0.00435    0.00444   -0.00511
C15   1    0.677836    0.428321    0.249387    11.00000    0.01893    0.02835 =
         0.02103   -0.00177    0.00422   -0.00343
C16   1    0.653168    0.472838    0.161117    11.00000    0.02608    0.02686 =
         0.02591   -0.00148    0.00770   -0.00555
AFIX  43
H24   2    0.694897    0.487627    0.088491    11.00000   -1.20000
AFIX   0
C17   1    0.558423    0.490164    0.200614    11.00000    0.02422    0.02488 =
         0.02720   -0.00056    0.00580   -0.00218
PART 1
AFIX  43
H31   2    0.523035    0.518888    0.160685    21.00000   -1.20000
PART 0
AFIX   0
C18   1    0.523909    0.456691    0.312763    11.00000    0.02137    0.02536 =
         0.02187   -0.00198    0.00420   -0.00047
N1    3    0.452907    0.405796    0.493914    11.00000    0.02361    0.03170 =
         0.02963    0.00562    0.01211    0.00424
N2    3    0.540760    0.323400    0.588336    11.00000    0.01944    0.02926 =
         0.02409    0.00242    0.00750    0.00085
N3    3    0.686969    0.340328    0.441690    11.00000    0.01877    0.02795 =
         0.02291    0.00064    0.00637   -0.00008
N4    3    0.596217    0.421811    0.339641    11.00000    0.02113    0.02696 =
         0.02486    0.00204    0.00942    0.00161
NI1   4    0.571633    0.373772    0.471988    11.00000    0.01843    0.02668 =
         0.02407    0.00375    0.00898    0.00242
C19   1    0.282948    0.337843    0.754176    11.00000    0.02150    0.02627 =
         0.02414    0.00103    0.00988    0.00086
C20   1    0.301916    0.344250    0.926218    11.00000    0.02367    0.03310 =
         0.02497    0.00042    0.00637   -0.00045
C21   1    0.220859    0.333481    1.017018    11.00000    0.03257    0.03519 =
         0.02381    0.00141    0.01237    0.00173
AFIX  43
H25   2    0.233228    0.337540    1.133596    11.00000   -1.20000
AFIX   0
C22   1    0.122416    0.316937    0.940266    11.00000    0.03116    0.02270 =
         0.03545    0.00409    0.01903    0.00314
C23   1    0.104335    0.311703    0.770140    11.00000    0.02309    0.02306 =
         0.03662   -0.00230    0.00997   -0.00147
AFIX  43
H26   2    0.036405    0.301101    0.717168    11.00000   -1.20000
AFIX   0
C24   1    0.183567    0.321639    0.674748    11.00000    0.02197    0.02328 =
         0.02848   -0.00068    0.00773    0.00090
C25   1    0.406287    0.364281    1.013747    11.00000    0.03069    0.05596 =
         0.02709   -0.00430    0.00151   -0.00662
AFIX 137
H1    2    0.404802    0.365473    1.132939    11.00000   -1.50000
H2    2    0.416688    0.396753    0.972915    11.00000   -1.50000
H3    2    0.465041    0.343604    0.992140    11.00000   -1.50000
AFIX   0
C26   1    0.037411    0.304401    1.042491    11.00000    0.03690    0.03312 =
         0.04486    0.00434    0.02481   -0.00125
AFIX 137
H4    2   -0.024960    0.291366    0.970554    11.00000   -1.50000
H5    2    0.016771    0.333334    1.097869    11.00000   -1.50000
H6    2    0.065129    0.280348    1.125546    11.00000   -1.50000
AFIX   0
C27   1    0.161875    0.314477    0.489799    11.00000    0.02923    0.03753 =
         0.03024   -0.00511    0.00574   -0.00734
AFIX 137
H7    2    0.088440    0.303280    0.457058    11.00000   -1.50000
H8    2    0.211419    0.290515    0.457882    11.00000   -1.50000
H9    2    0.171691    0.344988    0.434434    11.00000   -1.50000
AFIX   0
C28   1    0.843553    0.403745    0.149807    11.00000    0.01843    0.02585 =
         0.02428   -0.00089    0.00625   -0.00124
C29   1    0.940703    0.423723    0.223916    11.00000    0.02291    0.02581 =
         0.02625   -0.00549    0.00732   -0.00263
C30   1    1.016588    0.435307    0.126146    11.00000    0.02084    0.02720 =
         0.03606   -0.00452    0.01003   -0.00498
AFIX  43
H27   2    1.082382    0.448806    0.176681    11.00000   -1.20000
AFIX   0
C31   1    0.999511    0.427785   -0.044223    11.00000    0.02602    0.02306 =
         0.03251    0.00326    0.01457    0.00369
C32   1    0.904155    0.406436   -0.114169    11.00000    0.02633    0.03225 =
         0.02320    0.00295    0.00903    0.00355
AFIX  43
H28   2    0.892360    0.399874   -0.229394    11.00000   -1.20000
AFIX   0
C33   1    0.825423    0.394366   -0.020868    11.00000    0.01924    0.02873 =
         0.02470   -0.00029    0.00423    0.00064
C34   1    0.962542    0.432869    0.407555    11.00000    0.02539    0.04681 =
         0.02948   -0.01158    0.00544   -0.00826
AFIX 137
H10   2    1.027833    0.451930    0.434481    11.00000   -1.50000
H11   2    0.971430    0.402150    0.466517    11.00000   -1.50000
H12   2    0.902555    0.450470    0.441004    11.00000   -1.50000
AFIX   0
C35   1    1.082984    0.441485   -0.147567    11.00000    0.03217    0.03232 =
         0.04043    0.00431    0.01928   -0.00023
AFIX 137
H13   2    1.104710    0.412921   -0.203812    11.00000   -1.50000
H14   2    1.145033    0.455026   -0.076250    11.00000   -1.50000
H15   2    1.053562    0.465428   -0.229931    11.00000   -1.50000
AFIX   0
C36   1    0.723139    0.370946   -0.101800    11.00000    0.02676    0.04442 =
         0.02276   -0.00716    0.00328   -0.00720
AFIX 137
H16   2    0.666003    0.394947   -0.118278    11.00000   -1.50000
H17   2    0.703826    0.345135   -0.030689    11.00000   -1.50000
H18   2    0.733240    0.357566   -0.208931    11.00000   -1.50000
PART 1
AFIX   0
BR1   5    0.260852    0.515003    0.320913    21.00000    0.02202    0.02415 =
         0.03240    0.00042    0.00453    0.00254
PART 2
BR2   5    0.488649    0.546798    0.176363   -21.00000    0.07276    0.03480 =
         0.05103    0.00161    0.00387    0.00158
PART 0

HKLF 4

REM  v161024-2BrNor_a.res
REM R1 =  0.0445 for    6185 Fo > 4sig(Fo)  and  0.0491 for all    6513 data
REM    395 parameters refined using      0 restraints

END

WGHT      0.0647      4.0513

REM Highest difference peak  1.557,  deepest hole -0.605,  1-sigma level  0.154
Q1    1   0.8253  0.2238  0.4387  11.00000  0.05    1.56
Q2    1   0.3834  0.2336  0.7714  11.00000  0.05    0.85
Q3    1   0.5554  0.3951  0.4216  11.00000  0.05    0.68
Q4    1   0.1826  0.4393  0.5703  11.00000  0.05    0.65
Q5    1   0.1849  0.3184  0.9627  11.00000  0.05    0.60
Q6    1   0.1138  0.3182  0.8480  11.00000  0.05    0.58
Q7    1   1.0373  0.4309 -0.0853  11.00000  0.05    0.54
Q8    1   0.0216  0.2729  1.0552  11.00000  0.05    0.54
Q9    1   0.1617  0.3386  0.9670  11.00000  0.05    0.53
Q10   1   0.1736  0.3186  0.5851  11.00000  0.05    0.52
Q11   1   1.0048  0.4350  0.0290  11.00000  0.05    0.52
Q12   1   0.9614  0.4122 -0.0772  11.00000  0.05    0.49
Q13   1   0.1051  0.3156  0.9688  11.00000  0.05    0.49
Q14   1   0.2396  0.3198  0.7095  11.00000  0.05    0.48
Q15   1   1.0166  0.4176 -0.0151  11.00000  0.05    0.47
Q16   1   0.2583  0.3359  0.9701  11.00000  0.05    0.47
Q17   1   0.9081  0.4106  0.1935  11.00000  0.05    0.46
Q18   1   0.8756  0.2340  0.6067  11.00000  0.05    0.45
Q19   1   0.3539  0.3479  0.9656  11.00000  0.05    0.44
Q20   1   0.2834  0.3435  0.8279  11.00000  0.05    0.43
;
_shelx_res_checksum              64646
_shelx_hkl_file
;
   1   0   0   -0.29    0.17
   2   0   0  125.40    1.59
   2   0   0  180.14    2.27
  -2   0   0  129.38    1.73
  -2   0   0  166.78    2.20
  -3   0   0   38.86    1.56
   3   0   0   39.28    1.34
   3   0   0   38.13    1.21
  -3   0   0   42.66    1.38
  -4   0   0 1863.76    9.55
   4   0   0 1837.65    8.51
   4   0   0 1809.61    9.05
  -5   0   0  119.46    1.79
  -5   0   0   98.28    2.57
  -5   0   0  116.95    3.10
   5   0   0  112.01    2.64
  -6   0   0 3923.42   18.93
  -6   0   0 3792.65   11.02
  -6   0   0 3853.26   17.16
  -7   0   0 4865.33   21.23
  -7   0   0 5035.11   23.21
  -7   0   0 4844.77   13.63
  -8   0   0  656.53    5.46
  -8   0   0  639.22    8.69
  -8   0   0  649.77    9.13
  -9   0   0   70.80    3.31
  -9   0   0   69.82    2.02
  -9   0   0   64.74    3.39
 -10   0   0  596.80    6.08
 -10   0   0  606.94   10.00
 -10   0   0  551.39    9.62
 -11   0   0  400.19    5.42
 -11   0   0  413.13    9.10
 -12   0   0  367.35    9.16
 -12   0   0  375.24    5.65
 -13   0   0  185.29    4.32
 -13   0   0  185.51    7.17
 -14   0   0   26.75    3.47
 -15   0   0   40.37    4.44
 -16   0   0   89.15    6.33
 -17   0   0   53.12    5.72
   1  -1   0   -0.15    0.24
  -2  -1   0 1336.52    5.44
  -2  -1   0 1262.44    6.34
   2  -1   0 1361.34    6.07
   2  -1   0 1295.47    3.84
   2   1   0 1417.37    5.31
  -2   1   0 1208.04    3.85
   2   1   0 1199.27    5.62
  -2   1   0 1301.91    6.43
  -3   1   0   40.34    1.60
  -3   1   0   42.31    0.96
   3   1   0   49.35    1.35
   3  -1   0   41.99    1.46
   3   1   0   70.52    1.63
  -3   1   0   41.49    1.25
  -3  -1   0   62.31    1.73
  -3  -1   0   46.12    1.45
   4  -1   0  901.71    6.67
   4   1   0  905.45    6.15
  -4   1   0  916.88    6.29
   4   1   0  823.73    5.93
  -4   1   0  867.24    4.47
  -4   1   0  859.16    7.26
  -4  -1   0  834.32    6.95
  -4  -1   0  880.35    6.71
  -5   1   0  729.34    6.32
  -5   1   0  656.34    4.36
  -5   1   0  694.62    7.35
  -5  -1   0  684.56    6.92
   5  -1   0  666.77    6.30
  -5  -1   0  662.94    6.89
   5   1   0  664.77    5.86
   5   1   0  663.46    5.79
  -6  -1   0   98.69    3.10
  -6  -1   0  107.05    3.18
   6   1   0   99.18    2.53
  -6   1   0  105.44    2.00
  -6   1   0  126.39    3.00
  -6   1   0  109.01    3.41
  -7  -1   0   17.02    1.76
  -7  -1   0   16.38    1.78
  -7   1   0   13.78    0.98
  -7   1   0   11.85    1.60
  -7   1   0   16.86    1.52
  -8  -1   0  170.10    2.78
  -8  -1   0  145.60    4.39
  -8   1   0  170.37    4.93
  -8   1   0  161.24    2.86
  -8  -1   0  170.52    4.72
  -8   1   0  157.77    4.12
  -9  -1   0  418.24    4.69
  -9  -1   0  423.18    7.84
  -9   1   0  403.31    7.93
  -9   1   0  419.11    4.96
  -9   1   0  413.17    7.32
  -9  -1   0  371.37    7.42
 -10  -1   0  337.55    4.57
 -10   1   0  304.58    7.42
 -10   1   0  341.24    4.89
 -10   1   0  297.65    6.83
 -10  -1   0  327.60    7.43
 -10  -1   0  318.48    7.53
 -11   1   0  518.79    6.38
 -11  -1   0  563.05   10.34
 -11   1   0  554.20   10.59
 -11  -1   0  567.62    6.16
 -12   1   0    4.94    2.26
 -12   1   0    5.60    1.37
 -12  -1   0    4.52    2.31
 -12  -1   0    7.31    1.44
 -13  -1   0   16.69    1.74
 -13   1   0   15.90    1.81
 -13  -1   0   15.53    3.01
 -13   1   0   13.79    2.73
 -14  -1   0    2.92    2.31
 -14   1   0    1.16    2.40
 -15  -1   0    2.94    2.56
 -15   1   0    3.25    2.68
 -16  -1   0   17.74    3.85
 -16   1   0   19.23    4.12
 -17  -1   0   35.83    5.17
 -17   1   0   38.35    5.22
   0  -2   0   -0.78    0.41
  -1   2   0   -0.55    0.32
  -1  -2   0    6.59    0.76
   1  -2   0   10.94    0.68
  -1   2   0   -0.64    0.34
   1  -2   0    9.89    0.55
  -1  -2   0   -0.19    0.11
   1   2   0    9.15    0.32
  -2   2   0  180.26    1.97
   2  -2   0  147.03    2.23
  -2  -2   0  188.84    1.99
   2  -2   0  202.71    1.98
  -2  -2   0  185.25    2.97
   2   2   0  191.67    2.90
   2   2   0  196.47    1.86
  -2   2   0  190.84    2.81
  -3   2   0 3196.96   13.04
   3   2   0 3407.31    9.71
   3  -2   0 3358.68   12.10
  -3   2   0 3275.34    8.76
  -3  -2   0 3425.63   10.60
  -3  -2   0 3319.01   13.70
   3  -2   0 3203.74    7.68
   3   2   0 3109.84   11.90
  -4   2   0 1921.37    7.38
   4   2   0 1949.78    8.57
  -4  -2   0 1919.47    9.44
   4   2   0 1821.25    9.56
  -4   2   0 1894.44   11.19
  -4   2   0 2033.68    9.24
  -4  -2   0 1796.13   11.12
   4  -2   0 1911.03    9.95
  -5   2   0  703.40    7.70
   5   2   0  716.90    5.91
  -5   2   0  716.22    6.10
   5  -2   0  699.96    6.68
   5   2   0  663.67    6.24
  -5   2   0  701.01    4.91
  -5  -2   0  688.78    7.53
  -5  -2   0  730.92    6.80
  -6   2   0  778.05    8.88
  -6  -2   0  803.33    8.01
  -6  -2   0  773.23    8.73
  -6   2   0  759.16    5.56
   6   2   0  769.23    7.10
  -6   2   0  732.26    6.90
  -7  -2   0   94.46    3.24
  -7  -2   0   97.41    3.51
  -7   2   0   88.99    3.42
  -7   2   0   69.26    2.56
   7   2   0  100.71    2.80
  -7   2   0   86.14    2.10
  -8   2   0  901.88   11.30
  -8   2   0  912.88    7.18
  -8   2   0  976.73    9.75
   8   2   0  875.45    8.46
  -8  -2   0  904.12   10.39
  -8  -2   0  875.80   10.87
  -9   2   0  163.48    5.20
  -9   2   0  152.18    3.17
  -9  -2   0  160.36    4.96
  -9  -2   0  158.64    2.89
  -9  -2   0  154.01    5.15
  -9   2   0  175.69    4.61
 -10   2   0  596.45    6.63
 -10   2   0  537.10    8.90
 -10  -2   0  572.43    9.52
 -10  -2   0  581.21    5.75
 -11  -2   0  200.13    3.75
 -11   2   0  183.74    6.28
 -11   2   0  187.66    4.07
 -11  -2   0  202.01    6.24
 -12   2   0  726.00   13.06
 -12  -2   0  721.26   12.15
 -12   2   0  766.54    8.56
 -12  -2   0  761.40    7.42
 -13  -2   0  342.51    5.48
 -13   2   0  333.07    9.47
 -13  -2   0  333.60    9.16
 -13   2   0  338.50    6.06
 -14  -2   0    9.88    2.83
 -14   2   0    7.33    2.56
 -15  -2   0  217.22    8.39
 -15   2   0  219.87    9.03
 -16  -2   0   32.37    4.35
 -16   2   0   28.82    4.46
 -17  -2   0  120.78    7.44
 -17   2   0  127.23    8.20
   0  -3   0    5.50    1.00
   0  -3   0    6.80    1.01
   0   3   0   -0.77    0.73
  -1   3   0 1592.29    8.26
  -1   3   0 1596.31    8.64
   1   3   0 1597.95    9.91
  -1  -3   0 1658.81   10.53
  -1  -3   0 1508.33    3.94
   1  -3   0 1617.21    7.65
   1  -3   0 1580.04    7.98
   1   3   0 1558.91    3.86
  -2  -3   0  541.87    3.23
   2  -3   0  576.36    3.87
  -2   3   0  551.50    4.34
   2   3   0  629.00    6.08
  -2   3   0  544.82    5.32
   2   3   0  534.82    3.06
   2  -3   0  570.18    4.84
  -2  -3   0  635.34    6.38
   3   3   0  274.12    2.67
  -3   3   0  272.11    2.98
   3  -3   0  275.68    2.63
   3   3   0  245.53    3.95
  -3  -3   0  268.90    3.00
   3  -3   0  263.11    3.68
  -3  -3   0  272.21    4.50
  -3   3   0  270.11    4.14
   4  -3   0   58.81    2.01
   4   3   0   61.63    1.56
  -4   3   0   64.28    1.60
  -4  -3   0   60.84    1.74
   4   3   0   83.23    2.41
  -4  -3   0   77.91    2.68
   4  -3   0   61.62    1.31
  -4   3   0   56.24    2.25
  -5   3   0  947.35    7.24
  -5   3   0  940.99    9.16
   5   3   0  903.56    7.86
   5   3   0  942.87    6.57
  -5  -3   0  945.79    7.55
   5  -3   0  850.43    7.65
  -5  -3   0  938.10    9.44
  -5   3   0  916.93    6.17
  -6   3   0  214.26    3.80
  -6   3   0  181.43    2.96
  -6  -3   0  190.37    3.93
  -6  -3   0  174.94    4.48
   6   3   0  161.01    3.49
  -6   3   0  180.51    4.59
   7   3   0   36.84    1.83
  -7   3   0   34.72    2.40
  -7  -3   0   40.36    2.48
  -7  -3   0   40.41    2.15
  -7   3   0   27.36    1.67
  -7   3   0   32.89    1.50
  -8  -3   0  160.45    4.92
   8   3   0  159.14    3.75
  -8   3   0  176.13    4.18
  -8   3   0  163.30    3.26
  -8  -3   0  176.36    4.59
  -8   3   0  177.71    5.15
  -9  -3   0   23.41    2.23
  -9  -3   0   21.99    2.30
   9   3   0   22.56    1.70
  -9   3   0   19.02    1.39
  -9   3   0   24.92    2.55
  -9   3   0   25.11    1.90
 -10  -3   0   57.58    3.28
 -10   3   0   58.87    2.33
 -10   3   0   51.20    3.57
 -10  -3   0   52.89    1.87
 -10   3   0   42.59    2.66
 -11  -3   0  499.19    9.60
 -11   3   0  526.12    6.87
 -11  -3   0  501.44    5.68
 -11   3   0  479.08   10.20
 -12  -3   0   30.97    1.76
 -12   3   0   25.68    1.95
 -12  -3   0   30.48    3.03
 -12   3   0   28.12    3.26
 -13   3   0  142.81    4.33
 -13  -3   0  137.90    5.95
 -13   3   0  124.44    6.08
 -13  -3   0  147.95    3.56
 -14  -3   0  152.15    6.78
 -14   3   0  155.60    7.45
 -15   3   0   -0.52    2.87
 -15  -3   0    8.60    3.05
 -16   3   0   59.69    5.58
 -16  -3   0   71.72    5.60
 -17   3   0   13.65    4.06
 -17  -3   0   17.24    3.81
   0  -4   0 3388.07   16.40
   0   4   0 3175.41   16.23
   0   4   0 3257.86   16.87
   0  -4   0 3319.34   15.70
  -1   4   0  399.73    5.12
  -1  -4   0  384.32    2.10
  -1  -4   0  404.26    5.85
   1   4   0  392.24    5.72
   1  -4   0  397.23    4.58
  -1   4   0  391.99    5.07
   1  -4   0  416.35    4.68
   1   4   0  389.95    2.06
  -2   4   0  668.01    6.71
   2   4   0  685.31    7.45
   2   4   0  640.88    3.36
   2  -4   0  655.94    5.06
   2  -4   0  693.33    6.00
  -2  -4   0  668.10    3.55
  -2   4   0  684.97    5.92
  -2  -4   0  694.77    7.69
  -3  -4   0   17.94    0.86
  -3   4   0   16.12    1.37
   3  -4   0   20.78    1.33
  -3  -4   0   29.96    1.93
   3  -4   0   23.66    0.99
   3   4   0   21.53    0.85
  -3   4   0   18.86    1.13
  -4   4   0 2413.62   14.25
  -4   4   0 2435.72   10.74
   4  -4   0 2411.22    8.68
   4   4   0 2481.09    9.33
   4   4   0 2459.71   14.05
   4  -4   0 2509.40   12.70
  -4  -4   0 2448.37   10.36
   5  -4   0 1251.71    6.46
  -5  -4   0 1305.09   12.00
  -5   4   0 1220.53    7.79
   5   4   0 1227.75    7.36
   5  -4   0 1317.02   10.07
   5   4   0 1197.31    9.78
  -5   4   0 1227.06   11.18
  -5  -4   0 1258.93    8.65
  -6  -4   0   48.93    2.08
  -6   4   0   49.17    1.74
  -6   4   0   52.60    2.03
  -6   4   0   45.52    2.60
  -6  -4   0   49.93    2.73
   6   4   0   43.21    2.05
  -7   4   0  592.74    6.87
  -7  -4   0  557.76    7.18
  -7   4   0  552.41    8.62
  -7   4   0  542.58    5.84
  -7  -4   0  556.10    8.92
   7   4   0  538.78    6.85
  -8   4   0 1474.22   15.16
  -8   4   0 1522.33   10.18
  -8   4   0 1583.54   12.00
   8   4   0 1504.02   11.70
  -8  -4   0 1488.35   15.43
  -8  -4   0 1495.73   12.63
  -9  -4   0  297.94    6.30
  -9   4   0  296.69    4.87
  -9   4   0  298.13    5.80
  -9   4   0  270.39    7.12
  -9  -4   0  275.50    7.24
   9   4   0  287.30    5.30
 -10   4   0  256.05    4.82
 -10   4   0  254.97    7.26
  10   4   0  275.85    5.46
 -10  -4   0  272.75    6.73
 -11   4   0  287.60    8.28
 -11  -4   0  304.32    7.48
 -11   4   0  298.75    5.62
 -11  -4   0  298.96    4.42
 -12  -4   0    3.17    1.02
 -12   4   0    5.17    2.33
 -12   4   0    3.28    1.27
 -12  -4   0    4.01    1.95
 -13  -4   0   27.36    3.11
 -13   4   0   26.17    2.25
 -13  -4   0   25.86    1.74
 -13   4   0   28.54    3.75
 -14  -4   0  383.66   10.09
 -14   4   0  395.86   11.71
 -15   4   0  721.98   16.33
 -15  -4   0  773.02   15.12
 -16  -4   0    4.42    2.95
 -16   4   0    5.80    3.66
 -17  -4   0  128.81    7.57
   0  -5   0    6.39    1.38
   0  -5   0    5.58    1.37
   0   5   0    7.03    1.45
   0   5   0    7.69    1.54
  -1  -5   0 1501.20    4.47
   1   5   0 1495.78    4.37
  -1  -5   0 1637.79   13.04
  -1   5   0 1507.20   11.56
  -1   5   0 1532.62   11.57
   1  -5   0 1517.75   10.14
   1   5   0 1546.22   12.90
   1  -5   0 1542.42   10.54
   2   5   0  234.44    4.91
   2  -5   0  191.92    3.61
   2   5   0  192.52    1.87
  -2  -5   0  228.63    5.04
   2  -5   0  205.38    3.34
  -2   5   0  202.21    3.89
  -2  -5   0  203.76    2.01
  -2   5   0  181.58    4.03
   3   5   0  572.24    7.41
  -3  -5   0  625.40    8.29
  -3   5   0  584.07    7.27
  -3   5   0  573.98    6.20
   3  -5   0  567.15    6.09
   3   5   0  547.48    3.69
  -3  -5   0  575.09    4.11
   3  -5   0  570.42    5.08
  -4  -5   0  269.73    3.41
  -4   5   0  279.69    5.36
   4   5   0  273.59    3.06
  -4   5   0  262.68    4.10
   4  -5   0  281.66    4.52
   4  -5   0  264.23    3.28
  -4  -5   0  279.35    5.89
   4   5   0  246.55    4.95
   5  -5   0  266.99    3.25
  -5   5   0  250.53    5.59
   5   5   0  251.32    3.28
  -5  -5   0  256.68    3.92
   5  -5   0  256.36    4.55
  -5   5   0  266.80    4.10
  -5  -5   0  245.05    5.74
   5   5   0  242.76    5.07
  -6  -5   0  551.84    8.84
  -6   5   0  495.99    8.19
   6   5   0  542.17    7.15
   6  -5   0  529.30    4.61
  -6   5   0  534.72    5.93
  -6  -5   0  494.02    6.12
   7   5   0  317.71    5.60
  -7  -5   0  319.48    7.20
  -7   5   0  301.36    6.72
  -7  -5   0  307.25    5.33
  -7   5   0  320.24    5.11
  -7   5   0  306.81    4.78
  -8   5   0   18.10    1.57
  -8   5   0   18.29    2.25
  -8  -5   0   17.10    2.20
   8   5   0   14.08    1.50
  -8   5   0   18.15    1.47
  -8  -5   0   18.56    1.75
  -9  -5   0  473.57    7.83
  -9  -5   0  448.86    9.59
   9   5   0  489.65    7.21
  -9   5   0  451.37    9.34
  -9   5   0  474.68    6.57
  -9   5   0  477.11    7.20
 -10   5   0  578.59    7.54
 -10  -5   0  584.16    9.20
 -10   5   0  570.20   11.19
  10   5   0  514.20    7.58
 -11  -5   0  191.23    5.95
 -11   5   0  192.76    7.16
 -11   5   0  188.41    4.68
 -12   5   0   32.56    3.80
 -12  -5   0   34.30    1.77
 -12   5   0   32.72    2.37
 -12  -5   0   32.06    2.88
 -13   5   0   21.10    2.19
 -13   5   0   22.36    3.43
 -13  -5   0   22.93    1.65
 -13  -5   0   21.62    3.08
 -14  -5   0  132.39    6.02
 -14   5   0  141.75    7.29
 -15   5   0   35.10    4.74
 -15  -5   0   40.06    4.30
 -16  -5   0   41.91    4.61
 -16   5   0   50.82    5.70
 -17  -5   0   45.19    5.11
   0  -6   0 1310.17   12.20
   0  -6   0 1270.44   12.05
   0   6   0 1293.74   13.53
   0   6   0 1263.45   12.69
  -1   6   0  670.97    8.53
  -1  -6   0  602.31    3.05
  -1  -6   0  732.43    9.67
   1   6   0  696.34    9.66
   1  -6   0  651.17    7.61
   1   6   0  609.76    3.09
  -1   6   0  653.41    8.61
   1  -6   0  653.66    7.47
   2  -6   0 9037.66   26.21
   2   6   0 9434.56   33.71
   2  -6   0 9276.77   25.49
  -2   6   0 9123.82   29.31
  -2   6   0 9019.81   30.23
  -2  -6   0 9596.47   35.15
  -3   6   0   27.87    2.11
   3  -6   0   30.45    1.45
   3   6   0   28.10    0.92
  -3  -6   0   26.46    1.03
   3  -6   0   30.25    1.78
   3   6   0   33.33    2.26
  -3  -6   0   25.67    2.35
  -3   6   0   28.51    1.82
   4  -6   0 1234.81    7.70
  -4   6   0 1168.79   11.48
  -4  -6   0 1321.77   13.54
   4  -6   0 1264.54   10.06
  -4  -6   0 1182.77    6.91
   4   6   0 1216.70    6.36
   4   6   0 1182.78   11.57
  -4   6   0 1255.12   10.12
  -5  -6   0  980.14   12.04
  -5   6   0  940.84    8.70
   5  -6   0  882.66    8.73
  -5  -6   0  915.16    7.19
   5  -6   0  932.81    6.51
  -5   6   0  928.99   10.97
   5   6   0  901.82    6.13
   5   6   0  917.14   10.18
  -6   6   0  431.34    6.00
   6   6   0  417.38    6.83
  -6  -6   0  427.08    8.28
  -6  -6   0  430.04    5.52
   6  -6   0  409.09    4.31
  -6   6   0  420.03    7.79
  -7  -6   0  198.97    6.03
  -7  -6   0  193.94    4.22
   7   6   0  198.70    4.78
  -7   6   0  211.82    6.05
   7  -6   0  196.78    3.08
  -7   6   0  191.72    4.21
  -8  -6   0  363.68    8.54
  -8   6   0  361.22    5.83
  -8   6   0  393.67    6.26
  -8   6   0  379.14    8.39
  -8  -6   0  367.64    6.28
   8   6   0  355.87    6.42
  -9  -6   0   93.36    3.59
   9   6   0   90.42    3.32
  -9   6   0   90.72    3.27
  -9   6   0   89.32    3.20
  -9   6   0   91.67    4.56
 -10  -6   0  286.55    6.61
 -10   6   0  307.38    8.70
 -10   6   0  271.80    5.66
  10   6   0  297.73    5.93
 -11   6   0  161.07    6.71
 -11  -6   0  167.37    5.46
  11   6   0  179.82    4.80
 -11   6   0  171.13    4.81
 -12  -6   0   20.56    2.58
 -12   6   0   21.22    2.21
 -12   6   0   20.74    3.21
 -13  -6   0  184.00    6.60
 -13   6   0  196.91    8.16
 -13  -6   0  194.64    3.96
 -13   6   0  181.27    5.65
 -14  -6   0   87.53    4.94
 -14   6   0   85.08    6.06
 -15  -6   0   29.53    3.87
 -15   6   0   22.31    4.24
 -16   6   0   63.02    6.27
 -16  -6   0   52.66    4.88
 -17  -6   0   24.45    4.11
   0   7   0   14.65    2.45
   0  -7   0   11.86    1.89
   0   7   0   14.53    2.26
   0  -7   0   12.10    1.90
  -1  -7   0 2033.06   17.25
  -1  -7   0 1912.47    5.76
  -1   7   0 1904.14   15.89
   1  -7   0 2039.53   14.33
   1   7   0 1911.14    5.69
   1  -7   0 2012.85   14.25
  -1   7   0 1971.98   16.42
   1   7   0 1973.14   17.37
  -2  -7   0 2274.34    7.04
   2  -7   0 2331.87   14.33
  -2   7   0 2332.17   16.63
   2   7   0 2264.42    6.75
  -2  -7   0 2402.11   18.87
   2  -7   0 2324.92   13.92
  -2   7   0 2296.41   16.53
   2   7   0 2256.18   17.84
   3   7   0 2220.34    7.54
  -3  -7   0 2513.85   20.00
   3   7   0 2379.43   18.01
   3  -7   0 2364.90   12.49
   3  -7   0 2438.09   14.46
  -3  -7   0 2268.23    8.29
  -3   7   0 2283.83   16.68
  -3   7   0 2326.67   15.79
  -4   7   0  883.98    9.48
   4  -7   0  890.33    8.78
   4  -7   0  904.44    7.25
  -4   7   0  898.35   10.98
  -4  -7   0  928.51   12.34
   4   7   0  837.89    5.33
  -4  -7   0  859.62    5.97
   4   7   0  826.82   10.57
  -5   7   0   33.84    2.14
   5   7   0   33.26    1.31
   5   7   0   40.64    2.50
  -5  -7   0   39.99    2.95
  -5  -7   0   34.68    1.53
   5  -7   0   31.02    1.43
  -5   7   0   34.52    2.66
  -6  -7   0   35.06    1.78
   6  -7   0   31.76    1.42
  -6  -7   0   32.45    2.82
  -6   7   0   40.59    2.99
  -6   7   0   35.62    2.16
   6   7   0   29.49    2.24
  -7  -7   0   51.85    3.45
  -7   7   0   45.52    2.42
   7  -7   0   41.32    1.58
  -7  -7   0   48.58    2.25
  -7   7   0   50.64    3.37
   7   7   0   41.28    2.48
   8   7   0  128.44    4.06
  -8   7   0  106.76    4.88
  -8  -7   0  111.43    3.46
  -8   7   0  118.73    3.67
  -9   7   0 1305.79   16.74
  -9   7   0 1305.07   12.44
  -9  -7   0 1318.36   12.61
 -10   7   0  962.65   11.24
  10   7   0  965.49   10.96
 -10   7   0  959.04   15.09
 -10  -7   0  988.52   11.72
 -11   7   0   68.05    4.70
 -11  -7   0   58.38    3.43
  11   7   0   62.33    3.03
 -12  -7   0   65.97    3.93
 -12   7   0   66.80    3.61
  12   7   0   77.70    3.43
 -12   7   0   59.84    4.63
 -13  -7   0   93.16    2.91
 -13   7   0   77.50    3.99
 -13   7   0   83.51    5.86
 -13  -7   0   78.52    4.65
 -14   7   0  120.69    7.23
 -14  -7   0  122.93    5.91
 -15   7   0   65.31    5.95
 -15  -7   0   68.24    4.91
 -16   7   0  162.55    9.16
 -16  -7   0  158.98    7.51
   0   8   0  344.56    7.97
   0   8   0  324.03    7.87
   0  -8   0  339.71    7.15
   0  -8   0  345.57    7.23
   1  -8   0 9740.77   33.26
   1   8   0 9385.68   40.24
  -1   8   0 9971.11   40.48
  -1  -8   0 9937.17   40.22
   1  -8   0 9595.32   33.50
  -1   8   0 9748.21   39.72
  -1  -8   0 9999.00   42.56
  -2  -8   0 1488.91    5.88
   2   8   0 1618.28   16.33
   2  -8   0 1597.80   12.88
  -2   8   0 1582.29   14.96
   2   8   0 1490.29    5.68
  -2   8   0 1573.75   15.06
   2  -8   0 1585.60   12.53
  -2  -8   0 1700.45   17.04
   3   8   0   74.78    1.46
   3  -8   0   74.23    2.59
  -3  -8   0   76.00    1.58
  -3   8   0   83.97    3.71
   3   8   0   77.94    3.76
   3  -8   0   79.44    2.95
  -3  -8   0   71.32    3.93
  -3   8   0   77.88    3.50
   4   8   0  252.19    2.91
   4  -8   0  251.26    4.28
  -4   8   0  256.73    5.72
  -4  -8   0  249.33    6.93
   4  -8   0  240.34    4.87
   4   8   0  240.62    6.26
  -4   8   0  266.03    6.53
  -4  -8   0  264.76    3.37
  -5  -8   0  553.63   10.43
  -5   8   0  529.16    9.18
  -5   8   0  527.64    7.98
   5  -8   0  515.07    5.70
   5   8   0  556.77    9.20
   5   8   0  516.76    4.70
  -5  -8   0  533.98    5.36
  -6  -8   0 4687.82   30.33
  -6   8   0 4443.07   27.75
   6   8   0 4589.65   25.59
  -6  -8   0 4682.09   17.99
  -6   8   0 4577.95   23.01
   6  -8   0 4570.86   16.29
  -7  -8   0  943.96   14.29
   7  -8   0  915.41    7.30
  -7   8   0  908.23   13.27
  -7  -8   0  937.28    8.88
   7   8   0  969.75   11.58
  -7   8   0  959.15   10.88
  -8  -8   0   62.11    2.62
  -8   8   0   63.99    3.16
   8  -8   0   57.78    1.98
   8   8   0   48.32    2.76
  -8   8   0   57.51    3.83
  -9   8   0    6.01    2.25
   9   8   0    7.47    1.64
  -9   8   0    7.99    1.51
  -9  -8   0    9.00    1.70
  10   8   0  702.46    9.91
 -10   8   0  688.62   13.13
 -10  -8   0  674.61    9.79
 -10   8   0  731.68   10.54
 -11   8   0   48.33    4.13
  11   8   0   54.73    2.97
 -11   8   0   45.65    3.08
 -11  -8   0   50.04    3.50
 -12   8   0  375.93   11.15
 -12  -8   0  397.43    8.85
  12   8   0  383.62    7.49
 -12   8   0  366.06    8.16
 -13   8   0  551.47   10.50
 -13   8   0  566.74   14.06
 -13  -8   0  589.16   11.38
 -14  -8   0  151.05    6.40
 -14   8   0  156.67    8.32
 -15   8   0    5.19    3.48
 -15  -8   0    6.57    2.71
 -16  -8   0  126.39    6.75
 -16   8   0  137.94    8.56
   0   9   0   27.29    3.22
   0  -9   0   22.16    2.45
   0   9   0   21.72    2.92
   0  -9   0   19.70    2.34
   1   9   0 2142.81   20.31
   1  -9   0 2076.77   16.16
  -1  -9   0 2183.00   19.77
   1  -9   0 2054.94   16.69
  -1  -9   0 1887.66    6.35
  -1   9   0 2037.80   19.35
  -1  -9   0 2299.00   21.48
  -1   9   0 2113.04   20.07
   2  -9   0  150.11    4.25
  -2   9   0  153.97    5.26
   2   9   0  161.57    1.99
   2  -9   0  147.20    4.29
  -2   9   0  155.74    5.35
   2   9   0  165.66    5.88
  -2  -9   0  160.55    2.03
  -2  -9   0  166.32    5.99
   3  -9   0  213.03    4.94
   3   9   0  205.44    2.44
  -3   9   0  202.10    5.80
  -3  -9   0  202.67    6.46
  -3   9   0  223.60    6.21
   3   9   0  212.41    6.26
  -3  -9   0  209.51    2.63
   3  -9   0  202.08    4.46
   4  -9   0  652.55    8.44
   4   9   0  674.51    4.77
   4   9   0  717.24   11.18
  -4   9   0  660.64   10.61
  -4   9   0  677.33   10.12
  -4  -9   0  644.50    5.24
  -4  -9   0  703.00   12.23
   4  -9   0  658.70    7.27
  -5   9   0 3484.26   25.07
   5  -9   0 3737.96   16.31
  -5   9   0 3740.45   22.71
  -5  -9   0 3935.75   28.75
   5   9   0 3672.39   24.42
  -5  -9   0 3692.49   14.09
  -6   9   0 1270.86   15.42
  -6  -9   0 1275.86    9.25
  -6  -9   0 1271.84   17.03
   6  -9   0 1309.88    9.47
   6   9   0 1310.53   14.47
  -6   9   0 1315.03   13.53
   7   9   0  268.72    6.54
  -7  -9   0  266.57    4.78
  -7   9   0  264.32    6.35
   7  -9   0  243.62    4.00
  -7   9   0  273.82    7.62
   8   9   0   42.41    2.86
  -8  -9   0   53.34    2.51
  -8   9   0   51.30    3.01
  -8   9   0   59.31    4.10
  -9  -9   0  199.20    4.90
  -9   9   0  204.55    7.24
   9   9   0  238.26    5.99
  -9   9   0  213.61    5.83
 -10  -9   0   45.15    2.84
 -10   9   0   46.69    4.04
 -10   9   0   46.67    3.01
  10   9   0   46.25    2.96
 -11   9   0  556.39   12.90
 -11   9   0  563.18   10.19
 -11  -9   0  542.20    9.24
  11   9   0  576.71    9.26
 -12   9   0 1130.53   19.35
 -12  -9   0 1123.57   14.31
  12   9   0 1148.07   13.19
 -12   9   0 1146.60   15.09
 -13   9   0   31.57    4.32
 -13  -9   0   28.43    3.15
 -13   9   0   26.07    2.95
 -14  -9   0   52.62    4.42
 -14   9   0   46.24    5.22
 -15   9   0    1.60    3.47
 -15  -9   0   -0.40    2.40
 -16  -9   0    2.47    2.77
 -16   9   0    2.43    4.20
   0 -10   0  456.83    9.16
   0  10   0  447.98   10.67
   0  10   0  498.99   10.71
   0 -10   0  451.99    9.22
   1  10   0  914.50   14.08
  -1 -10   0  872.10    4.63
  -1  10   0  926.93   14.15
   1 -10   0  901.65   11.68
  -1  10   0  972.44   14.39
  -1 -10   0  890.99   13.36
  -1 -10   0  910.88   14.50
   1 -10   0  970.85   12.01
   2 -10   0  576.43    8.66
   2  10   0  607.25   11.41
  -2 -10   0  596.12   11.36
  -2  10   0  585.07   10.72
   2  10   0  576.11    3.86
  -2  10   0  586.23   10.85
  -2 -10   0  573.63    3.98
   2 -10   0  552.47    8.56
   3 -10   0  731.81    9.55
  -3 -10   0  753.56    5.08
  -3  10   0  755.01   11.70
   3  10   0  757.41   12.12
   3  10   0  744.12    4.64
  -3 -10   0  751.74   13.06
  -3  10   0  788.77   12.28
   3 -10   0  747.44    9.19
   4 -10   0   30.66    2.25
  -4  10   0   37.91    2.98
  -4 -10   0   37.10    1.38
   4  10   0   31.43    1.14
   4 -10   0   33.94    1.96
   4  10   0   39.11    3.12
  -4  10   0   36.12    2.84
  -4 -10   0   43.10    3.59
  -5 -10   0   21.68    1.35
  -5  10   0   23.91    2.46
  -5 -10   0   17.31    2.86
  -5  10   0   21.67    2.58
   5 -10   0   25.71    1.67
   5  10   0   22.15    2.54
  -6  10   0  209.22    6.75
  -6 -10   0  210.58    3.88
  -6  10   0  212.80    5.90
   6  10   0  209.70    6.29
   6 -10   0  210.34    4.08
   7  10   0  123.97    4.75
  -7  10   0  108.00    4.47
  -7 -10   0  110.18    3.13
  -7  10   0  109.66    5.18
   8  10   0  224.18    6.26
  -8 -10   0  233.26    4.87
  -8  10   0  243.94    7.94
  -8  10   0  245.91    6.54
   9  10   0  221.73    5.96
  -9  10   0  236.90    6.61
  -9 -10   0  223.47    5.14
  -9  10   0  239.45    8.16
  10  10   0  234.57    6.26
 -10  10   0  234.70    8.44
 -10 -10   0  226.29    5.72
 -10  10   0  240.12    6.80
 -11  10   0  237.93    7.08
 -11 -10   0  238.73    6.32
 -11  10   0  227.85    8.81
  11  10   0  250.15    6.43
 -12  10   0   49.79    4.75
 -12  10   0   56.20    3.93
 -12 -10   0   51.63    3.49
  12  10   0   58.06    3.35
 -13 -10   0   35.90    3.24
 -13  10   0   33.78    3.30
 -13  10   0   31.13    4.35
 -14  10   0  233.72   10.40
 -14 -10   0  204.77    7.34
 -15  10   0   11.59    4.11
 -15 -10   0    6.52    2.65
 -16  10   0   -0.47    3.70
 -16 -10   0    3.19    2.58
   0  11   0   11.00    2.70
   0 -11   0    4.36    1.89
   0  11   0    7.16    2.72
   0 -11   0    4.95    2.02
  -1 -11   0 6010.38   38.10
  -1  11   0 5578.00   35.88
  -1  11   0 5894.70   37.33
   1 -11   0 5738.39   30.87
  -1 -11   0 5877.85   35.49
  -1 -11   0 5605.32   12.27
   1 -11   0 5763.32   30.31
   1  11   0 5631.45   36.45
  -2  11   0  454.21   10.25
   2  11   0  471.84   10.59
  -2  11   0  415.21    9.89
  -2 -11   0  464.68   10.40
  -2 -11   0  453.87    3.68
   2  11   0  447.56    3.53
   2 -11   0  442.44    7.99
   2 -11   0  430.44    7.81
   3  11   0 1247.46   16.52
   3 -11   0 1220.36   12.79
   3 -11   0 1221.55   12.33
   3  11   0 1194.84    6.08
  -3 -11   0 1204.30   17.16
  -3  11   0 1271.48   16.49
  -3  11   0 1307.67   16.24
  -3 -11   0 1201.61    6.51
  -4 -11   0  349.88    3.96
  -4  11   0  310.49    8.11
  -4  11   0  347.63    8.53
   4 -11   0  353.27    6.23
   4  11   0  338.60    3.53
  -4 -11   0  355.42    9.60
  -5  11   0 1406.09   17.08
  -5 -11   0 1338.87    8.58
  -5  11   0 1403.39   16.24
   5 -11   0 1313.28   10.86
  -6 -11   0  688.31    6.76
  -6  11   0  684.45   12.49
  -6  11   0  687.94   11.47
   6  11   0  666.66   11.43
   7  11   0  708.12   11.55
  -7  11   0  706.03   11.66
  -7 -11   0  653.72    7.35
  -7  11   0  690.56   12.96
  -8  11   0  646.58   10.93
  -8  11   0  646.85   12.89
   8  11   0  615.54   10.80
  -8 -11   0  660.29    8.17
  -9 -11   0    7.05    1.53
   9  11   0    6.47    1.81
  -9  11   0    8.98    2.00
  -9  11   0    7.42    2.44
 -10  11   0  146.22    5.71
 -10  11   0  144.86    6.86
  10  11   0  145.89    5.24
 -10 -11   0  144.46    4.58
 -11  11   0  274.67    7.91
  11  11   0  309.28    7.45
 -11 -11   0  283.81    6.82
 -11  11   0  272.95    9.71
 -12  11   0  574.54   11.99
 -12 -11   0  586.72   10.37
 -12  11   0  549.31   14.04
  12  11   0  587.09   10.06
 -13 -11   0   11.67    2.58
 -13  11   0   11.22    2.89
 -13  11   0   12.09    4.00
 -14  11   0   20.27    4.43
 -14 -11   0   20.78    3.17
 -15  11   0   64.86    6.48
 -15 -11   0   56.83    4.48
 -16 -11   0    1.97    2.71
 -16  11   0   -0.33    4.03
   0  12   0  320.42    9.41
   0  12   0  294.13    9.58
   0 -12   0  298.12    8.15
   0 -12   0  318.45    8.43
   1 -12   0  887.04   12.80
  -1  12   0 1044.69   16.97
  -1 -12   0  946.77    5.26
   1 -12   0  927.05   12.90
  -1 -12   0  896.01   15.27
  -1  12   0 1007.61   16.25
  -1 -12   0  923.59   14.64
   1  12   0  941.23   15.93
  -2  12   0 1380.75   18.84
   2 -12   0 1293.63   14.15
   2  12   0 1260.23   17.85
   2 -12   0 1293.80   14.17
  -2 -12   0 1254.60   17.61
  -2  12   0 1384.09   18.60
  -2 -12   0 1268.32    6.33
   3  12   0   19.20    0.92
   3 -12   0   17.86    1.93
  -3 -12   0   19.89    1.01
  -3  12   0   19.51    2.72
   3  12   0   23.93    2.94
  -3  12   0   20.05    2.86
   3 -12   0   16.13    2.00
  -4 -12   0  846.18    6.19
   4  12   0  860.79   14.22
  -4  12   0  835.78   13.79
  -4  12   0  812.66   14.02
  -5  12   0  428.96   10.01
  -5  12   0  462.20   10.11
  -5 -12   0  467.42    5.14
   5  12   0  503.47   10.83
  -6 -12   0   73.18    2.35
  -6  12   0   69.63    4.27
  -6  12   0   67.41    4.42
   6  12   0   77.87    4.38
  -7  12   0   39.42    3.33
   7  12   0   34.83    3.13
  -7 -12   0   37.04    1.97
  -7  12   0   39.28    3.61
  -8  12   0  394.28    9.35
  -8 -12   0  375.25    6.09
   8  12   0  395.06    9.01
  -8  12   0  378.10   10.43
  -9 -12   0   90.46    3.43
   9  12   0   94.18    4.44
  -9  12   0   94.89    5.63
  -9  12   0   99.86    5.01
 -10 -12   0   39.53    2.59
 -10  12   0   44.35    3.79
 -10  12   0   36.79    4.23
  10  12   0   36.72    3.07
  11  12   0  191.84    6.20
 -11 -12   0  179.44    5.45
 -11  12   0  156.55    7.75
 -11  12   0  178.73    7.02
 -12 -12   0   87.79    4.37
  12  12   0  104.31    4.62
 -12  12   0   81.84    5.03
 -12  12   0   75.07    5.87
 -13  12   0  202.40    9.55
 -13 -12   0  212.01    6.89
 -13  12   0  191.25    7.80
 -14 -12   0  230.15    7.76
 -14  12   0  204.69   10.15
 -15  12   0  119.02    8.34
 -15 -12   0  111.01    5.83
 -16  12   0    8.24    4.49
 -16 -12   0   -1.28    2.88
   0  13   0   11.63    3.21
   0  13   0   12.34    3.04
   0 -13   0   10.00    2.54
  -1 -13   0  389.26    3.57
  -1 -13   0  371.27   10.40
   1  13   0  382.53   10.58
  -1  13   0  373.33   10.97
  -1  13   0  387.82   10.69
   1 -13   0  377.36    8.69
   2 -13   0  252.30    6.55
  -2 -13   0  263.26    9.19
  -2  13   0  266.92    8.99
   2  13   0  266.46    8.79
  -2  13   0  269.04    9.03
  -3  13   0 1351.43   18.54
  -3 -13   0 1359.74    7.31
   3  13   0 1260.98    6.64
  -3  13   0 1314.93   18.89
  -4  13   0  847.56   14.93
  -4 -13   0  886.03    6.51
  -4  13   0  908.83   15.48
   4  13   0  824.95   14.53
  -5  13   0  181.47    6.86
  -5 -13   0  186.46    3.33
   5  13   0  217.77    7.46
  -5  13   0  176.15    6.91
  -6 -13   0   29.45    1.66
   6  13   0   32.77    3.13
  -6  13   0   27.49    3.38
  -6  13   0   27.06    3.05
  -7 -13   0  411.51    5.92
   7  13   0  435.50   10.14
  -7  13   0  429.74   10.80
  -7  13   0  428.79   10.24
  -8  13   0   31.82    3.63
  -8  13   0   28.83    3.14
  -8 -13   0   31.77    2.07
   8  13   0   33.03    3.14
  -9  13   0  662.99   12.88
   9  13   0  702.61   12.29
  -9 -13   0  650.71    8.74
  -9  13   0  665.15   14.76
 -10 -13   0  438.39    7.73
 -10  13   0  455.67   10.92
 -10  13   0  443.35   12.57
  10  13   0  463.64    9.78
 -11  13   0  182.06    8.66
 -11  13   0  184.98    7.38
  11  13   0  212.88    6.73
 -11 -13   0  187.01    5.67
 -12 -13   0   80.31    4.23
  12  13   0   75.86    4.19
 -12  13   0   84.09    6.55
 -12  13   0   75.86    5.21
 -13 -13   0  272.53    7.76
 -13  13   0  269.23    9.47
 -13  13   0  295.72   11.78
 -14 -13   0   20.30    3.05
 -14  13   0   16.34    4.23
 -15 -13   0   34.68    3.96
 -15  13   0   29.59    5.43
 -16 -13   0  177.83    7.87
 -16  13   0  179.61   11.07
   0  14   0   21.43    3.56
   0 -14   0   16.22    2.78
  -1 -14   0   45.30    4.32
  -1  14   0   56.77    5.01
  -1 -14   0   52.98    1.44
   1  14   0   44.43    4.33
  -1  14   0   53.15    5.00
   1 -14   0   50.37    3.62
   2 -14   0   35.13    2.96
   2  14   0   42.24    4.11
  -2  14   0   38.60    4.25
  -2 -14   0   50.68    1.44
  -2 -14   0   39.94    4.27
  -2  14   0   42.15    4.31
   3  14   0 2600.67   26.98
  -3  14   0 2374.24   26.64
  -3 -14   0 2334.70    9.77
  -3  14   0 2580.10   28.03
  -4  14   0  372.55   10.35
  -4 -14   0  381.25    4.27
  -4  14   0  374.58   10.40
   4  14   0  382.60   10.30
  -5  14   0   88.71    5.36
  -5 -14   0   84.84    2.30
   5  14   0   80.53    5.02
  -5  14   0   96.14    5.62
  -6 -14   0  486.76    5.83
  -6  14   0  524.74   11.81
  -6  14   0  503.36   11.98
   6  14   0  473.57   11.07
  -7 -14   0  115.72    3.20
  -7  14   0  131.91    6.53
   7  14   0  135.61    6.01
  -7  14   0  123.77    5.97
  -8  14   0   23.31    3.29
  -8  14   0   22.01    3.42
   8  14   0   20.75    2.82
  -8 -14   0   24.29    1.87
  -9  14   0   98.18    5.62
   9  14   0  114.89    5.34
  -9  14   0   86.95    5.85
  -9 -14   0  105.60    3.69
 -10  14   0  120.56    6.22
 -10 -14   0  124.78    4.28
 -10  14   0  123.43    6.97
  10  14   0  146.63    5.82
 -11  14   0   96.46    5.80
 -11  14   0  111.86    7.09
 -11 -14   0   98.43    4.12
  11  14   0  106.24    5.01
 -12  14   0    6.27    2.77
 -12 -14   0    7.04    2.02
  12  14   0    7.88    2.16
 -12  14   0    4.73    3.16
 -13 -14   0    2.35    2.05
 -13  14   0    7.97    3.69
 -14  14   0   25.83    5.05
 -14 -14   0   21.45    3.19
 -15 -14   0   21.73    3.55
 -15  14   0   20.94    5.04
 -16 -14   0    9.21    3.15
   0  15   0   17.00    3.65
   0 -15   0   15.30    2.77
  -1  15   0 2500.29   30.43
   1 -15   0 2454.24   22.87
  -1 -15   0 2443.73    9.53
   1  15   0 2593.10   29.30
  -1 -15   0 2420.28   26.35
  -1  15   0 2647.12   29.95
  -2  15   0  294.72   10.10
  -2 -15   0  320.87    3.58
  -2  15   0  318.97   10.54
   2  15   0  305.76   10.19
  -3 -15   0  757.30    5.72
  -3  15   0  764.20   15.61
  -3  15   0  803.24   16.32
   3  15   0  771.43   15.49
   4  15   0  816.68   15.67
  -4 -15   0  801.59    6.35
  -4  15   0  820.74   16.19
  -4  15   0  802.11   15.88
  -5  15   0  116.01    6.39
  -5  15   0  112.52    6.16
  -5 -15   0  105.71    2.65
   5  15   0  118.45    5.97
  -6  15   0   22.63    3.62
   6  15   0   21.53    3.04
  -6  15   0   23.77    3.37
  -6 -15   0   23.05    1.55
   7  15   0  825.99   14.90
  -7 -15   0  835.93    8.33
  -7  15   0  807.74   15.97
  -7  15   0  840.62   15.71
   8  15   0   43.62    3.75
  -8  15   0   47.39    4.52
  -8  15   0   46.36    4.24
  -8 -15   0   41.42    2.25
  -9 -15   0  357.61    6.60
  -9  15   0  353.30   11.39
   9  15   0  381.03    9.85
  -9  15   0  348.10   10.49
 -10  15   0  131.52    7.44
 -10  15   0  133.28    6.90
 -10 -15   0  143.33    4.63
  10  15   0  137.15    5.93
  11  15   0   52.84    3.86
 -11  15   0   56.67    5.60
 -11  15   0   53.20    4.69
 -11 -15   0   48.84    3.10
 -12  15   0   30.38    4.79
 -12 -15   0   25.86    2.72
  12  15   0   26.06    2.96
 -12  15   0   28.35    4.00
 -13  15   0  226.21   11.10
 -13 -15   0  246.41    7.20
 -14  15   0  113.23    8.52
 -14 -15   0  100.63    5.24
 -15 -15   0  142.36    6.74
 -15  15   0  135.10    9.61
 -16 -15   0  232.40    8.80
   0 -16   0 1106.65    6.53
   0  16   0 1128.48   19.98
  -1  16   0   36.27    4.98
   1  16   0   39.71    4.88
  -1 -16   0   40.99    1.43
  -1  16   0   38.65    4.72
   2  16   0 1872.39   25.03
  -2 -16   0 1806.91    8.64
  -2  16   0 1943.47   26.22
  -2  16   0 2028.57   26.74
   3  16   0  225.97    8.74
  -3 -16   0  247.41    3.41
  -3  16   0  280.16   10.37
  -3  16   0  264.96    9.90
  -4  16   0   10.30    3.07
  -4 -16   0    7.64    0.94
  -4  16   0    5.59    2.74
   4  16   0   10.61    2.76
  -5  16   0  341.60   10.86
  -5 -16   0  335.53    4.61
  -5  16   0  347.59   11.11
   5  16   0  330.83   10.28
  -6 -16   0  615.58    6.73
  -6  16   0  630.77   15.10
  -6  16   0  593.28   14.23
   6  16   0  601.45   13.37
  -7  16   0 1276.46   20.68
  -7 -16   0 1304.99   10.44
  -7  16   0 1236.41   20.56
   7  16   0 1352.47   19.33
  -8 -16   0  445.33    6.67
  -8  16   0  450.64   12.68
   8  16   0  476.68   11.39
  -8  16   0  447.74   12.21
  -9 -16   0  135.08    4.13
   9  16   0  125.09    6.05
  -9  16   0  135.95    6.98
  -9  16   0  141.57    7.59
 -10  16   0   51.25    5.12
  10  16   0   43.90    3.79
 -10  16   0   52.94    4.94
 -10 -16   0   46.08    2.83
 -11 -16   0   17.91    2.22
 -11  16   0   12.52    3.56
 -11  16   0   20.50    3.58
  11  16   0   18.83    2.90
 -12 -16   0   93.44    4.51
  12  16   0   91.83    5.11
 -12  16   0   86.83    6.28
 -12  16   0   93.30    7.20
 -13  16   0  301.27   12.49
 -13 -16   0  321.33    8.38
 -14  16   0   57.27    6.65
 -14 -16   0   71.33    4.74
 -15 -16   0   57.60    4.72
 -15  16   0   63.85    7.07
 -16 -16   0   57.56    4.99
   0 -17   0   12.21    0.92
   0  17   0   10.57    3.31
  -1 -17   0 1511.06    7.94
   1  17   0 1625.80   24.91
  -1  17   0 1561.40   25.84
  -1  17   0 1623.78   25.19
  -2  17   0 2073.66   29.19
   2  17   0 2046.60   27.25
  -2 -17   0 1975.16    9.32
  -2  17   0 2115.16   28.60
  -3  17   0   55.44    4.99
   3  17   0   54.81    4.83
  -3 -17   0   48.74    1.66
  -3  17   0   54.24    5.23
   4  17   0   24.13    3.72
  -4  17   0   28.59    4.04
  -4 -17   0   21.43    1.27
  -4  17   0   27.47    3.97
  -5 -17   0 1994.32   11.28
  -5  17   0 2043.36   27.56
  -5  17   0 2004.89   27.00
   5  17   0 1932.96   24.97
  -6  17   0  252.66    9.69
  -6  17   0  243.89    9.59
  -6 -17   0  240.06    4.25
   6  17   0  217.70    8.48
   7  17   0  296.59    9.56
  -7 -17   0  272.69    4.89
  -7  17   0  259.73   10.15
  -7  17   0  266.83    9.99
   8  17   0  388.04   10.91
  -8  17   0  353.06   11.56
  -8 -17   0  371.69    6.23
  -8  17   0  347.69   11.79
  -9  17   0   11.04    3.07
   9  17   0   10.35    2.65
  -9  17   0   12.58    3.27
  -9 -17   0   13.65    1.75
 -10  17   0    0.39    2.73
 -10  17   0    2.26    3.00
  10  17   0    1.63    2.26
 -10 -17   0   -0.92    1.45
 -11  17   0  970.14   20.67
  11  17   0 1003.60   16.22
 -11  17   0  979.67   19.89
 -11 -17   0  944.02   12.25
  12  17   0  559.38   12.15
 -12  17   0  537.93   15.07
 -12  17   0  562.57   16.54
 -12 -17   0  532.43    9.97
 -13  17   0   51.48    6.22
 -13 -17   0   41.50    3.54
 -14  17   0  112.69    8.76
 -14 -17   0  115.19    5.61
 -15 -17   0   21.06    3.36
 -15  17   0   20.51    4.97
   0  18   0   25.07    4.25
   0 -18   0   35.16    1.39
  -1 -18   0   10.08    0.93
   1  18   0   12.54    3.82
  -1  18   0   18.31    4.43
  -1  18   0   17.16    4.09
  -2 -18   0   99.76    2.23
  -2  18   0  112.89    7.59
  -2  18   0  110.58    7.41
   2  18   0   84.25    6.22
  -3  18   0   17.23    3.80
   3  18   0   15.22    3.48
  -3 -18   0   16.46    1.11
  -3  18   0   18.86    3.66
  -4  18   0   68.37    5.72
  -4 -18   0   73.12    2.13
  -4  18   0   73.84    6.04
   4  18   0   68.06    5.41
   5  18   0   18.87    3.59
  -5 -18   0   27.52    1.60
  -5  18   0   23.37    3.68
  -6  18   0   13.54    3.48
  -6  18   0   14.23    3.58
   6  18   0   17.71    3.21
  -6 -18   0   14.91    1.38
  -7  18   0  110.79    7.05
  -7  18   0  100.63    6.85
   7  18   0  101.30    6.11
  -7 -18   0   97.27    3.09
   8  18   0    4.38    2.55
  -8  18   0    7.92    3.09
  -8 -18   0    6.39    1.35
  -8  18   0    8.18    3.22
   9  18   0    4.03    2.65
  -9  18   0    1.53    2.77
  -9 -18   0    3.25    1.48
  -9  18   0    5.44    3.36
 -10 -18   0   35.65    2.67
  10  18   0   47.70    4.18
 -10  18   0   34.04    4.63
 -10  18   0   39.60    5.16
 -11  18   0    3.06    3.19
  11  18   0    7.01    2.62
 -11  18   0   10.31    3.89
 -11 -18   0    6.29    1.93
 -12  18   0   18.22    4.07
 -12  18   0   21.15    4.70
 -12 -18   0   25.23    2.77
  12  18   0   25.81    3.30
 -13  18   0   70.12    7.01
 -13 -18   0   60.52    3.98
 -14 -18   0    8.02    2.87
 -14  18   0    6.28    4.25
 -15  18   0    8.02    4.58
 -15 -18   0    6.30    2.68
   0 -19   0    5.65    0.83
   0  19   0    6.74    3.33
  -1  19   0  975.13   21.57
  -1  19   0 1002.21   21.29
   1  19   0  940.87   20.02
  -1 -19   0  908.80    6.47
  -2  19   0  870.37   20.34
  -2 -19   0  876.80    6.58
  -2  19   0  936.46   20.50
   2  19   0  855.08   18.77
  -3  19   0    6.83    3.39
  -3  19   0   13.32    3.54
  -3 -19   0    9.84    1.01
   3  19   0   11.44    3.15
  -4  19   0   18.25    3.93
   4  19   0   14.26    3.31
  -4 -19   0   14.22    1.16
  -4  19   0   17.88    4.00
   5  19   0 1095.16   20.23
  -5 -19   0 1145.01    8.67
  -5  19   0 1158.86   22.71
  -5  19   0 1174.32   22.19
  -6  19   0   64.78    5.97
  -6 -19   0   67.71    2.50
   6  19   0   61.43    5.16
  -6  19   0   62.69    5.75
  -7  19   0  224.06   10.26
  -7 -19   0  222.59    4.53
   7  19   0  232.94    9.09
  -7  19   0  222.64   10.08
  -8  19   0  130.70    7.95
  -8  19   0  138.64    8.52
   8  19   0  167.47    7.80
  -8 -19   0  144.81    3.99
  -9 -19   0   73.88    3.21
  -9  19   0   90.01    7.29
   9  19   0   77.02    5.43
  -9  19   0   85.18    6.62
 -10 -19   0   27.42    2.48
 -10  19   0   24.85    4.38
  10  19   0   27.98    3.69
 -10  19   0   28.52    4.77
  11  19   0  398.39   11.07
 -11 -19   0  356.36    7.69
 -11  19   0  364.70   13.31
 -11  19   0  353.76   13.59
  12  19   0  204.38    7.79
 -12 -19   0  195.69    6.13
 -12  19   0  176.81    9.64
 -12  19   0  195.87   10.95
 -13 -19   0    8.86    2.43
 -13  19   0   13.24    4.82
 -14 -19   0  188.45    6.89
 -14  19   0  195.62   11.65
 -15 -19   0   90.54    5.52
 -15  19   0  108.79    9.46
   0  20   0  512.09   15.29
   0 -20   0  630.31    5.66
  -1  20   0  206.33   10.53
   1  20   0  195.89    9.89
  -1  20   0  216.86   10.55
  -1 -20   0  194.81    3.19
   2  20   0   22.82    4.37
  -2  20   0   26.70    4.49
  -2 -20   0   26.47    1.38
  -2  20   0   28.06    5.30
  -3  20   0   36.57    4.90
  -3  20   0   34.01    4.88
  -3 -20   0   33.72    1.55
   3  20   0   44.67    4.91
  -4  20   0   37.14    5.05
  -4 -20   0   30.67    1.59
   4  20   0   28.56    4.27
  -4  20   0   40.86    5.48
  -5 -20   0  230.16    4.09
   5  20   0  268.51   10.42
  -5  20   0  222.33   10.46
  -5  20   0  227.05   10.44
  -6  20   0  366.76   13.23
   6  20   0  389.91   12.45
  -6  20   0  352.43   12.93
  -6 -20   0  356.07    5.41
  -7 -20   0  365.98    5.87
  -7  20   0  366.57   13.24
  -7  20   0  359.43   13.15
   7  20   0  364.05   11.69
  -8 -20   0   63.28    2.76
  -8  20   0   68.40    6.27
  -8  20   0   69.36    6.46
   8  20   0   61.63    5.13
  -9 -20   0   16.90    1.89
   9  20   0   25.74    3.79
  -9  20   0   23.01    4.73
  -9  20   0   19.09    4.50
 -10  20   0    8.20    4.08
  10  20   0    1.79    2.55
 -10  20   0    4.65    3.41
 -10 -20   0    0.46    1.48
 -11  20   0    6.66    4.11
 -11  20   0    7.44    4.04
 -11 -20   0    5.62    1.95
  11  20   0    4.21    2.57
 -12 -20   0   51.47    3.54
 -12  20   0   35.51    5.22
  12  20   0   54.27    4.59
 -12  20   0   46.65    6.51
 -13 -20   0  254.49    7.71
 -13  20   0  277.25   13.37
 -14  20   0   89.63    8.72
 -14 -20   0   69.10    4.56
 -15 -20   0   82.07    5.52
   0  21   0   13.51    4.04
   0 -21   0    9.78    1.01
  -1  21   0  476.42   15.01
  -1 -21   0  443.44    4.83
  -1  21   0  476.30   15.99
   1  21   0  436.03   14.73
  -2  21   0  296.85   12.18
   2  21   0  309.06   11.98
  -2 -21   0  276.48    3.91
  -2  21   0  282.26   12.75
  -3 -21   0 1866.71   10.37
   3  21   0 1959.44   28.90
  -3  21   0 1928.68   32.10
  -3  21   0 1992.89   30.91
  -4  21   0  140.80    8.85
   4  21   0  140.22    8.16
  -4 -21   0  151.05    3.23
  -4  21   0  146.66    9.27
  -5 -21   0   13.71    1.35
  -5  21   0   13.12    4.50
   5  21   0    4.25    2.92
  -5  21   0   17.93    4.07
  -6 -21   0   83.99    2.78
  -6  21   0   80.94    7.16
  -6  21   0   80.76    6.98
   6  21   0   86.27    6.26
  -7  21   0  125.08    8.32
  -7  21   0  119.56    8.08
   7  21   0  119.17    7.13
  -7 -21   0  122.40    3.54
   8  21   0    8.78    3.08
  -8  21   0    4.11    3.46
  -8 -21   0    5.24    1.39
  -8  21   0    2.94    3.28
  -9 -21   0  366.22    6.75
  -9  21   0  374.64   14.23
   9  21   0  381.40   12.06
  -9  21   0  381.58   14.50
 -10  21   0  126.47    8.76
  10  21   0  123.91    6.97
 -10  21   0  131.63    8.93
 -10 -21   0  118.99    4.37
 -11 -21   0   76.03    3.84
 -11  21   0   79.37    7.98
  11  21   0   91.03    6.01
 -11  21   0   83.81    7.62
 -12 -21   0    5.94    2.10
 -12  21   0   11.48    4.91
  12  21   0    7.96    2.81
 -12  21   0    0.01    3.87
 -13  21   0  303.05   14.77
 -13 -21   0  259.19    7.83
 -14  21   0   37.04    6.56
 -14 -21   0   30.96    3.55
 -15 -21   0  250.79    8.81
   0 -22   0  124.54    2.75
   0  22   0  141.56    8.92
  -1 -22   0   40.04    1.66
   1  22   0   55.40    6.05
  -1  22   0   44.50    5.92
  -2  22   0  756.70   20.03
  -2 -22   0  660.55    6.13
  -2  22   0  697.41   20.07
   2  22   0  710.48   18.29
  -3 -22   0 1485.14    9.44
   3  22   0 1435.33   25.65
  -3  22   0 1527.71   29.33
  -4  22   0  300.41   12.90
   4  22   0  317.68   12.09
  -4 -22   0  317.28    4.72
  -4  22   0  326.74   13.21
  -5  22   0   20.24    4.90
  -5 -22   0   18.17    1.51
  -5  22   0   14.11    4.30
   5  22   0   15.94    3.80
  -6  22   0   13.90    4.37
  -6 -22   0   10.58    1.40
   6  22   0   14.64    3.71
  -6  22   0    8.25    3.78
   7  22   0   21.63    3.81
  -7  22   0   24.74    4.86
  -7 -22   0   23.65    1.86
  -7  22   0   29.92    5.47
  -8  22   0   56.67    6.40
   8  22   0   59.16    5.48
  -8 -22   0   54.71    2.68
  -8  22   0   63.50    6.89
  -9  22   0   89.87    7.71
   9  22   0   98.16    6.63
  -9 -22   0   96.49    3.70
  -9  22   0  103.55    8.15
 -10  22   0    7.57    4.03
 -10 -22   0    4.10    1.70
  10  22   0    2.58    2.96
 -10  22   0    0.28    3.82
 -11  22   0    6.52    4.14
 -11 -22   0    0.82    1.69
 -11  22   0    1.64    3.84
  11  22   0    8.67    3.28
  12  22   0    5.83    2.78
 -12  22   0    0.43    4.07
 -12 -22   0    3.72    2.08
 -13  22   0    4.19    4.61
 -13 -22   0    7.48    2.44
 -14  22   0    1.11    5.06
 -14 -22   0    0.23    2.33
   0  23   0   11.94    4.00
   0 -23   0    9.11    1.07
  -1  23   0  122.02    8.54
   1 -23   0  106.39    2.59
   1  23   0  111.73    8.03
  -1 -23   0  110.78    2.64
  -2  23   0  212.64   11.89
   2  23   0  207.20   10.66
  -2  23   0  211.36   11.05
  -2 -23   0  192.12    3.46
  -3 -23   0 2293.76   12.05
  -3  23   0 2492.04   36.36
   3  23   0 2320.64   33.28
  -3  23   0 2444.23   38.18
  -4  23   0  137.75    9.31
  -4 -23   0  167.97    3.73
   4  23   0  171.11    9.22
  -4  23   0  155.82    9.99
  -5 -23   0   62.96    2.34
  -5  23   0   84.12    7.57
  -5  23   0   73.03    7.04
   5  23   0   62.66    6.05
  -6  23   0    2.82    3.97
  -6  23   0    6.58    4.05
   6  23   0    9.75    3.61
  -6 -23   0   16.50    1.68
  -7  23   0  270.63   13.08
   7  23   0  256.86   10.81
  -7  23   0  267.34   12.41
  -7 -23   0  261.93    5.20
  -8  23   0   12.12    4.55
  -8  23   0   12.03    4.48
   8  23   0   16.41    3.91
  -8 -23   0   17.16    1.90
   9  23   0  413.23   13.20
  -9  23   0  438.08   16.07
  -9 -23   0  406.07    7.28
  -9  23   0  416.50   16.18
 -10  23   0  251.72   12.48
 -10  23   0  239.71   12.63
  10  23   0  259.76   10.49
 -10 -23   0  251.92    6.25
  11  23   0    9.48    3.26
 -11  23   0   10.06    4.77
 -11  23   0   13.27    4.88
 -11 -23   0    8.96    2.03
 -12  23   0    9.54    4.75
 -12  23   0   18.84    5.12
 -12 -23   0    9.71    2.37
  12  23   0   11.68    3.49
 -13  23   0   47.41    7.43
 -13 -23   0   39.65    3.54
 -14  23   0   17.04    6.09
 -14 -23   0   20.11    3.29
   0 -24   0   88.03    2.41
   0  24   0   94.98    8.04
  -1  24   0  833.91   21.33
  -1 -24   0  788.92    6.98
   1 -24   0  780.02    6.89
   1  24   0  835.75   21.02
  -2  24   0  592.56   19.52
  -2  24   0  604.97   18.32
   2  24   0  543.13   16.90
  -2 -24   0  535.81    5.79
  -3  24   0   27.32    6.62
   3  24   0   32.21    5.37
  -3 -24   0   14.34    1.43
  -3  24   0   16.23    5.37
  -4  24   0  121.14    8.93
   4  24   0  146.05    8.89
  -4 -24   0  114.19    3.03
  -4  24   0  110.72    9.28
   5  24   0   63.13    6.45
  -5  24   0   42.82    6.38
  -5  24   0   55.28    6.74
  -5 -24   0   54.03    2.28
  -6  24   0   27.47    5.56
  -6  24   0   21.82    4.88
  -6 -24   0   42.51    2.24
   6  24   0   36.01    4.79
   7  24   0  109.15    7.47
  -7  24   0   94.35    7.87
  -7 -24   0   97.03    3.35
  -7  24   0   86.86    7.96
  -8  24   0  635.14   19.38
  -8 -24   0  600.59    8.30
   8  24   0  602.68   16.18
  -8  24   0  632.82   20.21
   9  24   0   86.34    6.90
  -9  24   0   95.17    8.61
  -9 -24   0   97.13    4.05
  -9  24   0   94.74    8.23
 -10  24   0  102.27    9.05
 -10 -24   0  113.99    4.43
  10  24   0  134.46    7.89
 -10  24   0  113.62    9.20
 -11 -24   0  238.51    6.70
 -11  24   0  250.65   13.64
 -11  24   0  247.27   12.92
  11  24   0  246.04   10.11
  12  24   0   -0.37    2.80
 -12  24   0   -3.28    4.52
 -12  24   0    1.29    4.70
 -12 -24   0    2.97    2.10
 -13  24   0    7.93    5.57
 -13 -24   0   10.19    2.60
 -14 -24   0  158.98    6.70
   0 -25   0    0.76    0.86
   0  25   0   -0.47    3.67
   1 -25   0  467.86    5.47
   1  25   0  511.46   17.09
  -1 -25   0  464.76    5.44
  -1  25   0  482.56   16.89
  -2  25   0  306.77   13.86
  -2  25   0  279.18   14.08
  -2 -25   0  291.32    4.44
  -3 -25   0   96.55    2.72
   3  25   0   96.49    7.93
  -3  25   0  122.51    9.33
  -3  25   0  116.65    9.84
   4  25   0   31.73    5.26
  -4  25   0   39.00    6.19
  -4 -25   0   39.60    2.07
  -4  25   0   37.36    6.17
  -5  25   0  511.86   18.21
  -5 -25   0  476.53    6.25
  -5  25   0  549.02   18.35
   5  25   0  476.94   15.53
  -6 -25   0  460.83    6.55
   6  25   0  450.39   14.84
  -6  25   0  473.21   17.58
  -6  25   0  487.52   17.37
  -7  25   0  121.08    9.62
   7  25   0  141.31    8.69
  -7 -25   0  130.50    3.95
  -7  25   0  120.80    9.32
   8  25   0  153.39    8.48
  -8  25   0  121.86    9.69
  -8  25   0  128.23    9.52
  -8 -25   0  137.86    4.21
  -9  25   0   18.86    5.29
  -9  25   0   29.00    5.97
   9  25   0   14.66    3.66
  -9 -25   0   20.92    2.20
 -10 -25   0   11.22    2.06
 -10  25   0   13.23    4.83
 -10  25   0   16.21    5.14
  10  25   0   12.64    3.69
 -11  25   0   20.06    5.44
 -11 -25   0   26.08    2.81
  11  25   0   25.82    4.34
 -11  25   0   31.78    6.57
 -12  25   0  229.14   14.07
 -12  25   0  213.18   12.71
  12  25   0  241.75   10.37
 -12 -25   0  214.16    6.81
 -13 -25   0    4.39    2.35
 -13  25   0    2.82    5.02
 -14 -25   0    1.84    2.54
   0  26   0  136.88    9.79
   0 -26   0  136.17    3.14
  -1  26   0   55.73    7.38
   1 -26   0   38.75    1.84
  -1 -26   0   36.74    1.80
   1  26   0   49.44    6.66
  -2  26   0   65.30    7.28
   2  26   0   67.62    7.21
  -2 -26   0   63.43    2.32
  -2  26   0   69.97    8.17
  -3  26   0   47.70    7.28
   3  26   0   39.27    5.57
  -3  26   0   51.63    6.55
  -3 -26   0   42.46    1.97
  -4  26   0  117.96    9.43
   4  26   0  111.91    8.21
  -4 -26   0  112.53    3.10
  -4  26   0  117.98   10.06
   5  26   0    4.65    3.71
  -5  26   0    3.64    4.47
  -5  26   0    2.87    4.19
  -5 -26   0   -0.22    1.17
  -6  26   0  518.70   18.30
   6  26   0  492.65   15.75
  -6  26   0  441.33   17.60
  -6 -26   0  463.88    6.70
   7  26   0  150.48    9.19
  -7 -26   0  156.75    4.24
  -7  26   0  170.37   11.07
  -7  26   0  167.86   11.49
   8  26   0   27.51    4.57
  -8 -26   0   28.05    2.27
  -8  26   0   34.05    6.37
  -8  26   0   18.05    5.21
  -9  26   0   10.11    4.85
   9  26   0   12.92    4.09
  -9  26   0    3.85    4.61
  -9 -26   0   12.81    2.00
 -10  26   0  103.25    9.39
 -10 -26   0   95.53    4.15
 -10  26   0   92.14    9.59
  10  26   0  106.73    7.66
 -11 -26   0  158.39    5.62
  11  26   0  149.53    8.60
 -11  26   0  159.06   11.84
 -11  26   0  141.23   10.81
  12  26   0   58.75    5.74
 -12 -26   0   46.48    3.69
 -13  26   0   59.54    8.91
 -13 -26   0   66.26    4.48
   0 -27   0    1.22    0.92
   0  27   0    6.28    4.50
   1  27   0  148.57    9.92
  -1  27   0  161.80   10.55
  -1 -27   0  143.76    3.27
   1 -27   0  147.31    3.40
  -2  27   0   18.90    5.02
   2  27   0   21.23    4.98
  -2 -27   0   19.28    1.54
   3  27   0   14.00    4.46
  -3  27   0   13.35    5.60
  -3  27   0   22.59    5.47
  -3 -27   0   17.10    1.47
  -4  27   0   72.10    7.93
  -4 -27   0   62.84    2.46
  -4  27   0   75.95    8.66
   4  27   0   61.56    6.78
  -5  27   0  204.25   12.25
   5  27   0  197.01   10.81
  -5 -27   0  190.44    4.18
  -5  27   0  194.12   12.99
  -6  27   0    7.35    4.12
  -6 -27   0   16.60    1.75
  -6  27   0   21.57    6.34
   6  27   0   16.21    4.31
   7  27   0   80.09    7.09
  -7  27   0   87.70    9.02
  -7  27   0   95.09    8.90
  -7 -27   0   84.69    3.26
  -8  27   0   60.53    8.41
  -8  27   0   64.05    8.07
   8  27   0   58.78    6.23
  -8 -27   0   63.93    3.10
  -9  27   0   12.99    5.55
  -9  27   0    3.62    4.57
   9  27   0    5.64    3.34
  -9 -27   0    9.22    1.94
 -10 -27   0    3.39    1.91
 -10  27   0    2.57    5.49
  10  27   0    1.62    3.25
 -10  27   0    7.04    4.87
 -11 -27   0   57.64    3.74
 -11  27   0   53.75    8.00
  11  27   0   66.17    6.55
 -11  27   0   52.94    8.22
 -12 -27   0   24.36    2.95
 -12  27   0   22.97    6.92
  12  27   0   30.75    4.62
 -13 -27   0   16.96    2.94
   0  28   0  521.97   18.26
   0 -28   0  504.01    6.04
  -1  28   0  160.79   10.87
   1 -28   0  152.53    3.47
   1  28   0  166.19   10.77
  -1 -28   0  158.25    3.53
   2 -28   0   64.11    2.35
  -2  28   0   66.87    7.89
  -2 -28   0   61.32    2.36
   2  28   0   66.20    7.19
   3  28   0    5.51    4.03
  -3  28   0    8.39    4.93
  -3  28   0    7.76    5.34
  -3 -28   0    4.78    1.15
  -4  28   0  195.48   11.94
   4  28   0  181.83   10.84
  -4  28   0  192.31   13.12
  -4 -28   0  184.24    4.07
  -5  28   0   29.33    6.11
   5  28   0   33.69    5.58
  -5  28   0   30.34    6.64
  -5 -28   0   28.44    1.99
  -6  28   0  680.02   23.57
  -6 -28   0  680.25    8.41
  -6  28   0  755.33   23.08
   6  28   0  689.46   19.66
  -7  28   0  345.25   15.66
  -7 -28   0  301.62    5.97
   7  28   0  314.47   13.36
  -7  28   0  321.87   16.25
   8  28   0    5.11    3.61
  -8  28   0    9.58    5.56
  -8  28   0    6.88    5.23
  -8 -28   0    7.68    1.68
  -9 -28   0    1.57    1.60
   9  28   0    6.26    3.89
  -9  28   0    7.74    5.04
  -9  28   0    8.77    5.43
  10  28   0   53.14    5.88
 -10 -28   0   48.14    3.26
 -10  28   0   53.83    7.72
 -10  28   0   60.28    8.75
 -11 -28   0   21.34    2.80
 -11  28   0   26.17    6.40
 -11  28   0   22.38    6.62
  11  28   0   16.58    4.39
  12  28   0   57.42    5.89
 -12  28   0   55.27    8.96
 -12 -28   0   51.77    3.86
 -13 -28   0  144.56    6.30
   0  29   0   24.28    6.24
   0 -29   0    6.37    1.25
   1 -29   0    5.01    1.17
  -1 -29   0    3.39    1.09
  -1  29   0    9.96    4.90
   1  29   0   12.51    4.81
  -2 -29   0    2.31    1.10
   2 -29   0    1.44    1.05
   2  29   0    0.49    3.83
  -2  29   0    4.38    4.31
  -3  29   0  102.00   10.08
  -3  29   0  100.15    9.27
  -3 -29   0  100.04    3.08
   3  29   0  100.24    8.30
   4  29   0   16.27    4.88
  -4  29   0   10.95    4.97
  -4 -29   0   11.42    1.47
  -4  29   0    9.57    5.67
  -5 -29   0  285.42    5.32
  -5  29   0  257.52   15.27
  -5  29   0  287.31   14.57
   5  29   0  287.27   13.41
  -6  29   0   17.06    6.44
  -6 -29   0   13.86    1.84
   6  29   0    7.04    3.71
  -6  29   0   19.38    5.51
  -7  29   0   29.88    6.42
  -7 -29   0   19.09    1.98
   7  29   0   13.49    4.06
  -7  29   0   20.11    6.20
  -8  29   0    5.53    5.45
   8  29   0   10.96    4.03
  -8 -29   0    7.61    1.73
  -8  29   0    9.73    5.61
  -9  29   0  137.45   11.17
  -9  29   0  158.91   12.70
   9  29   0  158.61    9.68
  -9 -29   0  149.41    4.93
 -10  29   0   67.16    9.62
 -10 -29   0   68.68    3.76
  10  29   0   84.84    7.43
 -10  29   0   58.33    7.86
 -11  29   0   14.67    5.73
  11  29   0   21.35    4.85
 -11 -29   0   14.91    2.49
 -11  29   0   11.65    6.68
 -12 -29   0   42.50    3.72
 -12  29   0   51.62    9.05
   0  30   0  111.61    9.29
   0 -30   0  114.05    3.15
  -1 -30   0   21.64    1.70
   1  30   0   22.11    5.22
   1 -30   0   19.62    1.62
  -1  30   0   27.37    6.13
   2  30   0  151.72   10.51
  -2  30   0  159.60   11.23
   2 -30   0  140.64    3.48
  -2 -30   0  145.71    3.62
  -3 -30   0   25.04    1.82
  -3  30   0   31.99    6.63
   3  30   0   38.72    6.23
  -4  30   0   53.52    8.01
   4  30   0   59.41    7.13
  -4 -30   0   58.15    2.54
  -4  30   0   68.07    7.99
   5  30   0   20.49    5.22
  -5  30   0   19.41    5.43
  -5  30   0   13.04    5.88
  -5 -30   0   20.02    1.87
  -6  30   0  251.77   15.88
  -6  30   0  272.73   14.49
   6  30   0  253.74   12.79
  -6 -30   0  247.82    5.36
  -7 -30   0    8.46    1.69
  -7  30   0    8.89    5.14
   7  30   0    6.79    3.78
  -7  30   0   14.61    6.92
   8  30   0  182.04   10.58
  -8  30   0  181.05   12.92
  -8  30   0  170.28   13.19
  -8 -30   0  161.03    4.87
  -9  30   0   50.00    8.01
   9  30   0   56.98    6.65
  -9 -30   0   52.22    3.21
  -9  30   0   55.72    8.02
 -10  30   0   54.83    9.13
 -10  30   0   46.56    7.69
 -10 -30   0   53.97    3.47
  10  30   0   62.05    6.85
 -11  30   0   41.69    8.10
 -11  30   0   46.78    8.29
  11  30   0   50.86    6.32
 -11 -30   0   51.01    3.73
 -12 -30   0   13.35    2.76
   0  31   0    6.41    5.10
   0 -31   0    1.49    1.15
   1  31   0   16.26    5.07
  -1  31   0   12.17    5.06
   1 -31   0   14.64    1.53
  -1 -31   0   13.65    1.50
   2 -31   0   93.23    3.01
   2  31   0   89.75    8.84
  -2  31   0  102.56    9.54
  -2 -31   0   91.78    3.02
   3  31   0   16.52    5.00
  -3 -31   0   14.82    1.63
  -3  31   0   11.83    5.16
   3 -31   0   14.00    1.55
  -4  31   0   13.83    5.84
   4  31   0   12.41    4.55
  -4 -31   0   14.23    1.69
  -4  31   0   17.95    6.16
  -5 -31   0    4.24    1.42
   5  31   0    2.33    4.07
  -5  31   0   11.45    6.23
  -5  31   0    1.04    4.64
  -6  31   0   37.56    8.03
  -6  31   0   32.42    6.69
  -6 -31   0   27.96    2.28
   6  31   0   39.96    6.23
  -7  31   0    4.07    5.97
   7  31   0   10.65    4.68
  -7  31   0    4.74    4.82
  -7 -31   0    1.99    1.55
   8  31   0    8.90    4.04
  -8  31   0   10.31    5.36
  -8 -31   0    9.73    2.00
  -9  31   0   20.03    6.87
   9  31   0   28.38    5.37
  -9  31   0   23.42    6.34
  -9 -31   0   23.34    2.57
 -10  31   0   30.21    6.63
  10  31   0   35.96    5.66
 -10 -31   0   28.59    2.89
 -10  31   0   21.36    7.42
 -11 -31   0    4.73    2.28
 -11  31   0   -4.39    7.00
 -11  31   0    7.79    5.64
  11  31   0    4.10    3.62
   0 -32   0    4.12    1.23
   0  32   0    4.34    5.18
   1  32   0    5.07    4.95
  -1 -32   0    8.60    1.45
   1 -32   0    7.18    1.38
   2  32   0  342.89   15.97
  -2  32   0  352.33   16.78
  -2 -32   0  332.71    5.58
   2 -32   0  328.96    5.45
  -3 -32   0   14.32    1.67
  -3  32   0   18.50    5.66
   3  32   0   14.45    4.98
   3 -32   0   15.17    1.59
  -4  32   0  460.07   19.46
  -4 -32   0  412.86    6.51
   4  32   0  468.83   17.99
  -4  32   0  406.12   19.93
  -5  32   0   47.58    8.93
  -5 -32   0   45.44    2.60
  -5  32   0   48.19    7.81
   5  32   0   48.78    6.75
  -6  32   0    6.77    5.73
  -6 -32   0   12.40    1.87
  -6  32   0    8.81    5.97
   6  32   0   12.57    5.03
   7  32   0   39.78    6.07
  -7  32   0   41.53    7.42
  -7 -32   0   36.14    2.65
  -7  32   0   41.47    8.51
  -8  32   0  278.90   17.92
  -8 -32   0  264.26    6.35
   8  32   0  275.67   13.32
  -8  32   0  305.85   16.59
   9  32   0  169.82   10.95
  -9  32   0  159.77   13.84
  -9 -32   0  158.81    5.27
  -9  32   0  161.29   12.35
 -10  32   0   31.87    8.39
 -10  32   0   21.96    6.45
 -10 -32   0   35.38    3.12
  10  32   0   36.45    5.89
 -11 -32   0   18.45    2.85
  11  32   0   19.81    4.92
   0  33   0   11.48    5.22
   0 -33   0    2.54    1.25
  -1  33   0   24.42    6.37
   1 -33   0   20.10    1.79
   1  33   0   16.76    5.49
  -1 -33   0   16.39    1.69
   2  33   0   42.01    7.10
  -2  33   0   29.46    6.89
  -2 -33   0   24.27    1.97
   2 -33   0   27.27    1.93
   3 -33   0   93.19    3.20
  -3  33   0   88.32    9.77
  -3 -33   0   84.26    3.12
   3  33   0   95.26    8.99
  -4 -33   0  204.92    4.82
  -4  33   0  223.30   14.51
   4  33   0  214.58   12.81
   5  33   0   43.74    6.41
  -5 -33   0   49.97    2.78
  -5  33   0   51.60    8.16
  -5  33   0   46.96    8.84
  -6  33   0    1.96    6.24
  -6 -33   0    1.89    1.52
  -6  33   0   -3.02    5.19
   6  33   0   -1.51    4.00
  -7  33   0   -6.94    6.16
   7  33   0    3.95    4.46
  -7  33   0    3.83    5.63
  -7 -33   0    0.92    1.64
  -8  33   0    1.42    6.54
   8  33   0   16.05    4.73
  -8  33   0    6.51    5.27
  -8 -33   0    5.90    1.94
  -9  33   0   32.36    7.14
   9  33   0   24.34    5.36
  -9 -33   0   26.89    2.75
  10  33   0   18.25    5.17
 -10  33   0   18.85    6.62
 -10 -33   0   18.58    2.72
 -10  33   0    4.97    6.34
   0  34   0  739.03   24.03
   0 -34   0  680.25    8.02
   1  34   0   15.72    5.46
  -1 -34   0    7.92    1.51
  -1  34   0    9.37    5.26
   1 -34   0    7.48    1.41
  -2 -34   0  151.58    4.05
   2 -34   0  159.64    4.10
  -2  34   0  180.59   12.91
   2  34   0  165.12   11.87
  -3 -34   0   18.31    1.91
   3 -34   0   21.53    1.94
  -3  34   0   26.33    6.56
   3  34   0   17.30    5.54
   4  34   0  183.81   12.56
  -4  34   0  197.76   13.86
  -4 -34   0  179.92    4.63
   4 -34   0  181.83    4.41
   5  34   0    6.50    4.89
  -5 -34   0    6.40    1.67
  -5  34   0   13.38    6.03
  -5  34   0    5.39    6.19
  -6  34   0  111.81   10.86
  -6 -34   0  101.58    3.90
   6  34   0  121.08   10.04
  -6  34   0   93.55   12.20
  -7  34   0  115.45   12.62
  -7  34   0  120.37   11.40
   7  34   0  116.50    9.89
  -7 -34   0  105.38    4.18
  -8  34   0   29.14    7.87
   8  34   0   29.14    6.12
  -8 -34   0   22.87    2.49
  -8  34   0   29.69    8.99
  -9  34   0   33.65    7.84
  -9  34   0   21.02    8.00
   9  34   0   44.20    6.83
  -9 -34   0   38.42    3.12
 -10  34   0   16.33    6.69
   0 -35   0   11.32    1.76
   0  35   0   33.49    7.69
  -1  35   0   11.30    5.82
   1  35   0    5.63    5.13
   1 -35   0    5.68    1.46
  -1 -35   0    9.41    1.61
  -2  35   0   20.54    6.74
  -2 -35   0    9.67    1.65
   2 -35   0   12.65    1.74
   2  35   0   20.46    5.98
  -3 -35   0   27.03    2.19
   3  35   0   33.18    6.32
   3 -35   0   29.82    2.22
  -3  35   0   28.56    7.05
  -4  35   0    2.15    5.38
  -4 -35   0    4.14    1.60
   4  35   0   12.84    6.03
   4 -35   0    4.23    1.54
  -5 -35   0   16.70    2.06
  -5  35   0   14.72    6.95
   5  35   0   19.43    5.68
  -6  35   0    4.52    5.31
  -6  35   0    8.03    6.98
  -6 -35   0    4.27    1.79
   6  35   0    5.45    4.40
  -7 -35   0   20.89    2.44
  -7  35   0   20.62    7.35
   7  35   0   10.08    4.84
  -7  35   0    9.33    7.22
  -8  35   0   10.41    6.19
  -8  35   0    8.16    7.56
  -9  35   0    2.67    7.62
   0  36   0  753.31   25.26
   0 -36   0  715.25    8.63
   1  36   0   80.18    9.40
  -1  36   0   77.79    9.33
   1 -36   0   88.74    3.21
  -1 -36   0   86.07    3.25
   2  36   0   29.55    6.62
   2 -36   0   24.42    2.05
  -2  36   0   27.47    6.81
  -2 -36   0   20.83    2.03
  -3  36   0    7.59    5.77
   3  36   0   -0.68    4.60
   3 -36   0    4.73    1.54
  -3 -36   0    2.95    1.56
  -4 -36   0   99.17    3.71
  -4  36   0  127.38   11.62
   4  36   0  105.95   10.16
   4 -36   0  100.07    3.51
   5 -36   0   16.75    1.95
   5  36   0   14.44    5.67
  -5 -36   0   17.06    2.12
  -5  36   0   23.31    6.88
  -6 -36   0   82.23    3.72
  -6  36   0   73.19   11.22
   6  36   0   99.38    9.61
  -6  36   0   94.87   11.01
  -7  36   0  173.39   13.89
  -7  36   0  165.50   15.42
  -8  36   0   18.44    9.19
   0 -37   0   12.54    1.82
   0  37   0   62.48    9.28
  -1 -37   0   41.44    2.57
   1  37   0   64.78    9.06
   1 -37   0   46.58    2.63
  -1  37   0   60.74    8.84
   2  37   0   39.07    7.85
   2 -37   0   32.11    2.27
  -2  37   0   35.72    7.61
  -2 -37   0   34.24    2.40
   3  37   0    0.71    4.90
   3 -37   0    3.76    1.60
  -3  37   0    6.32    5.91
  -3 -37   0    2.19    1.61
  -4 -37   0    0.69    1.62
   4 -37   0    2.92    1.64
  -4  37   0    0.82    5.97
   4  37   0   -4.40    5.41
   5 -37   0   71.37    3.18
  -5  37   0   83.56   10.11
   0 -38   0    4.22    1.55
  -1 -38   0   16.50    2.04
   1 -38   0   19.96    2.11
   2 -38   0   47.06    2.70
   3 -38   0    4.74    1.66
   4 -38   0  158.48    4.48
   5 -38   0    9.38    1.86
   6 -38   0   12.40    1.97
 -17   0   1   -2.84    3.75
 -16   0   1    1.34    3.02
 -15   0   1    2.81    2.79
 -14   0   1    3.08    2.61
 -13   0   1    3.14    2.41
 -12   0   1    3.33    2.05
 -12   0   1    4.58    1.07
 -11   0   1    8.52    1.68
 -11   0   1    5.41    0.92
 -11   0   1    3.58    1.92
 -10   0   1    7.23    1.94
 -10   0   1    7.63    0.89
  -9   0   1   11.51    1.41
  -9   0   1    5.84    0.73
  -9   0   1    6.90    1.61
  -8   0   1   13.89    0.93
  -8   0   1    7.73    1.37
  -8   0   1    9.52    1.78
  -7   0   1   23.81    0.92
  -7   0   1   18.81    1.43
  -7   0   1   17.75    1.98
  -6   0   1    9.76    0.98
  -6   0   1    5.85    0.47
  -6   0   1    6.14    1.45
   5   0  -1    4.65    0.84
  -5   0   1    8.37    0.73
  -5   0   1    6.92    1.21
   4   0  -1    0.14    0.66
  -4   0   1    0.90    0.80
   3   0  -1   12.54    1.06
  -3   0   1   11.00    1.17
  -2   0   1   15.91    1.05
   2   0  -1   15.63    0.93
   1   0  -1   21.96    0.96
  -1   0   1   25.51    1.22
   0   0   1   -0.61    0.34
   0   0  -1   -0.22    0.12
   1   0   1   18.30    1.08
  -1   0  -1   32.11    0.79
   1   0   1   34.51    0.73
  -1   0  -1   16.92    1.05
   2   0   1    8.53    0.58
   2   0   1   13.06    0.97
  -2   0  -1   12.51    0.98
  -2   0  -1    8.11    0.62
   3   0   1    9.75    0.77
  -3   0  -1    9.62    0.84
   3   0   1   16.21    1.16
  -3   0  -1   15.33    1.18
  -4   0  -1   10.96    1.09
   4   0   1   10.13    1.07
   4   0   1    8.43    0.80
  -4   0  -1    6.99    0.94
  -5   0  -1    7.04    1.15
  -5   0  -1   10.31    1.40
   5   0   1    7.45    0.95
  -6   0  -1    5.08    1.23
  -6   0  -1    2.56    1.11
  -6   0  -1    4.67    0.85
  -7   0  -1   11.11    0.99
  -7   0  -1    8.70    1.42
  -7   0  -1   15.31    1.59
  -8   0  -1    6.31    0.95
  -8   0  -1    4.33    1.37
  -9   0  -1    2.87    1.49
  -9   0  -1    3.98    1.11
 -10   0  -1    8.10    2.07
 -10   0  -1    9.51    1.53
 -11   0  -1    8.11    2.07
 -11   0  -1    7.37    1.27
 -12   0  -1   10.20    2.41
 -12   0  -1   14.37    1.82
 -13   0  -1    1.85    2.41
 -13   0  -1    0.59    1.30
 -14   0  -1   -0.03    2.46
 -14   0  -1    4.06    1.65
 -15   0  -1    1.34    2.57
 -16   0  -1    7.00    3.41
 -17  -1   1  110.66    7.37
 -17   1   1  107.45    7.68
 -16   1   1   39.65    5.07
 -16  -1   1   32.40    4.67
 -15   1   1    4.56    2.97
 -15  -1   1    4.66    2.94
 -14   1   1  190.06    8.17
 -14  -1   1  192.02    7.64
 -13   1   1  659.32   13.47
 -13  -1   1  652.21   12.88
 -12  -1   1  196.71    3.53
 -12   1   1  183.75    6.91
 -12  -1   1  178.44    6.51
 -12   1   1  178.49    3.75
 -11  -1   1   77.32    2.14
 -11   1   1   81.59    3.51
 -11   1   1   78.59    4.35
 -11  -1   1   78.94    3.90
 -11   1   1   76.93    2.29
 -11  -1   1   79.89    4.31
 -10  -1   1   69.88    1.87
 -10  -1   1   52.96    3.48
 -10  -1   1   69.97    3.24
 -10   1   1   71.57    2.05
 -10   1   1   54.99    3.57
 -10   1   1   59.94    2.88
  -9   1   1  291.07    3.68
  -9   1   1  278.75    6.94
  -9  -1   1  295.46    5.92
  -9  -1   1  277.40    3.10
  -9   1   1  289.67    5.32
  -9  -1   1  280.66    6.58
  -8  -1   1 1267.21    6.10
  -8   1   1 1294.72    7.02
  -8  -1   1 1321.36   11.22
  -8  -1   1 1325.77   13.09
  -8   1   1 1261.93    9.81
  -8   1   1 1220.25   13.29
  -7  -1   1 3717.88    9.26
  -7   1   1 3818.43   14.92
  -7   1   1 3751.17   10.62
  -7  -1   1 3895.46   17.53
  -7  -1   1 3681.26   20.12
  -7   1   1 3641.40   20.97
  -6   1   1  565.44    7.76
  -6   1   1  599.35    3.80
   6   1  -1  555.33    6.13
  -6   1   1  583.22    5.04
  -6  -1   1  599.64    6.20
  -6  -1   1  576.87    7.25
  -5   1   1  339.82    3.11
   5  -1  -1  365.77    4.97
  -5  -1   1  355.85    5.14
  -5   1   1  359.00    5.70
   5   1  -1  351.56    4.57
   5   1  -1  357.90    3.03
  -5  -1   1  360.10    4.27
   4  -1  -1    5.56    0.85
  -4  -1   1    6.48    0.93
  -4  -1   1    4.07    0.67
   4   1  -1    2.38    0.37
   4   1  -1    7.28    0.83
  -4   1   1    5.96    1.04
  -3  -1   1 4546.32   14.05
   3   1  -1 4495.71   12.72
   2   1  -1  202.04    2.31
   2  -1  -1  211.60    3.16
  -2  -1   1  190.79    2.45
  -2   1   1  191.95    3.41
  -1   1   1 5482.87   18.07
   1  -1  -1 5376.23   11.35
   0   1  -1  588.79    3.04
   0  -1  -1  690.94    2.38
  -2   1  -1   15.85    1.06
  -2  -1  -1   12.62    0.67
   2   1   1   28.55    1.31
  -2   1  -1   11.04    0.69
  -2   1  -1   10.48    0.71
   2  -1   1   21.46    0.80
   2   1   1   24.53    0.77
  -2  -1  -1   10.76    1.05
  -3   1  -1 3878.93   12.55
  -3   1  -1 3834.84   10.70
  -3  -1  -1 4070.17   12.09
   3  -1   1 3995.74   11.47
  -3  -1  -1 3871.80   15.94
   3   1   1 4023.04   15.15
  -3   1  -1 4012.39   14.84
   3   1   1 4049.81   10.89
   4   1   1  614.50    4.88
  -4  -1  -1  596.46    6.91
  -4  -1  -1  626.15    5.60
   4  -1   1  618.61    5.23
  -4   1  -1  618.85    5.89
  -4   1  -1  594.46    4.65
   4   1   1  569.92    6.13
  -4   1  -1  597.37    6.35
   5   1   1 1100.34    7.30
   5   1   1 1092.00    9.15
  -5   1  -1 1093.58    6.81
  -5   1  -1 1099.15    8.89
   5  -1   1 1051.50    7.66
  -5  -1  -1 1097.48   10.15
  -5  -1  -1 1117.51    8.56
  -5   1  -1 1132.95    9.75
  -6  -1  -1 2369.42   14.14
  -6   1  -1 2295.20   10.60
  -6  -1  -1 2347.77   16.07
   6   1   1 2292.49   13.92
  -6   1  -1 2332.38   14.42
  -6   1  -1 2402.13   15.37
  -7   1  -1   50.13    1.82
  -7   1  -1   57.45    2.66
  -7  -1  -1   47.39    2.73
  -7  -1  -1   53.89    2.50
  -7   1  -1   65.63    2.87
  -8   1  -1    7.58    1.02
  -8   1  -1    7.32    1.56
  -8  -1  -1    5.48    1.45
  -8  -1  -1    6.74    0.95
  -9   1  -1  519.49    8.82
  -9  -1  -1  529.77    8.66
  -9  -1  -1  527.65    5.84
  -9   1  -1  526.18    6.11
 -10  -1  -1  991.58   12.61
 -10   1  -1  961.80    8.76
 -10   1  -1  946.22   12.74
 -10  -1  -1  962.44    8.35
 -11  -1  -1   60.08    2.63
 -11   1  -1   41.89    3.22
 -11  -1  -1   50.21    3.61
 -11   1  -1   49.20    2.39
 -12  -1  -1  450.99    9.88
 -12  -1  -1  472.32    6.64
 -12   1  -1  466.07    7.04
 -12   1  -1  455.71   10.16
 -13   1  -1    7.46    1.61
 -13  -1  -1    6.62    1.46
 -13  -1  -1    6.62    2.55
 -13   1  -1    5.77    2.48
 -14   1  -1  119.34    4.15
 -14  -1  -1  105.16    5.67
 -14   1  -1  121.30    6.34
 -14  -1  -1  127.14    4.12
 -15   1  -1   54.40    5.02
 -15  -1  -1   52.37    4.48
 -16  -1  -1  451.49   12.88
 -16   1  -1  461.20   13.25
 -17   2   1   79.11    6.72
 -17  -2   1   86.61    6.92
 -16  -2   1   74.55    5.94
 -16   2   1   78.33    6.33
 -15  -2   1   71.88    5.54
 -15   2   1   75.02    5.86
 -14  -2   1   20.87    3.20
 -14   2   1   19.11    3.41
 -13   2   1   11.54    3.05
 -13  -2   1    9.79    2.47
 -12   2   1  130.84    3.52
 -12   2   1  132.35    6.07
 -12  -2   1  127.79    5.45
 -12  -2   1  138.72    2.92
 -11  -2   1  278.35    3.71
 -11   2   1  291.86    6.23
 -11  -2   1  277.66    7.07
 -11   2   1  261.74    4.38
 -11   2   1  251.83    7.46
 -11  -2   1  254.47    7.06
 -10   2   1 2574.20   16.51
 -10  -2   1 2518.61   20.34
 -10  -2   1 2523.33   19.36
 -10  -2   1 2575.44   10.31
 -10   2   1 2624.80   12.55
 -10   2   1 2425.35   21.81
  -9   2   1 1019.54    7.40
  -9  -2   1 1013.92    5.88
  -9   2   1 1053.12    9.61
  -9  -2   1  993.46   11.90
  -9   2   1  961.43   12.83
  -9  -2   1 1048.50   11.80
  -8  -2   1  856.85    4.88
  -8  -2   1  842.70   10.17
  -8   2   1  826.90   11.23
  -8   2   1  845.85    6.21
  -8  -2   1  886.10    9.94
  -8   2   1  837.24    7.66
  -7   2   1   63.29    1.93
  -7  -2   1   86.93    3.22
   7   2  -1   88.80    2.08
  -7   2   1   79.09    1.82
  -7  -2   1   95.69    3.13
  -7   2   1   77.93    3.46
   6   2  -1  139.60    3.07
  -6  -2   1  170.44    3.73
   6   2  -1  159.19    2.55
  -6   2   1  145.89    2.19
  -6  -2   1  153.94    3.72
  -6   2   1  148.78    2.42
  -6   2   1  148.74    4.33
   5  -2  -1  532.67    6.35
  -5   2   1  520.99    7.39
   5   2  -1  505.72    4.24
  -5   2   1  527.69    3.89
  -5   2   1  470.71    3.64
  -5  -2   1  573.02    6.16
   5   2  -1  532.44    5.32
  -5  -2   1  553.90    6.14
   4  -2  -1  724.52    2.78
  -4  -2   1  764.05    6.35
   4   2  -1  747.91    5.08
  -4  -2   1  782.51    6.74
  -4   2   1  722.61    7.88
   4  -2  -1  760.57    6.95
   4   2  -1  769.70    5.58
   3   2  -1 1590.89    7.99
  -3  -2   1 1624.13    7.82
  -3  -2   1 1568.78    8.51
  -3   2   1 1685.99   11.36
   3   2  -1 1662.59    7.11
   3  -2  -1 1671.10    9.84
   2   2  -1 2770.46    7.31
  -2  -2   1 2888.15    8.81
   2  -2  -1 2895.23   13.04
   2   2  -1 2754.57   10.79
  -2  -2   1 2686.16    7.99
  -2   2   1 2698.81   13.98
   1  -2  -1  554.46    4.73
  -1   2   1  587.14    7.11
   1   2  -1  584.26    3.85
   1  -2  -1  596.57    6.54
  -1   2   1  546.00    4.49
  -1  -2   1  588.46    3.37
   0   2  -1   35.58    0.96
   0   2   1   28.45    1.23
   0  -2   1   31.95    0.85
   0  -2  -1   31.47    1.35
   0  -2  -1   42.58    0.71
   0  -2  -1   37.11    2.35
   1  -2   1  492.54    3.32
  -1  -2  -1  506.11    2.69
  -1  -2  -1  524.07    5.31
  -1   2  -1  489.96    2.94
   1   2   1  492.23    4.95
   1   2   1  492.08    2.59
   1  -2   1  497.59    2.69
  -1   2  -1  494.21    3.56
  -2   2  -1  718.10    4.67
  -2  -2  -1  751.51    4.16
   2  -2   1  735.46    4.33
  -2   2  -1  706.57    4.52
   2  -2   1  716.63    4.31
  -2  -2  -1  766.56    7.04
   2   2   1  708.50    3.80
   2   2   1  713.95    6.54
  -3   2  -1 1572.32    8.50
   3   2   1 1680.21   10.47
   3   2   1 1558.35    6.70
   3  -2   1 1537.83    7.45
  -3  -2  -1 1573.62    7.32
  -3   2  -1 1554.13    9.44
  -3   2  -1 1584.56    7.45
  -3  -2  -1 1644.96   11.20
   4  -2   1  319.73    3.92
  -4  -2  -1  335.03    4.02
  -4   2  -1  321.39    3.67
  -4   2  -1  341.08    4.79
   4   2   1  341.99    4.92
  -4   2  -1  321.77    4.49
  -4  -2  -1  356.09    5.67
   5  -2   1 6382.52   19.09
   5   2   1 6270.17   22.45
  -5   2  -1 6437.70   17.44
  -5  -2  -1 6488.58   20.05
  -5   2  -1 6536.26   22.57
  -5   2  -1 6571.78   23.07
  -5  -2  -1 6313.24   25.89
   5   2   1 6220.92   16.96
  -6  -2  -1   14.62    1.77
  -6   2  -1   19.09    1.58
  -6  -2  -1   18.32    1.50
  -6   2  -1   17.62    1.75
  -6   2  -1   20.99    1.26
   6   2   1   14.80    1.52
  -7  -2  -1   53.33    2.98
  -7   2  -1   73.22    2.97
   7   2   1   58.03    2.55
  -7   2  -1   76.47    3.17
  -7  -2  -1   72.32    2.82
  -7   2  -1   66.84    2.13
   8   2   1    6.32    1.34
  -8   2  -1   10.29    1.18
  -8  -2  -1   16.87    2.08
  -8   2  -1    9.62    1.77
  -9   2  -1  156.46    5.11
  -9  -2  -1  154.51    3.20
  -9  -2  -1  160.32    4.80
  -9   2  -1  158.55    3.59
 -10  -2  -1  763.68    7.42
 -10  -2  -1  784.87   11.22
 -10   2  -1  737.27   11.53
 -10   2  -1  782.84    8.33
 -11   2  -1  907.21    9.48
 -11  -2  -1  936.30    8.67
 -11   2  -1  913.50   13.55
 -12   2  -1  131.62    5.86
 -12  -2  -1  134.51    5.48
 -12   2  -1  146.63    4.19
 -12  -2  -1  161.47    3.96
 -13  -2  -1   12.24    1.59
 -13   2  -1   11.53    1.76
 -13  -2  -1   10.97    2.48
 -13   2  -1   15.08    2.95
 -14  -2  -1   18.53    2.05
 -14   2  -1   13.12    3.03
 -14   2  -1   11.38    2.01
 -14  -2  -1   17.79    3.12
 -15  -2  -1    1.50    2.62
 -15   2  -1    5.30    3.09
 -16   2  -1   32.44    4.53
 -16  -2  -1   34.20    4.50
 -17   3   1   87.11    7.29
 -17  -3   1   93.55    6.98
 -16   3   1   99.93    7.21
 -16  -3   1   90.68    6.20
 -15   3   1  647.17   15.74
 -15  -3   1  615.03   13.83
 -14   3   1   39.28    4.56
 -14  -3   1   30.13    3.53
 -13   3   1  269.21    9.02
 -13  -3   1  303.87    8.53
 -12   3   1  395.17   10.31
 -12   3   1  386.50    6.24
 -12  -3   1  405.12    9.31
 -12  -3   1  409.21    4.79
 -11  -3   1  195.06    6.30
 -11   3   1  197.60    7.17
 -11   3   1  201.27    4.20
 -11   3   1  232.71    5.44
 -11  -3   1  205.65    3.22
 -11  -3   1  188.32    6.14
 -10   3   1  154.53    3.42
 -10  -3   1  150.32    2.50
 -10  -3   1  165.08    5.42
 -10   3   1  147.65    5.93
 -10  -3   1  145.27    4.98
 -10   3   1  166.25    4.23
  -9   3   1 1265.75   15.41
  -9  -3   1 1341.67   13.78
  -9   3   1 1368.95   10.44
  -9   3   1 1302.94    9.19
  -9  -3   1 1280.81   13.37
  -8  -3   1  286.18    6.05
  -8   3   1  305.63    4.48
  -8   3   1  269.56    6.86
  -8  -3   1  263.14    5.68
   8   3  -1  288.21    4.10
  -8   3   1  278.72    4.01
  -7  -3   1  375.68    6.44
   7   3  -1  347.99    4.33
  -7   3   1  374.40    4.30
  -7  -3   1  361.15    6.12
  -7   3   1  343.92    7.19
  -7   3   1  367.22    4.28
   6   3  -1  114.80    2.46
  -6  -3   1  125.53    3.55
  -6  -3   1  130.29    3.43
  -6   3   1  123.87    4.31
  -6   3   1   96.58    2.02
  -6   3   1  122.27    2.44
   6   3  -1  120.45    2.76
  -5  -3   1 3124.68   14.38
   5   3  -1 2939.09   11.99
   5  -3  -1 3016.16   15.51
   5   3  -1 2914.73   12.12
  -5   3   1 3123.68   11.84
  -5  -3   1 3150.61   16.28
  -5   3   1 2948.73   18.34
   5  -3  -1 2963.06    7.21
  -4   3   1  800.89    9.01
   4  -3  -1  832.08    3.90
   4  -3  -1  789.29    7.61
   4   3  -1  810.02    5.60
  -4   3   1  818.37    6.22
   4   3  -1  857.08    6.80
  -4  -3   1  782.41    6.14
  -4  -3   1  885.94    8.26
   3  -3  -1 5881.69   13.25
   3  -3  -1 5755.30   20.19
  -3   3   1 5688.45   22.80
   3   3  -1 5744.01   19.21
   3   3  -1 5548.75   12.25
  -3  -3   1 5559.05   19.02
  -3   3   1 5480.48   17.43
  -2   3   1 2031.85   13.36
   2  -3  -1 2156.82   12.52
   2   3  -1 2015.37    5.67
   2   3  -1 2060.07   11.77
  -2  -3   1 2039.31    9.55
  -2  -3   1 1911.05    6.12
   2  -3  -1 2204.40   11.29
  -2   3   1 2225.09   10.90
  -1   3   1  999.00    7.33
  -1  -3   1 1027.45    5.80
   1  -3  -1 1048.91    9.67
   1   3  -1 1048.05    6.68
   1  -3  -1 1031.37    7.91
  -1   3   1  957.47   10.25
   0  -3  -1  606.58    2.79
   0  -3   1  618.11    4.25
   0   3  -1  584.60    4.47
   0   3   1  629.79    6.12
   0  -3  -1  655.10    9.00
   0  -3  -1  656.80    6.32
  -2  -3  -1 1287.47   10.08
   2  -3   1 1295.51    6.19
  -2   3  -1 1245.93    6.68
  -2  -3  -1 1244.06    5.38
   2   3   1 1259.49    9.37
   2   3   1 1233.99    5.12
   2  -3   1 1301.76    6.34
  -2   3  -1 1243.07    6.69
  -3   3  -1  811.99    5.76
   3   3   1  841.60    4.90
  -3  -3  -1  833.91    5.33
  -3  -3  -1  812.36    8.54
   3  -3   1  848.83    5.83
  -3   3  -1  858.45    6.57
   3   3   1  771.32    7.64
   3  -3   1  819.10    5.26
  -4   3  -1  883.83    6.34
  -4   3  -1  959.86    8.01
   4   3   1  927.85    8.85
  -4  -3  -1  917.86    6.57
   4   3   1  925.89    5.84
  -4  -3  -1  912.81    9.81
   4  -3   1  959.40    7.03
  -5   3  -1    9.86    1.26
  -5  -3  -1   12.14    1.67
  -5   3  -1    9.69    1.28
   5  -3   1    8.33    1.04
  -5   3  -1   11.71    1.06
   5   3   1    8.52    0.87
   5   3   1   12.00    1.48
  -5  -3  -1   10.70    1.20
  -6   3  -1  522.41    7.34
   6   3   1  559.48    7.20
  -6  -3  -1  573.02    8.78
  -6  -3  -1  546.15    6.57
  -6   3  -1  535.36    5.60
  -6   3  -1  543.54    7.13
  -7  -3  -1 1433.32   11.52
   7   3   1 1357.75   11.62
  -7   3  -1 1439.07   13.14
  -7   3  -1 1401.16    9.58
  -7  -3  -1 1362.81   14.47
  -7   3  -1 1414.08   12.19
   8   3   1 1967.86   14.73
  -8   3  -1 2198.08   17.41
  -8   3  -1 2153.77   12.68
  -8  -3  -1 1939.30   14.68
   9   3   1    9.64    1.49
  -9   3  -1   13.56    2.05
  -9  -3  -1   10.74    1.74
  -9   3  -1   11.90    1.27
 -10  -3  -1  132.62    3.18
 -10   3  -1  129.15    3.61
 -10   3  -1  124.54    5.17
 -10  -3  -1  129.39    4.78
 -11  -3  -1  185.53    3.93
 -11   3  -1  170.32    4.37
 -11   3  -1  176.87    6.25
 -11  -3  -1  167.06    5.82
 -12  -3  -1  202.36    6.62
 -12   3  -1  207.01    5.05
 -12  -3  -1  205.53    4.34
 -12   3  -1  194.77    6.83
 -13   3  -1   10.24    2.74
 -13  -3  -1   10.03    2.58
 -13  -3  -1   19.11    1.85
 -13   3  -1   13.57    1.91
 -14   3  -1  216.59    8.43
 -14   3  -1  202.32    5.64
 -14  -3  -1  209.77    5.02
 -14  -3  -1  214.70    7.74
 -15  -3  -1   15.69    3.28
 -15   3  -1   15.04    3.32
 -16  -3  -1   10.57    3.13
 -16   3  -1   10.28    3.92
 -17   4   1   -0.59    3.71
 -17  -4   1    4.38    3.18
 -16   4   1   71.05    6.14
 -16  -4   1   68.56    5.54
 -15  -4   1   10.91    3.36
 -15   4   1    4.03    3.15
 -14  -4   1   12.14    2.72
 -14   4   1    6.59    3.16
 -13  -4   1   20.84    3.03
 -13   4   1   12.36    3.03
 -12   4   1  261.03    5.45
 -12   4   1  275.41    9.03
 -12  -4   1  290.52    4.11
 -12  -4   1  282.45    7.76
 -11   4   1   10.26    1.69
 -11   4   1   11.23    2.78
 -11  -4   1   10.47    1.06
 -11  -4   1   12.36    2.27
 -11   4   1   11.48    1.47
 -11  -4   1   18.08    2.59
 -10   4   1  174.70    4.20
 -10  -4   1  152.24    5.46
 -10   4   1  161.19    6.24
 -10   4   1  157.91    3.86
 -10  -4   1  156.85    5.20
   9   4  -1   15.38    1.30
  -9   4   1   15.00    1.36
  -9  -4   1   13.13    2.10
  -9  -4   1   12.10    1.87
  -9   4   1   12.42    1.30
  -9   4   1    9.70    2.00
  -8  -4   1  711.20   10.03
  -8  -4   1  642.89    8.60
  -8   4   1  690.91    6.55
  -8   4   1  668.87    6.83
   8   4  -1  676.37    6.67
  -8   4   1  631.68   10.49
  -7   4   1  446.29    5.39
  -7  -4   1  466.68    7.77
   7   4  -1  468.10    5.55
  -7   4   1  432.24    4.71
  -7   4   1  414.39    8.27
  -7  -4   1  429.69    6.43
  -6  -4   1   17.63    1.42
   6   4  -1   21.61    1.37
  -6   4   1   17.12    2.03
   6  -4  -1   23.53    0.84
  -6  -4   1   25.45    2.00
   6   4  -1   19.10    1.23
  -6   4   1   24.75    1.39
   5   4  -1    8.65    0.83
   5  -4  -1    9.97    0.61
  -5   4   1   12.76    1.18
  -5  -4   1    9.96    1.04
  -5  -4   1   13.60    1.66
  -5   4   1   11.61    1.81
   5   4  -1   12.67    1.22
   5  -4  -1   10.28    1.28
   4   4  -1  152.65    2.32
  -4  -4   1  146.49    2.61
   4   4  -1  162.21    3.60
  -4   4   1  153.85    4.39
  -4  -4   1  162.88    4.14
   4  -4  -1  149.21    2.07
  -4   4   1  155.62    3.34
   4  -4  -1  151.14    3.60
   3   4  -1   71.96    1.34
  -3   4   1   66.87    2.98
  -3   4   1   73.48    2.53
  -3  -4   1   74.40    1.55
   3  -4  -1   73.00    2.65
   3   4  -1  106.67    3.19
   3  -4  -1   82.37    2.06
  -3  -4   1   87.60    2.88
   2   4  -1   93.36    1.18
  -2  -4   1   90.93    1.29
   2  -4  -1   97.01    2.94
   2  -4  -1  101.05    3.13
   2   4  -1   93.40    3.07
  -2  -4   1   92.82    2.49
  -2   4   1   59.41    2.95
  -2   4   1   95.08    2.88
   1  -4  -1  685.10    7.42
  -1  -4   1  635.98    5.58
   1   4  -1  628.21    6.37
  -1   4   1  696.33    7.18
   1  -4  -1  661.63    8.33
  -1   4   1  657.81    9.30
   0  -4  -1 4087.61   18.09
   0   4   1 3938.85   17.28
   0  -4  -1 4078.57   24.31
   0   4  -1 4087.80   14.18
   0  -4   1 4110.99   12.56
  -1  -4  -1 8055.26   25.93
   1   4   1 8024.47   25.17
   1  -4   1 7858.93   17.09
  -2  -4  -1 4004.73   19.01
  -2   4  -1 4007.84   13.15
   2   4   1 3897.16    9.20
   2  -4   1 3925.84   12.01
  -2   4  -1 3955.80   13.30
   2   4   1 3902.46   18.28
  -2  -4  -1 3814.40    9.58
   2  -4   1 3935.29   11.38
   3   4   1   89.51    2.99
   3  -4   1   68.50    1.82
   3  -4   1   71.04    1.74
  -3   4  -1   57.85    1.93
   3   4   1   71.87    1.46
  -3   4  -1   63.91    1.84
  -3  -4  -1   82.19    3.12
  -3  -4  -1   59.85    1.50
  -4   4  -1  249.80    3.71
   4   4   1  255.45    3.04
   4  -4   1  255.90    3.84
  -4   4  -1  246.09    4.26
  -4  -4  -1  265.23    3.54
   4  -4   1  263.34    3.32
  -4  -4  -1  308.87    6.06
   4   4   1  313.83    5.34
  -5  -4  -1   23.72    1.43
   5   4   1   26.20    1.89
  -5   4  -1   23.60    1.74
  -5  -4  -1   31.25    2.36
   5  -4   1   17.69    1.33
  -5   4  -1   26.18    1.46
  -6   4  -1  913.33    9.89
  -6   4  -1  888.45    7.66
  -6  -4  -1  895.99   11.43
  -6  -4  -1  833.84    7.99
   6   4   1  875.51    9.49
  -6   4  -1  944.59    9.42
  -7  -4  -1  116.55    3.51
  -7   4  -1  118.16    4.01
   7   4   1  103.34    3.43
  -7   4  -1  129.61    3.83
  -7   4  -1  108.99    2.95
   8   4   1   30.09    2.24
  -8  -4  -1   26.36    2.29
  -8   4  -1   28.25    1.77
  -8   4  -1   25.05    2.35
  -9   4  -1  329.45    5.48
  -9   4  -1  346.21    7.71
   9   4   1  333.99    6.47
  -9  -4  -1  341.33    6.70
 -10  -4  -1   66.33    3.53
 -10   4  -1   70.04    2.85
 -10   4  -1   74.32    3.98
  10   4   1   58.86    3.03
 -11   4  -1  106.57    5.03
 -11  -4  -1  112.45    3.11
 -11   4  -1  108.61    3.62
 -11  -4  -1  109.64    4.72
 -12   4  -1    8.97    2.45
 -12  -4  -1   11.45    2.47
 -12   4  -1   13.89    1.87
 -12  -4  -1   14.73    1.53
 -13   4  -1  108.66    5.93
 -13   4  -1   96.37    3.93
 -13  -4  -1  118.93    3.69
 -13  -4  -1  107.67    5.48
 -14  -4  -1   79.49    5.25
 -14  -4  -1   82.80    3.35
 -14   4  -1   69.13    5.25
 -14   4  -1   65.71    3.67
 -15  -4  -1   11.80    2.99
 -15   4  -1    9.55    3.06
 -16  -4  -1    7.66    3.14
 -16   4  -1    7.29    3.42
 -17  -5   1   51.38    5.26
 -17   5   1   62.06    6.56
 -16   5   1  163.74    9.16
 -16  -5   1  151.16    7.53
 -15   5   1  356.05   12.39
 -15  -5   1  340.68   10.07
 -14  -5   1   18.65    3.00
 -14   5   1   22.61    3.94
 -13  -5   1   12.84    2.50
 -13   5   1   13.18    3.11
 -12   5   1  157.83    4.67
 -12  -5   1  143.57    5.57
 -12   5   1  152.35    6.91
 -12  -5   1  163.50    3.01
 -11   5   1 1283.66   12.27
 -11   5   1 1235.05   18.11
 -11  -5   1 1239.98   14.78
 -10  -5   1  148.61    5.78
 -10   5   1  113.79    3.43
  10   5  -1  148.29    3.59
 -10  -5   1  130.68    4.69
 -10   5   1  119.90    5.73
 -10   5   1  133.08    3.82
  -9  -5   1 1952.88   18.88
  -9   5   1 1881.77   19.84
  -9   5   1 1921.66   13.33
  -9   5   1 2026.48   12.46
  -9  -5   1 1852.10   15.51
   9   5  -1 1902.00   12.25
  -8   5   1   49.19    2.28
   8   5  -1   39.68    1.97
  -8   5   1   45.74    1.86
  -8   5   1   53.61    3.58
  -8  -5   1   53.76    2.70
  -8  -5   1   46.88    3.08
  -7  -5   1  555.07    9.16
   7   5  -1  517.59    6.35
  -7   5   1  586.21   10.14
  -7  -5   1  594.01    7.48
  -7   5   1  586.66    6.99
   6  -5  -1  210.97    2.55
   6   5  -1  225.91    4.32
  -6   5   1  191.69    4.05
   6   5  -1  186.84    3.15
  -6  -5   1  217.03    5.62
  -6   5   1  189.87    5.63
  -6  -5   1  204.88    3.95
  -5   5   1 2465.83   14.20
  -5  -5   1 2575.41   17.76
   5   5  -1 2471.00   10.09
  -5  -5   1 2499.35   12.15
   5  -5  -1 2625.89    9.38
   5  -5  -1 2448.86   15.06
   5   5  -1 2468.01   14.56
   4   5  -1    2.79    1.17
   4  -5  -1    3.21    1.13
   4  -5  -1    3.18    0.67
  -4  -5   1    7.86    1.57
  -4  -5   1    7.55    0.81
   4   5  -1    3.35    0.54
  -4   5   1    9.61    1.36
  -4   5   1   11.02    1.83
   3   5  -1  812.76    4.25
   3   5  -1  819.73    9.60
  -3   5   1  865.56   10.45
   3  -5  -1  929.07    7.92
  -3  -5   1  807.47    9.08
  -3  -5   1  819.02    4.86
   3  -5  -1  895.98    9.39
  -3   5   1  830.11    8.96
   2   5  -1 1508.17   12.91
  -2  -5   1 1526.73    4.86
  -2   5   1 1610.79   12.48
   2  -5  -1 1634.52   12.73
   2  -5  -1 1709.36   12.88
   2   5  -1 1556.79    4.48
  -2   5   1 1613.81   14.62
  -2  -5   1 1506.62   10.97
   1  -5  -1   22.81    2.05
   1   5  -1   23.04    1.69
  -1   5   1   18.79    2.51
   1   5  -1   21.43    0.40
   1  -5  -1   20.30    2.29
  -1   5   1   20.57    1.82
  -1  -5   1   14.13    1.29
   0  -5   1  416.31    4.72
   0  -5  -1  434.26    8.55
   0  -5   1  457.99    3.73
   0   5   1  431.67    6.59
   0   5  -1  481.36    4.99
   0   5  -1  416.83    5.41
   0  -5  -1  440.99    6.81
   1   5   1 4961.91   22.11
   1  -5   1 4994.76   15.27
  -1   5  -1 4650.00   16.92
   1  -5   1 4798.97   12.21
  -1   5  -1 4751.93   14.80
  -2  -5  -1 6504.07   26.50
   2  -5   1 6161.32   16.65
  -2   5  -1 6067.42   18.40
  -2   5  -1 6017.38   18.04
   2   5   1 5955.88   11.50
   2  -5   1 6104.33   15.61
   2   5   1 6440.06   25.19
   3  -5   1 2484.83   11.01
  -3  -5  -1 2557.47   17.38
  -3  -5  -1 2367.10    8.93
   3   5   1 2421.29   15.71
   3  -5   1 2401.24   10.34
  -3   5  -1 2418.41   12.37
   3   5   1 2422.31    8.32
  -3   5  -1 2394.92   11.72
   4  -5   1  961.21    6.62
  -4  -5  -1  948.83   11.13
  -4   5  -1  933.61    7.57
  -4  -5  -1  953.26    6.58
   4   5   1  961.69   10.06
   4   5   1  918.82    5.76
   4  -5   1  927.74    7.37
  -4   5  -1  947.62    8.58
   5   5   1  281.23    5.63
   5  -5   1  266.54    3.65
  -5   5  -1  281.27    5.34
   5  -5   1  269.45    4.44
  -5  -5  -1  276.87    6.47
  -5   5  -1  295.50    4.52
  -5  -5  -1  274.32    4.09
  -6   5  -1  893.63    9.24
  -6  -5  -1  803.58   11.36
  -6   5  -1  847.12    9.91
   6   5   1  830.72    9.75
  -6   5  -1  822.71    7.79
  -6  -5  -1  855.42    7.92
   7   5   1 1298.44   12.31
  -7  -5  -1 1347.17   10.98
  -7   5  -1 1357.59   10.44
  -7   5  -1 1331.13   13.39
  -8   5  -1 1484.19   11.51
  -8  -5  -1 1488.00   12.60
   8   5   1 1471.45   13.32
  -8   5  -1 1444.76   14.72
  -9   5  -1   10.85    2.06
  -9   5  -1   10.24    1.32
   9   5   1   10.34    1.64
  -9  -5  -1   10.68    1.95
  10   5   1   10.65    1.72
 -10  -5  -1   15.43    2.13
 -10   5  -1   15.23    2.40
 -10   5  -1   15.07    1.76
 -11   5  -1   32.37    3.29
 -11  -5  -1   36.46    3.02
 -11   5  -1   43.60    2.60
 -12   5  -1   37.85    3.71
 -12  -5  -1   43.33    3.53
 -12   5  -1   41.13    2.65
 -12  -5  -1   44.86    2.28
 -13  -5  -1  442.88    6.61
 -13  -5  -1  416.72    9.69
 -13   5  -1  408.33   10.82
 -13   5  -1  429.41    8.24
 -14  -5  -1  670.05   13.09
 -14   5  -1  660.98   14.91
 -14  -5  -1  693.98    8.77
 -15  -5  -1   51.19    4.40
 -15   5  -1   42.38    4.81
 -16   5  -1   23.92    4.20
 -16  -5  -1   25.85    3.90
 -17   6   1  132.76    9.18
 -17  -6   1  144.58    7.91
 -16   6   1  215.94   10.80
 -16  -6   1  212.66    8.66
 -15  -6   1    9.39    2.86
 -15   6   1    4.19    3.24
 -14   6   1   31.15    4.31
 -14  -6   1   31.66    3.76
 -13   6   1   25.83    3.69
 -13  -6   1   25.10    3.08
 -12  -6   1    3.42    0.86
 -12   6   1    3.36    2.63
 -12   6   1    1.52    1.41
 -12  -6   1    1.19    1.80
  11   6  -1 1083.63   10.12
 -11  -6   1 1039.38   13.36
 -11   6   1 1088.22   11.92
 -11   6   1 1052.96   17.00
  10   6  -1 1886.44   13.23
 -10   6   1 1776.98   14.64
 -10   6   1 1802.43   13.03
 -10  -6   1 1794.93   20.21
 -10   6   1 1759.40   20.80
 -10  -6   1 1762.12   16.06
  -9  -6   1  764.46   12.65
  -9  -6   1  704.56    9.51
  -9   6   1  727.57    9.07
  -9   6   1  730.90    7.66
   9   6  -1  744.24    8.22
  -9   6   1  676.99   12.53
  -8   6   1  103.38    2.77
   8   6  -1  107.43    3.22
  -8  -6   1  110.97    4.72
  -8   6   1   91.80    3.26
  -8  -6   1   93.59    3.32
  -7   6   1   22.84    1.86
  -7   6   1   27.80    2.91
  -7  -6   1   21.41    2.45
   7   6  -1   17.36    1.62
  -7  -6   1   23.90    1.68
   7  -6  -1   20.51    1.03
   6  -6  -1  286.96    3.36
  -6  -6   1  299.51    7.02
  -6  -6   1  307.40    4.82
   6   6  -1  288.51    5.51
   6   6  -1  282.07    3.77
  -6   6   1  331.55    8.02
  -6   6   1  277.76    5.40
  -5  -6   1  365.10    4.49
   5  -6  -1  382.28    4.12
  -5  -6   1  378.02    7.60
  -5   6   1  370.94    7.81
   5   6  -1  375.57    3.89
   5  -6  -1  341.59    6.05
   5   6  -1  366.07    6.37
  -5   6   1  379.73    6.30
  -4   6   1 5030.15   23.98
   4   6  -1 5256.65   24.87
  -4   6   1 5105.06   28.00
   4  -6  -1 5240.48   23.34
   4  -6  -1 5303.23   17.57
   4   6  -1 5084.22   12.33
  -4  -6   1 5138.72   26.07
  -4  -6   1 5039.17   14.24
  -3   6   1 3893.71   21.55
   3  -6  -1 4095.35   21.14
   3   6  -1 4200.62   23.35
   3   6  -1 4094.81    9.21
  -3  -6   1 4019.28   10.32
  -3  -6   1 4061.48   21.88
  -3   6   1 4037.52   24.25
  -2   6   1 1474.34   13.51
  -2   6   1 1439.14   14.98
   2  -6  -1 1555.20   13.44
  -2  -6   1 1425.08    4.73
  -2  -6   1 1474.11   11.93
   2   6  -1 1484.50   13.99
   2   6  -1 1455.87    4.40
   2  -6  -1 1497.31   13.24
  -1   6   1  113.94    3.86
   1  -6  -1  114.89    4.12
   1   6  -1  121.69    3.87
  -1   6   1  109.28    4.76
  -1  -6   1  106.87    3.10
   1  -6  -1  116.04    4.31
  -1  -6   1  107.67    0.98
   0   6  -1  239.22    4.30
   0   6  -1  221.19    4.62
   0  -6  -1  249.23    5.74
   0  -6  -1  217.76    6.72
   0   6   1  221.51    6.93
   0  -6   1  209.16    3.92
   0   6   1  226.44    5.32
   0  -6   1  221.97    3.26
  -1  -6  -1   58.04    1.20
  -1  -6  -1   66.50    3.13
   1   6   1   60.31    1.15
   1  -6   1   68.43    1.79
   1   6   1   61.82    2.98
  -1   6  -1   50.32    2.21
   1  -6   1   53.30    1.86
  -1   6  -1   77.92    2.29
   2  -6   1 5008.91   15.36
  -2  -6  -1 5174.36   25.73
  -2   6  -1 4843.51   18.10
   2   6   1 4785.61   10.79
   2  -6   1 5047.52   16.33
  -2   6  -1 5045.45   19.04
   2   6   1 5126.75   24.55
   3  -6   1  275.07    3.90
  -3   6  -1  274.21    4.71
   3   6   1  256.92    2.79
  -3   6  -1  253.53    4.27
   3   6   1  263.31    5.74
  -3  -6  -1  261.14    3.03
  -3  -6  -1  260.37    6.06
   3  -6   1  256.48    3.69
   4   6   1  482.20    4.21
  -4  -6  -1  454.83    8.20
  -4   6  -1  504.68    6.09
  -4   6  -1  478.54    6.56
  -4  -6  -1  508.33    4.85
   4  -6   1  453.45    4.76
   4   6   1  453.92    7.34
   4  -6   1  493.35    5.64
  -5   6  -1  113.73    3.57
  -5   6  -1  133.81    3.36
   5  -6   1  110.09    2.95
   5   6   1  127.05    4.09
  -5  -6  -1  135.62    4.79
  -5  -6  -1  122.02    2.74
   5  -6   1  125.18    2.61
  -6  -6  -1 2199.16   12.49
  -6   6  -1 2179.73   13.21
  -6  -6  -1 2268.62   19.85
   6   6   1 2198.12   16.33
   6  -6   1 2177.81   10.95
  -6   6  -1 2154.72   16.17
   7   6   1  337.06    6.69
  -7  -6  -1  370.94    5.84
  -7   6  -1  359.06    5.70
  -7   6  -1  369.44    7.27
  -8  -6  -1  292.31    5.71
  -8   6  -1  280.63    6.76
   8   6   1  301.00    6.42
  -8   6  -1  278.34    5.26
   9   6   1  839.62   10.69
  -9   6  -1  865.39    9.75
  -9   6  -1  846.80   12.43
  -9  -6  -1  867.24   10.57
 -10  -6  -1  511.51    8.71
  10   6   1  443.25    8.03
 -10   6  -1  495.74   10.15
 -10   6  -1  482.88    7.54
 -11   6  -1  369.92    7.01
 -11  -6  -1  375.22    7.99
 -11   6  -1  333.38    8.95
  11   6   1  377.35    7.55
 -12  -6  -1  260.05    7.13
 -12   6  -1  256.75    6.19
 -12   6  -1  236.19    7.95
 -13   6  -1   81.75    3.89
 -13   6  -1   81.46    5.45
 -13  -6  -1   86.33    4.76
 -13  -6  -1   92.87    3.15
 -14  -6  -1   47.03    2.59
 -14  -6  -1   38.78    3.94
 -14   6  -1   40.99    4.79
 -15  -6  -1  111.25    6.14
 -15   6  -1  100.76    6.83
 -16  -6  -1   28.42    4.12
 -16   6  -1   28.03    4.78
 -17  -7   1   14.71    3.56
 -16   7   1   11.60    4.07
 -16  -7   1   10.27    3.07
 -15   7   1   10.98    4.05
 -15  -7   1    7.69    2.95
 -14  -7   1  496.26   11.27
 -14   7   1  492.71   14.33
 -13  -7   1  631.19   11.80
 -13   7   1  644.21   15.32
 -12   7   1  387.92    8.21
 -12   7   1  374.82   11.20
  12   7  -1  427.06    6.74
 -12  -7   1  381.80    8.66
  11   7  -1  341.59    5.97
 -11   7   1  350.54    7.45
 -11  -7   1  324.11    7.43
  10   7  -1   10.80    1.42
 -10   7   1    9.97    1.87
 -10  -7   1    8.28    2.39
 -10   7   1   10.06    1.35
 -10   7   1   12.80    2.75
 -10  -7   1   12.86    2.08
   9   7  -1    8.09    1.33
  -9  -7   1   17.33    2.70
  -9   7   1   12.99    2.57
  -9   7   1   19.14    1.55
  -9  -7   1   12.29    1.71
  -9   7   1   13.31    1.85
   8   7  -1   19.66    1.76
  -8  -7   1   16.51    1.60
  -8  -7   1   15.44    2.33
   8  -7  -1   17.57    1.01
  -8   7   1   16.67    2.64
  -8   7   1   14.78    1.78
  -7  -7   1  903.98    8.77
   7   7  -1  868.89   10.00
  -7   7   1  947.15   14.05
  -7   7   1  893.61   10.46
   7  -7  -1  905.85    6.27
  -7  -7   1  926.55   13.30
  -6  -7   1   50.25    3.54
  -6  -7   1   58.36    2.15
   6  -7  -1   60.32    1.78
  -6   7   1   66.77    3.13
   6   7  -1   53.48    2.82
  -6   7   1   69.27    3.97
  -5  -7   1  254.68    3.71
  -5   7   1  252.31    6.98
   5  -7  -1  265.50    3.87
   5   7  -1  272.15    5.99
  -5   7   1  261.25    5.92
  -5  -7   1  257.93    6.69
   5   7  -1  251.80    3.13
  -4   7   1   82.98    3.65
   4  -7  -1   71.90    3.10
   4   7  -1   79.23    1.57
  -4  -7   1   87.60    1.94
  -4  -7   1   90.93    3.97
   4  -7  -1   86.98    2.72
   4   7  -1   83.15    3.64
  -4   7   1   85.40    4.06
  -3  -7   1  618.07    4.04
  -3  -7   1  611.44    9.26
   3  -7  -1  596.93    8.62
   3   7  -1  615.16    3.62
  -3   7   1  651.33   10.75
   3  -7  -1  641.08    8.05
  -3   7   1  593.88    9.28
   3   7  -1  634.13    9.95
   2  -7  -1   53.07    2.93
  -2  -7   1   57.87    1.00
  -2   7   1   56.95    3.63
   2  -7  -1   54.56    3.06
   2   7  -1   58.09    0.93
  -2   7   1   55.60    3.25
   2   7  -1   67.88    3.49
  -2  -7   1   59.40    2.88
  -1  -7   1  295.77    1.78
   1   7  -1  318.10    6.78
  -1  -7   1  326.19    5.94
  -1  -7   1  281.51    5.29
   1  -7  -1  311.45    7.22
   1  -7  -1  324.51    7.05
  -1   7   1  321.48    8.18
  -1   7   1  324.98    6.81
   0  -7   1   59.59    2.40
   0  -7  -1   47.12    3.11
   0   7  -1   45.59    2.70
   0   7   1   76.95    3.53
   0   7   1   69.36    4.56
   0   7  -1   52.23    2.64
   0  -7  -1   43.71    3.70
   0  -7   1   61.94    2.13
   1   7   1 3099.83    8.37
   1  -7   1 3239.84   15.09
   1   7   1 3364.19   21.44
   1  -7   1 3258.39   13.18
  -1   7  -1 3159.73   16.14
  -1  -7  -1 3318.74   21.96
  -1  -7  -1 3132.77    8.75
  -1   7  -1 2932.31   17.17
   2  -7   1 2117.35   10.73
  -2  -7  -1 2054.91    7.67
   2  -7   1 2017.24   11.33
  -2   7  -1 2133.08   13.97
  -2   7  -1 2077.60   13.11
   2   7   1 2053.73    7.31
   2   7   1 1970.76   16.26
  -2  -7  -1 2096.01   17.68
   3  -7   1  437.56    5.18
  -3  -7  -1  458.83    4.02
   3   7   1  424.80    7.68
   3  -7   1  439.95    5.17
  -3   7  -1  461.83    6.55
  -3  -7  -1  427.14    8.32
  -3   7  -1  443.35    6.25
   3   7   1  444.83    3.70
   4  -7   1  381.18    5.27
  -4  -7  -1  380.27    4.22
  -4  -7  -1  399.28    8.21
   4  -7   1  385.06    4.80
   4   7   1  368.76    3.76
  -4   7  -1  375.86    6.27
   4   7   1  398.88    7.46
  -4   7  -1  371.79    5.72
  -5  -7  -1  991.89    7.58
  -5   7  -1 1031.65    9.58
   5  -7   1 1116.12    8.00
   5   7   1 1148.57   12.51
  -5   7  -1 1119.24   11.53
  -5  -7  -1 1142.43   14.23
  -6   7  -1  660.43    7.97
  -6  -7  -1  682.89    7.03
  -6   7  -1  645.29    9.31
   6  -7   1  628.97    6.12
   6   7   1  641.34    9.38
  -7   7  -1   10.41    1.38
  -7   7  -1    9.56    1.84
  -7  -7  -1    9.39    1.35
   7   7   1    9.83    1.61
   8   7   1  214.76    5.63
  -8   7  -1  203.91    4.84
  -8  -7  -1  209.94    4.78
  -8   7  -1  209.17    6.13
  -9  -7  -1  627.52    8.80
  -9   7  -1  626.42    8.63
  -9   7  -1  612.91   10.91
   9   7   1  624.23    9.45
 -10   7  -1  862.75   10.57
  10   7   1  851.59   11.39
 -10   7  -1  847.25   13.75
 -10  -7  -1  885.37   11.41
 -11   7  -1   15.99    2.95
 -11  -7  -1   16.05    2.12
  11   7   1   14.79    2.02
 -11   7  -1   16.60    1.97
 -12  -7  -1  486.62    9.62
  12   7   1  502.30    9.16
 -12   7  -1  499.22   11.94
 -12   7  -1  476.02    8.79
 -13  -7  -1    1.26    2.22
 -13   7  -1   -0.31    1.69
 -13   7  -1    4.17    2.62
 -13  -7  -1    4.15    1.51
 -14   7  -1   97.12    6.40
 -14  -7  -1   97.81    3.38
 -14  -7  -1  102.50    5.51
 -15   7  -1   83.59    6.43
 -15  -7  -1   77.28    5.32
 -16  -7  -1  426.92   12.03
 -16   7  -1  435.12   14.33
 -17  -8   1   13.41    3.40
 -16   8   1   12.30    4.18
 -16  -8   1   14.52    3.20
 -15   8   1    8.38    3.60
 -15  -8   1    6.57    2.79
 -14   8   1    9.06    3.70
 -14  -8   1    8.39    2.62
 -13   8   1   38.18    4.92
 -13  -8   1   42.45    3.62
 -12   8   1   64.50    3.77
 -12   8   1   68.54    5.29
 -12  -8   1   62.23    3.83
  12   8  -1   75.72    3.08
  11   8  -1   15.39    1.70
 -11   8   1    9.28    2.00
 -11   8   1   12.94    3.25
 -11  -8   1   11.13    2.12
 -10   8   1  359.93    7.67
 -10   8   1  366.07   10.36
 -10   8   1  351.03    6.10
 -10  -8   1  341.36    6.95
  10   8  -1  377.24    6.71
  -9  -8   1  311.75    9.02
  -9   8   1  327.87    7.10
   9   8  -1  308.63    6.08
  -9   8   1  356.85    9.84
  -9  -8   1  321.30    6.33
   8  -8  -1  102.80    2.33
  -8  -8   1  111.63    5.25
   8   8  -1  110.67    3.84
  -8   8   1  114.58    4.25
  -8  -8   1  105.70    3.41
  -8   8   1  111.16    5.39
   7  -8  -1  235.35    3.51
  -7   8   1  242.29    6.04
   7   8  -1  208.93    5.31
  -7  -8   1  237.36    7.39
  -7  -8   1  238.24    4.52
  -7   8   1  246.01    7.49
  -6  -8   1 2323.97   21.63
   6  -8  -1 2371.40   11.67
  -6  -8   1 2324.92   12.56
   6   8  -1 2255.79   17.79
  -6   8   1 2356.67   22.20
  -6   8   1 2340.51   18.35
  -5  -8   1  283.76    3.92
  -5   8   1  277.56    6.69
   5   8  -1  331.25    7.11
  -5  -8   1  297.29    7.55
   5   8  -1  278.75    3.24
  -5   8   1  276.62    7.46
   5  -8  -1  292.82    4.48
  -4  -8   1  379.72    3.87
  -4   8   1  352.62    8.24
  -4  -8   1  365.15    7.95
   4  -8  -1  341.32    5.62
   4  -8  -1  335.74    6.60
  -4   8   1  329.91    7.37
   4   8  -1  342.32    3.24
   4   8  -1  365.90    7.81
   3  -8  -1   18.29    2.06
  -3   8   1   21.14    2.48
  -3  -8   1   15.34    0.80
  -3   8   1   18.90    2.51
   3   8  -1   21.11    0.75
   3  -8  -1   21.39    1.99
  -3  -8   1   27.49    2.36
   3   8  -1   27.59    2.67
  -2   8   1  907.90   12.35
   2  -8  -1  953.62   12.21
  -2  -8   1  949.51    4.16
  -2   8   1 1017.20   14.49
  -2  -8   1  871.58   10.90
   2   8  -1  933.70   12.83
   2   8  -1  916.77    3.81
   2  -8  -1  953.29   12.04
   1  -8  -1 1954.40   18.46
   1   8  -1 1921.71   17.58
  -1  -8   1 1973.68   15.39
  -1   8   1 1857.47   17.25
  -1  -8   1 1886.26   14.73
  -1  -8   1 1918.45    5.00
  -1   8   1 1835.67   20.85
   0  -8  -1 1271.16   16.76
   0   8  -1 1287.22   12.70
   0  -8   1 1206.10    9.80
   0   8   1 1290.75   14.38
   0  -8   1 1215.10   10.64
   0  -8  -1 1344.79   15.07
   0   8  -1 1303.66   13.38
   0   8   1 1241.21   17.57
   1  -8   1  476.68    6.34
   1   8   1  489.48    8.74
  -1  -8  -1  469.10    9.03
   1  -8   1  436.42    5.47
  -1   8  -1  512.37    7.30
  -1  -8  -1  473.13    3.52
   2  -8   1 2428.77   12.58
  -2   8  -1 2378.24   15.50
   2  -8   1 2456.01   13.52
   2   8   1 2544.39   19.72
  -2  -8  -1 2675.00   21.19
   2   8   1 2270.11    7.80
  -2  -8  -1 2409.26    8.55
  -2   8  -1 2367.36   16.12
   3   8   1  253.78    2.84
  -3   8  -1  267.58    5.47
  -3  -8  -1  279.06    7.11
  -3   8  -1  257.40    5.33
   3  -8   1  267.53    4.37
   3  -8   1  289.45    4.57
  -3  -8  -1  272.20    3.20
   3   8   1  270.81    6.58
   4  -8   1 1006.77    8.71
   4   8   1 1005.86   12.43
  -4  -8  -1  981.96    6.77
  -4  -8  -1  956.72   13.34
  -4   8  -1  991.72   10.83
  -4   8  -1  975.24   10.06
   4   8   1  918.08    5.94
   4  -8   1  975.21    8.09
  -5   8  -1  556.79    8.69
   5  -8   1  467.82    5.52
   5   8   1  512.28    8.84
  -5  -8  -1  474.91    9.84
  -5  -8  -1  529.97    5.59
   6   8   1   11.11    1.81
  -6   8  -1   14.29    1.61
  -6  -8  -1   16.23    1.37
  -6   8  -1   15.33    1.93
   7   8   1  271.32    6.45
  -7   8  -1  286.08    5.80
  -7  -8  -1  274.03    5.00
  -7   8  -1  296.26    7.37
  -8  -8  -1  178.96    4.44
   8   8   1  198.36    5.58
  -8   8  -1  181.89    5.99
  -8   8  -1  185.82    4.84
  -9  -8  -1  760.49    9.66
  -9   8  -1  755.14    9.86
   9   8   1  804.06   11.07
  -9   8  -1  779.47   12.86
 -10  -8  -1    3.48    1.68
 -10   8  -1    3.54    2.00
 -10   8  -1    6.23    1.66
  10   8   1    4.90    1.62
 -11   8  -1  152.50    5.07
  11   8   1  158.54    5.28
 -11  -8  -1  157.84    5.18
 -11   8  -1  164.71    6.84
 -12  -8  -1    7.40    2.12
 -12   8  -1    8.77    2.78
 -12   8  -1    8.27    1.94
  12   8   1   13.10    2.05
 -13   8  -1   96.36    6.27
 -13  -8  -1   96.84    5.16
 -13   8  -1   86.67    4.44
 -14   8  -1   39.80    4.73
 -14  -8  -1   42.49    3.92
 -14  -8  -1   42.90    2.47
 -15  -8  -1   84.16    5.42
 -15   8  -1   83.56    6.40
 -16  -8  -1   21.37    3.90
 -16   8  -1   27.55    4.99
 -17  -9   1   19.24    3.93
 -16  -9   1    4.32    3.03
 -16   9   1   -1.36    4.16
 -15  -9   1   39.26    3.97
 -15   9   1   43.90    5.63
 -14   9   1  548.53   15.42
 -14  -9   1  527.37   11.42
 -13  -9   1  314.05    8.42
 -13   9   1  312.74   11.17
  12   9  -1    4.51    1.34
 -12  -9   1    4.74    2.15
 -12   9   1    0.04    2.81
 -12   9   1    4.29    2.01
  11   9  -1   12.76    1.76
 -11  -9   1    4.05    1.71
 -11   9   1    7.59    2.87
 -11   9   1    6.46    1.99
 -10   9   1  406.57    6.80
  10   9  -1  417.68    7.33
 -10   9   1  394.55   11.00
 -10  -9   1  418.92    7.72
 -10   9   1  406.26    8.70
   9   9  -1   89.72    3.60
  -9  -9   1   91.46    5.44
  -9  -9   1   89.32    3.44
  -9   9   1   86.79    5.38
   9  -9  -1   95.66    2.38
  -9   9   1   98.54    4.31
   8  -9  -1   18.34    1.21
  -8  -9   1   16.28    1.63
  -8  -9   1   15.44    2.83
   8   9  -1   25.94    2.20
  -8   9   1   13.08    2.05
  -8   9   1   13.74    2.62
   7  -9  -1  933.98    7.63
  -7  -9   1  922.32    8.72
  -7   9   1  921.76   14.88
  -7   9   1  941.09   12.62
   7   9  -1  914.10   11.89
  -7  -9   1  907.47   14.49
   6   9  -1  782.59   11.31
  -6   9   1  877.60   14.11
  -6  -9   1  787.66   13.27
  -6  -9   1  839.21    7.47
   6  -9  -1  847.99    7.56
  -6   9   1  881.25   12.30
  -5   9   1   99.35    4.48
  -5  -9   1   97.15    4.76
   5   9  -1   92.73    4.21
   5   9  -1   88.99    1.87
  -5   9   1  106.05    5.14
  -5  -9   1   96.96    2.33
   5  -9  -1   96.34    2.93
  -4   9   1  582.24   10.47
  -4  -9   1  636.61   10.96
   4   9  -1  637.57   10.96
   4  -9  -1  604.91    8.16
  -4  -9   1  597.92    4.74
   4   9  -1  570.23    4.04
   4  -9  -1  576.12    9.10
  -4   9   1  617.00   11.43
   3   9  -1 1298.60   16.14
   3  -9  -1 1291.18   13.38
   3  -9  -1 1277.80   13.88
   3   9  -1 1319.17    5.41
  -3  -9   1 1242.89   14.44
  -3  -9   1 1312.24    6.00
  -3   9   1 1239.25   15.41
  -3   9   1 1279.99   16.73
  -2   9   1   16.62    3.10
  -2  -9   1   10.53    1.96
   2   9  -1   12.05    2.30
  -2   9   1   17.74    2.69
   2  -9  -1   16.42    2.30
   2   9  -1   13.25    0.58
  -2  -9   1   13.08    0.61
   2  -9  -1   17.14    2.41
  -1   9   1 3345.04   29.79
  -1  -9   1 3397.26   21.52
  -1  -9   1 3284.34   20.53
  -1   9   1 3277.22   24.88
   1  -9  -1 3388.34   25.43
   1   9  -1 3335.15   25.22
   1  -9  -1 3486.45   25.10
  -1  -9   1 3324.65    7.11
   0   9  -1  620.81   10.11
   0   9  -1  620.35    9.90
   0  -9   1  589.88    8.07
   0   9   1  669.93   11.05
   0  -9  -1  662.24   12.59
   0  -9  -1  676.41   11.19
   0  -9   1  608.24    7.67
  -1  -9  -1 1095.39   16.75
   1   9   1 1181.83   14.16
  -1  -9  -1 1022.74    5.41
   1  -9   1 1093.20    9.34
  -1  -9  -1 1096.65   14.65
  -1   9  -1 1098.20   12.01
   1  -9   1 1051.72   10.12
  -2   9  -1  164.65    4.45
   2   9   1  142.36    5.14
  -2   9  -1  164.18    4.89
   2  -9   1  150.61    3.48
   2  -9   1  143.41    3.66
  -2  -9  -1  162.40    2.32
   2   9   1  152.60    2.17
  -2  -9  -1  146.46    5.52
   3   9   1  330.67    3.35
  -3   9  -1  338.12    6.58
  -3  -9  -1  327.40    8.19
  -3  -9  -1  331.56    3.58
   3  -9   1  320.49    4.93
   3  -9   1  318.62    5.04
   3   9   1  332.39    7.61
  -3   9  -1  323.93    6.46
   4   9   1 2190.11   19.17
  -4  -9  -1 2157.94   20.87
  -4   9  -1 2081.54   16.14
  -4  -9  -1 2128.46   10.08
   4  -9   1 2119.37   12.59
   4  -9   1 2110.49   13.03
  -4   9  -1 2116.94   17.01
  -5  -9  -1  651.61    6.26
  -5   9  -1  654.17    9.84
   5   9   1  652.31   10.66
  -6  -9  -1 1428.17   10.00
  -6   9  -1 1442.82   13.45
  -6   9  -1 1417.31   15.15
   6   9   1 1462.10   15.61
  -7  -9  -1   74.70    2.67
   7   9   1   71.12    3.63
  -7   9  -1   79.72    4.20
  -7   9  -1   75.22    3.32
  -8  -9  -1  380.78    6.32
   8   9   1  342.70    7.59
  -8   9  -1  375.22    7.30
  -8   9  -1  361.77    8.59
  -9   9  -1  182.84    6.57
  -9   9  -1  183.57    5.33
   9   9   1  189.25    5.85
  -9  -9  -1  178.50    4.75
  10   9   1  239.29    6.45
 -10   9  -1  231.27    7.84
 -10   9  -1  231.90    6.30
 -10  -9  -1  215.47    5.61
 -11   9  -1    7.94    1.99
 -11   9  -1    9.67    2.77
 -11  -9  -1    8.87    2.01
  11   9   1    7.40    1.88
 -12   9  -1   79.88    5.53
 -12  -9  -1   84.03    4.19
 -12   9  -1   83.15    4.32
  12   9   1   91.42    4.26
 -13  -9  -1    7.02    2.21
  13   9   1    7.23    1.88
 -13   9  -1    3.78    2.15
 -13   9  -1    9.70    3.29
 -14  -9  -1    3.85    2.53
 -14  -9  -1    4.02    1.44
 -14   9  -1   -0.09    3.16
 -15   9  -1   26.18    4.48
 -15  -9  -1   25.99    3.60
 -16  -9  -1  111.75    6.56
 -16   9  -1  102.37    7.83
 -17 -10   1    1.44    2.96
 -16  10   1    6.80    4.27
 -16 -10   1    2.32    2.74
 -15  10   1  294.53   12.32
 -15 -10   1  293.26    9.14
 -14  10   1  208.01   10.09
 -14 -10   1  222.40    7.63
 -13 -10   1   91.29    4.67
 -13  10   1  101.35    6.94
 -12  10   1  512.89   10.88
 -12  10   1  512.70   13.77
  12  10  -1  533.77    8.43
 -12 -10   1  536.00   10.05
 -11 -10   1  499.01    8.99
  11  10  -1  564.20    8.90
 -11  10   1  488.19   10.27
 -11  10   1  491.43   12.97
 -10  10   1   10.27    2.35
 -10 -10   1   12.12    1.90
  10  10  -1   18.32    2.04
 -10  10   1   14.16    3.12
  -9  10   1 1858.08   19.12
  -9 -10   1 1973.81   15.15
   9  10  -1 1889.96   16.92
  -9  10   1 1923.81   23.85
  -8  10   1 1516.79   20.21
   8  10  -1 1596.21   16.04
   8 -10  -1 1422.66    9.63
  -8  10   1 1534.12   17.27
  -8 -10   1 1531.82   12.14
   7  10  -1   96.02    4.26
  -7  10   1   73.54    4.66
  -7 -10   1   74.74    2.64
   7 -10  -1   82.42    2.54
  -7 -10   1   89.84    5.06
  -7  10   1   81.89    4.21
   6 -10  -1  879.52    8.42
  -6  10   1  946.66   14.98
  -6 -10   1  887.25   14.51
  -6  10   1  911.49   13.56
   6  10  -1  939.82   13.14
  -6 -10   1  876.59    7.63
   5  10  -1 1000.44    6.12
  -5 -10   1  970.51   14.66
  -5  10   1 1002.77   14.23
  -5 -10   1  981.05    7.06
   5  10  -1 1054.80   14.27
   5 -10  -1 1022.10    9.96
  -5  10   1 1001.06   15.13
   4  10  -1  217.92    2.59
  -4  10   1  230.07    7.75
  -4 -10   1  212.54    2.90
   4  10  -1  195.07    6.73
   4 -10  -1  220.19    5.23
  -4  10   1  221.06    6.94
  -4 -10   1  213.09    6.83
   3  10  -1 1525.80   18.51
  -3 -10   1 1585.73   16.88
  -3 -10   1 1553.19    6.60
  -3  10   1 1585.13   18.53
  -3  10   1 1629.85   19.58
   3 -10  -1 1557.91   15.61
   3 -10  -1 1549.62   15.31
   3  10  -1 1579.31    6.13
   2  10  -1 2955.02   26.02
  -2  10   1 2918.53   27.91
  -2  10   1 2798.40   24.28
  -2 -10   1 2922.93    7.83
   2  10  -1 2926.27    7.59
  -2 -10   1 2890.93   21.51
   2 -10  -1 3009.66   23.15
   2 -10  -1 3088.45   23.30
   1 -10  -1  886.42   13.54
  -1  10   1  833.86   13.38
   1 -10  -1  836.56   13.48
  -1 -10   1  806.13    3.73
  -1 -10   1  922.78   12.07
  -1  10   1  842.36   15.84
   1  10  -1  895.51   14.09
  -1 -10   1  846.43   11.07
   0 -10  -1  384.97    9.19
   0 -10   1  340.88    6.66
   0  10   1  363.14    8.70
   0  10  -1  365.36    8.29
   0  10  -1  371.85    8.58
   0 -10  -1  368.21    9.81
   0 -10   1  345.49    6.35
  -1 -10  -1  150.82    6.01
  -1 -10  -1  134.99    6.78
   1 -10   1  162.92    4.05
   1  10   1  157.54    5.76
  -1  10  -1  108.05    4.47
  -1 -10  -1  146.04    2.17
  -1  10  -1  161.96    5.19
   1 -10   1  141.03    4.08
  -2 -10  -1    7.89    2.28
  -2  10  -1    6.04    1.79
  -2 -10  -1    6.40    0.70
   2  10   1    2.65    0.55
  -2  10  -1    9.72    1.95
   2 -10   1    2.81    1.03
   2  10   1    2.44    1.71
   2 -10   1    2.66    1.05
   3 -10   1   54.34    2.33
   3 -10   1   45.62    2.18
  -3  10  -1   53.81    3.10
  -3  10  -1   49.47    3.09
  -3 -10  -1   54.25    1.64
  -3 -10  -1   57.76    3.92
   3  10   1   56.80    3.63
   3  10   1   48.85    1.37
  -4  10  -1 4596.31   25.54
  -4 -10  -1 4710.68   14.96
  -4  10  -1 4730.50   26.92
   4 -10   1 4667.61   20.31
  -5 -10  -1 1450.84    9.20
  -5  10  -1 1455.77   15.40
   5  10   1 1456.70   16.27
  -6 -10  -1    6.40    1.03
  -6  10  -1    7.02    1.65
  -6  10  -1    5.96    1.78
   6  10   1    5.53    1.72
  -7  10  -1  480.06    8.50
   7  10   1  486.04    9.43
  -7  10  -1  477.86    9.80
  -7 -10  -1  488.79    6.49
  -8  10  -1    5.08    1.58
  -8 -10  -1    5.43    1.24
   8  10   1    2.90    1.50
  -8  10  -1    7.01    2.14
   9  10   1   40.37    3.07
  -9  10  -1   46.39    3.74
  -9  10  -1   46.34    3.12
  -9 -10  -1   42.28    2.49
  10  10   1  328.20    7.79
 -10  10  -1  287.89    8.84
 -10 -10  -1  290.36    6.42
 -10  10  -1  293.11    7.43
 -11  10  -1  404.90    9.06
  11  10   1  448.54    9.02
 -11  10  -1  409.10   11.06
 -11 -10  -1  430.03    8.45
 -12 -10  -1   13.94    2.49
 -12  10  -1   10.97    3.05
 -12  10  -1   12.37    2.25
  12  10   1   12.86    2.15
 -13  10  -1    6.13    3.10
 -13  10  -1    3.74    2.18
 -13 -10  -1    4.22    2.37
  13  10   1    5.24    2.04
 -14  10  -1   35.97    4.85
 -14 -10  -1   45.96    4.12
 -15  10  -1   61.94    6.36
 -15 -10  -1   64.97    4.85
 -16  10  -1   38.10    5.95
 -16 -10  -1   33.95    4.09
 -17 -11   1   14.15    3.53
 -16 -11   1   59.52    4.95
 -16  11   1   65.40    7.10
 -15  11   1   94.13    7.59
 -15 -11   1   96.19    5.50
 -14 -11   1   59.54    4.31
 -14  11   1   62.14    6.36
 -13  11   1   41.53    5.24
 -13 -11   1   36.65    3.24
 -12  11   1   50.55    4.14
  12  11  -1   56.70    3.20
 -12 -11   1   54.69    3.61
 -12  11   1   50.00    5.45
  11  11  -1  358.29    7.37
 -11  11   1  370.48   11.81
 -11 -11   1  375.90    7.88
 -11  11   1  372.00    9.78
 -10 -11   1    3.42    1.54
 -10  11   1    1.92    2.72
 -10  11   1    2.83    1.98
  10  11  -1    2.57    1.53
  -9  11   1 1318.65   20.46
   9  11  -1 1306.42   14.89
  -9  11   1 1361.46   17.60
  -9 -11   1 1304.64   12.29
  -8  11   1  449.95    9.99
   8  11  -1  389.84    8.48
  -8 -11   1  432.59    6.54
   8 -11  -1  388.78    5.45
  -8  11   1  463.80   11.80
  -7  11   1   23.55    3.14
   7 -11  -1   22.38    1.60
  -7  11   1   22.75    2.76
   7  11  -1   22.56    2.53
  -7 -11   1   22.89    1.63
   6 -11  -1  347.18    5.69
  -6  11   1  356.68    9.06
  -6 -11   1  353.89    9.49
  -6 -11   1  368.64    4.97
   6  11  -1  381.97    8.76
  -6  11   1  353.69    9.57
   5  11  -1 1717.74   19.05
  -5 -11   1 1600.80   19.43
  -5  11   1 1748.27   21.20
   5  11  -1 1632.46    7.77
  -5  11   1 1655.61   19.53
   5 -11  -1 1683.77   13.58
  -5 -11   1 1649.59    9.05
   4  11  -1   95.86    5.01
  -4 -11   1   89.99    1.99
  -4  11   1   91.63    4.91
   4 -11  -1   88.64    3.65
  -4 -11   1   84.43    4.61
   4  11  -1   88.07    1.70
  -4  11   1   93.65    5.36
   3  11  -1  461.76   10.78
  -3  11   1  471.75   11.60
   3 -11  -1  453.60    8.84
  -3 -11   1  451.92    9.67
   3  11  -1  458.71    3.41
  -3 -11   1  482.12    3.84
  -3  11   1  457.79   10.57
   2  11  -1   79.87    5.10
   2 -11  -1  104.78    4.80
  -2  11   1   98.79    5.73
  -2  11   1   90.87    5.10
  -2 -11   1   88.52    1.49
   2 -11  -1   92.12    4.47
  -2 -11   1   77.12    4.03
  -1  11   1   32.86    4.06
   1 -11  -1   26.71    3.03
  -1 -11   1   29.86    0.84
  -1  11   1   32.27    3.47
   1  11  -1   20.91    3.09
  -1 -11   1   22.81    2.47
  -1 -11   1   24.03    2.34
   1 -11  -1   25.47    3.05
   0 -11  -1  326.82    9.14
   0  11  -1  360.83    8.87
   0  11   1  344.19    9.09
   0 -11   1  327.87    6.86
   0  11  -1  355.64    8.97
   0 -11   1  353.74    6.91
   0 -11  -1  350.71    9.38
   1  11   1   10.51    2.42
  -1 -11  -1   25.76    1.02
  -1  11  -1   24.77    2.82
  -1 -11  -1   30.10    3.21
   1 -11   1    7.09    1.58
  -1  11  -1   34.50    3.10
   1 -11   1    8.56    1.40
  -1 -11  -1   26.09    3.73
  -2  11  -1  590.67    9.97
   2  11   1  547.14    4.31
   2 -11   1  577.07    7.51
  -2 -11  -1  558.61    4.56
   2  11   1  621.36   11.56
  -2 -11  -1  565.11   11.87
  -2  11  -1  587.96   10.58
   2 -11   1  552.91    7.76
  -3 -11  -1  244.32    3.26
  -3  11  -1  224.28    6.10
   3  11   1  245.52    7.38
  -3  11  -1  238.10    6.66
   3 -11   1  229.71    4.80
  -4  11  -1  470.34    9.18
  -4  11  -1  488.36    9.19
   4 -11   1  455.10    6.65
  -4 -11  -1  508.68    5.08
   4  11   1  529.48   10.34
  -5  11  -1   57.51    3.44
  -5 -11  -1   57.34    2.00
  -5  11  -1   58.10    3.53
   5  11   1   52.14    3.61
  -6 -11  -1   52.47    2.11
   6  11   1   48.01    3.41
  -6  11  -1   45.93    3.10
  -6  11  -1   52.87    3.52
  -7  11  -1  274.55    7.05
  -7 -11  -1  262.20    4.79
  -7  11  -1  265.85    7.69
   7  11   1  264.24    7.38
   8  11   1   64.55    3.75
  -8  11  -1   51.14    3.86
  -8  11  -1   50.29    3.33
  -8 -11  -1   48.48    2.51
  -9  11  -1   49.48    3.42
  -9 -11  -1   47.68    2.73
  -9  11  -1   51.40    4.11
   9  11   1   54.32    3.56
  10  11   1  100.06    4.68
 -10 -11  -1   94.19    3.86
 -10  11  -1   90.61    5.36
 -10  11  -1   91.86    4.69
  11  11   1   85.05    4.24
 -11  11  -1   75.21    5.48
 -11  11  -1   78.25    4.52
 -11 -11  -1   75.27    3.76
 -12 -11  -1    1.73    1.73
 -12  11  -1    3.34    2.91
  12  11   1    0.91    1.62
 -12  11  -1    5.73    2.28
 -13 -11  -1  162.59    6.13
 -13  11  -1  135.58    6.21
 -13  11  -1  148.75    7.91
  13  11   1  148.78    5.66
 -14 -11  -1  278.70    8.32
 -14  11  -1  281.26   11.24
 -15 -11  -1  141.95    6.71
 -15  11  -1  151.73    9.44
 -16  11  -1    6.08    4.03
 -16 -11  -1   -0.10    2.82
 -16 -12   1   73.19    5.45
 -16  12   1   72.37    7.43
 -15 -12   1   20.03    3.24
 -15  12   1   24.38    5.10
 -14  12   1  470.70   15.64
 -14 -12   1  458.17   10.54
 -13 -12   1  222.50    7.06
 -13  12   1  211.09   10.19
 -12  12   1  155.22    8.23
 -12 -12   1  169.59    5.62
 -12  12   1  165.49    7.02
  12  12  -1  192.63    5.75
 -11  12   1   58.58    5.29
  11  12  -1   45.36    3.03
 -11 -12   1   49.42    3.22
 -11  12   1   51.80    4.30
  10  12  -1  254.08    6.90
 -10 -12   1  242.46    5.81
 -10  12   1  235.94    9.33
 -10  12   1  239.94    8.02
  -9  12   1   85.16    5.84
  -9 -12   1   83.51    3.29
   9  12  -1   95.58    4.49
  -9  12   1   83.31    4.81
  -8  12   1  446.14   10.51
  -8  12   1  444.53   11.67
   8  12  -1  477.23    9.78
  -8 -12   1  473.68    6.80
  -7  12   1   17.73    2.61
  -7  12   1   18.98    3.11
   7  12  -1   27.09    2.80
  -7 -12   1   14.53    1.41
   6  12  -1 1966.54   20.85
  -6  12   1 1911.71   23.02
  -6  12   1 1922.17   22.08
   6 -12  -1 1790.80   13.54
  -6 -12   1 1852.90   10.84
  -5  12   1   34.80    3.47
   5  12  -1   42.75    3.58
  -5  12   1   32.57    3.97
  -5 -12   1   30.98    1.44
   5  12  -1   27.58    1.13
   5 -12  -1   30.96    2.25
   4  12  -1 1470.89   19.46
  -4 -12   1 1443.02   18.25
  -4 -12   1 1451.85    7.64
   4 -12  -1 1422.47   14.56
  -4  12   1 1491.52   19.61
   4  12  -1 1456.90    6.79
  -4  12   1 1526.38   21.06
  -3  12   1  264.38    8.45
   3  12  -1  286.64    8.97
  -3 -12   1  265.56    2.90
   3 -12  -1  252.36    6.87
   3  12  -1  265.76    2.72
  -3 -12   1  218.46    7.13
  -3  12   1  278.69    9.34
  -2 -12   1  212.68    6.54
  -2  12   1  219.46    7.81
   2 -12  -1  231.12    7.20
   2  12  -1  250.16    8.75
  -2 -12   1  236.40    2.46
  -2  12   1  243.47    9.13
  -2 -12   1  241.89    7.73
   2 -12  -1  231.98    7.22
   1  12  -1   15.35    2.98
  -1 -12   1   17.90    0.72
  -1 -12   1   16.87    2.21
   1 -12  -1   10.44    2.64
   1 -12  -1   12.02    2.63
  -1 -12   1   15.89    2.31
  -1  12   1   23.55    3.22
  -1  12   1   24.18    4.07
   0 -12  -1 1693.54   20.61
   0 -12   1 1592.48   15.44
   0 -12  -1 1563.53    7.37
   0  12  -1 1664.44   19.58
   0  12   1 1749.99   20.86
   0  12  -1 1741.33   20.79
   0 -12  -1 1643.75   20.99
   0 -12   1 1691.10   15.50
   1 -12   1  244.35    5.40
  -1  12  -1  227.49    7.30
   1  12   1  282.34    8.38
  -1 -12  -1  243.35    9.29
  -1 -12  -1  234.01    2.94
  -1  12  -1  234.58    7.16
  -2  12  -1  366.85    8.92
  -2 -12  -1  358.70    3.76
   2  12   1  384.76    9.66
   2  12   1  331.07    3.47
   2 -12   1  367.27    6.61
  -2  12  -1  374.67    8.46
   3 -12   1  798.16    9.15
   3  12   1  840.81   14.03
  -3  12  -1  742.63   12.43
  -3  12  -1  831.28   12.37
  -3 -12  -1  793.13    5.95
   4  12   1  159.08    6.13
  -4  12  -1  168.77    5.95
  -4  12  -1  168.83    5.75
  -4 -12  -1  174.02    3.08
   5  12   1  462.12   10.24
  -5  12  -1  451.26    9.61
  -5  12  -1  439.58    9.25
  -5 -12  -1  455.60    5.34
  -6  12  -1  161.34    6.13
   6  12   1  188.73    6.55
  -6  12  -1  169.37    5.93
  -6 -12  -1  168.85    3.61
  -7  12  -1  608.94   10.81
   7  12   1  650.36   11.81
  -7 -12  -1  635.06    7.36
  -7  12  -1  627.17   12.00
  -8  12  -1   51.20    4.04
  -8  12  -1   46.81    3.44
   8  12   1   45.60    3.41
  -8 -12  -1   49.39    2.44
  -9  12  -1  156.80    7.02
   9  12   1  134.16    5.39
  -9 -12  -1  132.39    4.16
  -9  12  -1  129.23    5.33
 -10  12  -1    5.68    2.22
  10  12   1   10.44    2.18
 -10  12  -1    4.72    2.56
 -10 -12  -1    6.33    1.80
 -11 -12  -1   82.95    3.87
 -11  12  -1   74.59    4.58
  11  12   1   88.03    4.52
 -11  12  -1   73.95    5.49
 -12 -12  -1    3.57    2.02
 -12  12  -1    4.44    3.00
 -12  12  -1    4.03    2.20
  12  12   1    4.07    1.90
 -13  12  -1  123.09    6.20
  13  12   1  134.63    5.61
 -13  12  -1  137.99    8.09
 -13 -12  -1  128.26    5.42
 -14 -12  -1    3.21    2.55
 -14  12  -1    4.50    3.45
 -15 -12  -1  151.61    6.99
 -15  12  -1  142.82    8.95
 -16  12  -1   18.49    4.75
 -16 -12  -1   14.16    3.40
 -16 -13   1   25.80    3.76
 -16  13   1   23.28    5.61
 -15 -13   1   56.22    4.55
 -15  13   1   70.37    7.17
 -14  13   1   74.65    7.03
 -14 -13   1   71.37    4.56
 -13 -13   1   59.52    3.97
 -13  13   1   64.82    6.55
 -12  13   1  454.69   14.26
 -12 -13   1  481.23    9.32
 -12  13   1  466.57   12.18
  12  13  -1  533.21    9.88
 -11  13   1    8.25    3.56
 -11 -13   1   13.09    2.18
 -11  13   1    9.18    2.91
  11  13  -1   16.94    2.22
  10  13  -1   30.21    2.89
 -10  13   1   23.56    3.35
 -10 -13   1   26.60    2.33
 -10  13   1   24.64    3.88
  -9  13   1  525.95   13.47
  -9 -13   1  533.17    7.85
   9  13  -1  506.45   10.35
  -9  13   1  520.96   12.18
  -8 -13   1  376.33    6.05
  -8  13   1  400.10   11.51
  -8  13   1  408.06   10.79
   8  13  -1  392.83    9.40
   7  13  -1   28.19    2.94
  -7  13   1   24.93    3.78
  -7 -13   1   22.41    1.60
  -7  13   1   18.53    2.92
  -6  13   1   14.64    3.09
   6  13  -1   28.10    3.28
  -6  13   1   17.63    2.90
  -6 -13   1   22.90    1.43
   5  13  -1  227.14    7.78
  -5 -13   1  227.36    3.48
  -5  13   1  230.57    8.67
  -5  13   1  226.48    8.12
  -4  13   1  363.57   10.41
  -4 -13   1  378.15    3.97
  -4  13   1  374.85   10.97
   4  13  -1  347.74    9.85
   4  13  -1  369.27    3.53
  -3 -13   1  211.95    2.68
  -3  13   1  207.86    7.84
   3  13  -1  209.88    2.53
   3  13  -1  208.98    7.92
  -3  13   1  198.50    8.53
  -2  13   1 1942.46   23.37
   2  13  -1 2018.60   24.43
  -2  13   1 1978.89   25.86
  -2 -13   1 1955.23    7.28
  -2 -13   1 2017.34   22.22
  -1 -13   1  438.50    9.35
   1  13  -1  435.74   11.59
  -1 -13   1  435.70    3.31
  -1  13   1  444.20   13.16
  -1  13   1  424.27   11.05
   0 -13  -1  273.45    3.25
   0  13   1  250.82    8.57
   0  13  -1  286.84    8.89
   0 -13  -1  233.92    8.54
   0 -13   1  281.68    6.61
   0  13  -1  300.52    9.52
   1 -13   1  394.75    7.11
  -1 -13  -1  372.00    3.82
  -1  13  -1  336.10    9.72
   1  13   1  317.39    9.37
  -1  13  -1  378.31    9.51
  -2 -13  -1   37.22    1.37
  -2  13  -1   35.74    3.29
  -2  13  -1   32.36    3.45
   2 -13   1   31.86    2.29
   2  13   1   41.08    3.73
  -3  13  -1    8.06    2.30
   3 -13   1    5.90    1.45
  -3  13  -1    4.20    1.99
   3  13   1    3.99    2.27
  -3 -13  -1    5.72    0.95
  -4  13  -1   30.21    3.22
   4  13   1   29.69    3.12
  -4 -13  -1   31.24    1.47
  -4  13  -1   40.03    3.39
  -5  13  -1  105.22    5.02
  -5 -13  -1  109.45    2.75
   5  13   1  119.81    5.70
  -5  13  -1  111.86    5.17
   6  13   1   10.70    2.31
  -6  13  -1   13.82    2.41
  -6 -13  -1   11.64    1.26
  -6  13  -1    8.57    2.16
   7  13   1  866.25   14.17
  -7  13  -1  879.10   13.67
  -7 -13  -1  870.60    8.71
  -7  13  -1  857.06   14.83
   8  13   1  287.97    8.20
  -8  13  -1  259.94    8.48
  -8  13  -1  268.04    7.81
  -8 -13  -1  262.97    5.24
  -9  13  -1    9.63    2.39
   9  13   1   19.03    2.54
  -9  13  -1    8.11    2.38
  -9 -13  -1    9.88    1.62
 -10  13  -1   14.56    3.09
 -10 -13  -1   10.90    1.86
 -10  13  -1   14.77    2.64
  10  13   1   10.66    2.29
 -11 -13  -1   64.41    3.48
  11  13   1   64.96    4.18
 -11  13  -1   69.09    4.63
 -11  13  -1   69.75    5.41
 -12  13  -1    0.26    2.25
 -12 -13  -1    2.66    1.92
  12  13   1    0.75    1.80
 -12  13  -1    2.95    2.95
 -13 -13  -1   69.80    4.37
 -13  13  -1   59.27    4.79
  13  13   1   72.58    4.42
 -13  13  -1   64.97    6.00
 -14 -13  -1  150.68    6.45
 -14  13  -1  139.62    8.65
 -15  13  -1   29.80    5.21
 -15 -13  -1   26.04    3.56
 -16 -14   1  219.36    8.56
 -16  14   1  233.89   12.58
 -15  14   1    4.95    4.09
 -15 -14   1    2.48    2.45
 -14  14   1  120.36    8.43
 -14 -14   1  125.75    5.80
 -13 -14   1   51.65    3.80
 -13  14   1   53.59    5.90
 -12  14   1    4.93    3.19
 -12  14   1    5.46    2.74
 -12 -14   1    7.07    1.96
  12  14  -1    3.52    1.73
  11  14  -1  633.57   11.27
 -11 -14   1  604.84    9.66
 -11  14   1  604.91   15.89
 -11  14   1  637.30   14.65
 -10  14   1  802.14   17.72
  10  14  -1  851.88   13.62
 -10 -14   1  810.94   10.62
 -10  14   1  829.98   16.50
   9  14  -1   19.66    2.62
  -9  14   1   29.91    3.90
  -9  14   1   18.05    3.33
  -9 -14   1   15.71    1.81
   8  14  -1   91.22    4.96
  -8  14   1  105.35    6.36
  -8 -14   1   91.09    3.12
  -8  14   1  102.56    5.86
  -7  14   1   36.35    4.05
   7  14  -1   39.95    3.53
  -7 -14   1   35.88    1.97
  -7  14   1   38.09    4.55
   6  14  -1  231.20    8.11
  -6 -14   1  212.81    3.77
  -6  14   1  220.16    9.03
  -6  14   1  212.47    8.24
   5  14  -1  135.12    6.43
  -5  14   1  157.37    7.20
  -5  14   1  159.81    7.52
  -5 -14   1  153.40    2.91
   4  14  -1 3425.69   31.81
  -4  14   1 3590.57   33.49
  -4 -14   1 3496.07   12.20
  -4  14   1 3524.58   35.15
   4  14  -1 3438.12   10.97
  -3  14   1 3637.43   36.68
   3  14  -1 3690.51   33.47
   3  14  -1 3497.07   10.44
  -3 -14   1 3564.83   10.97
  -3  14   1 3672.97   33.67
  -2  14   1  178.36    8.55
  -2 -14   1  152.03    2.14
   2  14  -1  150.51    7.30
  -2 -14   1  127.59    6.11
  -2  14   1  151.62    7.03
  -1 -14   1   15.83    0.82
  -1  14   1   11.25    3.67
  -1  14   1   14.93    3.17
  -1 -14   1   16.46    2.60
   1  14  -1   14.76    3.12
   0  14  -1 1050.78   17.07
   0  14  -1 1074.61   18.47
   0 -14   1 1046.51   13.28
   0  14   1 1009.29   17.31
   0 -14  -1 1003.14    6.39
  -1  14  -1  270.12    9.14
  -1  14  -1  292.23    9.13
  -1 -14  -1  262.77    3.32
   1  14   1  246.17    8.68
   1 -14   1  267.75    6.15
   2 -14   1  939.64   11.20
  -2 -14  -1  969.11    6.56
   2  14   1 1048.30   16.86
  -2  14  -1 1020.07   15.80
  -2  14  -1  992.17   16.33
  -3 -14  -1 4689.87   15.00
   3 -14   1 4628.50   24.08
  -3  14  -1 4795.47   34.69
   3  14   1 4901.89   36.20
  -3  14  -1 4574.78   32.88
  -4  14  -1   20.15    2.69
  -4  14  -1   16.84    2.73
  -4 -14  -1   17.31    1.25
   4  14   1   12.37    2.48
  -5 -14  -1   13.88    1.23
   5  14   1   10.08    2.41
  -5  14  -1    9.81    2.42
  -5  14  -1   13.45    2.51
  -6  14  -1  538.28   11.43
   6  14   1  559.37   11.98
  -6 -14  -1  531.56    6.38
  -6  14  -1  523.62   10.96
  -7 -14  -1  719.61    7.93
  -7  14  -1  738.68   13.34
   7  14   1  754.69   13.75
  -7  14  -1  720.19   13.79
  -8 -14  -1  374.10    6.37
  -8  14  -1  374.81    9.71
  -8  14  -1  357.55   10.33
  -9 -14  -1  799.89    9.89
  -9  14  -1  800.62   14.33
  -9  14  -1  784.33   15.81
   9  14   1  792.63   13.66
  10  14   1   13.79    2.59
 -10  14  -1   18.46    3.18
 -10  14  -1   15.83    3.33
 -10 -14  -1   17.64    2.14
 -11 -14  -1   34.79    2.95
  11  14   1   35.85    3.43
 -11  14  -1   34.77    4.25
 -11  14  -1   35.72    3.71
  12  14   1  294.78    8.44
 -12  14  -1  257.87   10.32
 -12 -14  -1  260.96    7.01
 -12  14  -1  284.98    9.46
 -13  14  -1  268.95   11.00
 -13  14  -1  256.15    9.59
  13  14   1  278.58    8.12
 -13 -14  -1  271.03    7.71
 -14 -14  -1    8.28    2.77
 -14  14  -1    9.65    3.79
 -15 -14  -1  145.43    6.65
 -15  14  -1  137.74    9.62
 -16 -15   1    5.71    3.13
 -15  15   1  345.55   14.86
 -15 -15   1  310.12    9.42
 -14 -15   1   81.63    4.95
 -14  15   1   80.45    7.23
 -13  15   1  113.95    8.16
 -13 -15   1  117.30    5.13
 -12  15   1   62.55    5.49
 -12 -15   1   68.26    3.89
 -12  15   1   72.06    6.48
  12  15  -1   62.41    4.04
  11  15  -1   72.28    4.29
 -11 -15   1   61.99    3.46
 -11  15   1   59.45    5.82
 -11  15   1   49.89    4.87
  10  15  -1   27.99    3.19
 -10 -15   1   24.84    2.21
 -10  15   1   17.27    3.62
 -10  15   1   21.80    3.61
   9  15  -1  187.08    7.02
  -9 -15   1  197.81    4.93
  -9  15   1  197.90    9.03
  -9  15   1  210.53    8.80
  -8  15   1  466.24   12.40
  -8 -15   1  447.13    6.66
  -8  15   1  445.10   13.07
   8  15  -1  454.70   10.80
  -7  15   1  470.74   12.49
   7  15  -1  455.19   11.14
  -7 -15   1  457.79    6.06
  -7  15   1  455.83   13.36
  -6 -15   1  268.25    4.24
  -6  15   1  281.34   10.10
  -6  15   1  275.83    9.60
   6  15  -1  274.84    9.01
   5  15  -1   37.74    3.82
  -5 -15   1   29.73    1.46
  -5  15   1   21.48    3.44
  -5  15   1   29.04    4.00
  -4  15   1   80.50    5.97
  -4 -15   1   92.29    2.11
   4  15  -1  115.76    6.46
  -4  15   1   86.26    5.82
   4  15  -1   89.57    1.88
   3  15  -1   64.03    5.20
  -3 -15   1   51.84    1.49
  -3 -15   1   70.41    5.05
  -3  15   1   50.43    4.77
  -3  15   1   42.28    4.64
   2  15  -1   18.00    3.52
  -2  15   1   17.35    3.25
  -2  15   1   15.37    4.04
  -2 -15   1   25.24    1.05
  -2 -15   1   20.26    3.19
  -1  15   1  460.73   12.41
  -1 -15   1  405.70    9.65
  -1  15   1  474.89   14.41
   1  15  -1  426.97   12.38
  -1 -15   1  491.64    3.88
   0  15  -1  322.07   10.31
   0 -15  -1  358.15    3.91
   0 -15   1  317.91    7.70
   0  15  -1  348.40   11.32
  -1  15  -1   12.77    2.97
   1 -15   1   16.89    2.06
  -1 -15  -1   15.30    1.00
   1  15   1   28.13    3.56
  -1  15  -1   16.46    3.03
   2 -15   1  168.32    5.11
   2  15   1  199.43    8.05
  -2  15  -1  187.79    7.82
  -2 -15  -1  187.58    3.01
  -2  15  -1  164.83    7.16
   3  15   1 1491.08   20.80
  -3  15  -1 1550.62   20.07
  -3 -15  -1 1506.17    8.75
  -3  15  -1 1584.39   21.11
   4  15   1   86.50    5.34
  -4  15  -1   92.64    5.47
  -4 -15  -1   90.01    2.39
  -4  15  -1   97.91    5.30
  -5 -15  -1   85.57    2.48
  -5  15  -1   91.18    5.31
  -5  15  -1   95.39    5.31
   5  15   1   78.05    4.93
  -6 -15  -1  337.42    5.12
  -6  15  -1  355.71    9.87
   6  15   1  380.26   10.23
  -6  15  -1  328.25    9.35
  -7  15  -1  210.20    7.95
  -7 -15  -1  199.40    4.33
   7  15   1  218.82    7.85
  -7  15  -1  210.10    7.79
  -8 -15  -1  138.82    3.94
  -8  15  -1  152.70    7.20
   8  15   1  140.40    6.24
  -8  15  -1  138.77    6.47
  -9 -15  -1  149.73    4.37
   9  15   1  148.56    6.34
  -9  15  -1  148.97    6.69
  -9  15  -1  162.05    7.72
 -10 -15  -1   84.92    3.70
 -10  15  -1   91.85    6.15
 -10  15  -1   88.34    5.46
  10  15   1   82.93    4.83
 -11  15  -1    2.92    2.60
 -11  15  -1    3.02    2.91
 -11 -15  -1    2.68    1.73
  11  15   1    3.10    2.15
  12  15   1   63.92    4.32
 -12  15  -1   53.09    5.71
 -12 -15  -1   55.96    3.55
 -12  15  -1   59.05    5.05
  13  15   1   67.09    4.37
 -13 -15  -1   66.31    4.10
 -13  15  -1   63.83    6.21
 -13  15  -1   60.48    5.34
 -14 -15  -1   45.82    3.99
 -14  15  -1   51.17    6.30
 -15 -15  -1  101.83    5.82
 -15  15  -1  102.06    8.55
 -16 -16   1   24.55    3.89
 -15 -16   1    4.93    2.63
 -15  16   1    6.31    4.79
 -14 -16   1   46.69    4.01
 -14  16   1   47.91    6.19
 -13 -16   1    1.75    1.94
 -13  16   1    3.46    3.78
 -12  16   1  356.86   13.48
 -12  16   1  343.45   11.96
 -12 -16   1  327.53    7.71
  12  16  -1  340.41    8.83
 -11  16   1    7.54    3.30
 -11 -16   1    5.50    1.77
 -11  16   1    5.49    3.44
  11  16  -1    6.13    2.46
 -10  16   1  226.79    9.57
  10  16  -1  274.27    8.54
 -10 -16   1  229.17    5.68
 -10  16   1  234.74   10.52
  -9  16   1   17.02    3.54
   9  16  -1   15.86    2.88
  -9 -16   1   16.08    1.82
  -9  16   1   16.05    3.85
  -8  16   1 2047.04   26.80
  -8  16   1 2011.39   28.97
  -8 -16   1 2049.76   13.99
   8  16  -1 2029.65   23.81
   7  16  -1   23.52    3.20
  -7  16   1   20.67    3.59
  -7  16   1   25.82    4.17
  -7 -16   1   22.87    1.61
   6  16  -1  420.60   11.40
  -6 -16   1  409.95    5.29
  -6  16   1  410.26   12.82
  -6  16   1  425.52   12.32
  -5  16   1   11.40    3.34
  -5  16   1   18.31    3.66
   5  16  -1   10.87    2.88
  -5 -16   1   15.91    1.17
  -4 -16   1  694.70    5.62
  -4  16   1  661.51   15.41
   4  16  -1  668.34   15.23
  -4  16   1  688.75   17.01
  -3  16   1   50.32    4.70
  -3 -16   1   48.24    1.48
   3  16  -1   41.81    4.74
  -3  16   1   60.43    5.76
  -3 -16   1   43.85    4.58
  -2 -16   1 2061.74    8.37
  -2 -16   1 2136.24   25.08
  -2  16   1 2214.32   31.47
   2  16  -1 2285.22   29.40
  -2  16   1 2152.39   27.24
  -1 -16   1  562.73   11.60
  -1  16   1  602.70   14.47
   1  16  -1  577.96   14.99
  -1  16   1  572.82   16.20
  -1 -16   1  577.26    4.29
   0  16   1  100.05    6.08
   0 -16   1   98.11    4.56
   0 -16  -1   96.13    2.19
   0  16  -1  104.53    6.61
  -1 -16  -1  366.14    4.12
  -1  16  -1  368.41   11.42
   1 -16   1  365.12    7.71
   1  16   1  369.10   11.17
  -1  16  -1  399.59   12.27
  -2 -16  -1  615.07    5.50
  -2  16  -1  645.12   14.51
  -2  16  -1  616.97   13.77
   2 -16   1  557.47    9.48
   2  16   1  637.63   14.36
   3  16   1   57.03    4.68
  -3 -16  -1   50.34    1.77
  -3  16  -1   51.04    4.66
  -3  16  -1   46.53    4.35
   4  16   1 1044.04   17.64
  -4  16  -1 1036.84   17.27
  -4 -16  -1  998.80    7.70
  -4  16  -1 1085.34   18.08
  -5 -16  -1  203.77    3.85
   5  16   1  211.03    7.97
  -5  16  -1  194.77    7.87
  -5  16  -1  217.55    8.22
  -6 -16  -1  459.04    6.03
  -6  16  -1  463.05   11.78
   6  16   1  498.91   12.22
  -6  16  -1  486.78   12.16
   7  16   1  222.88    8.09
  -7  16  -1  200.19    8.01
  -7 -16  -1  207.61    4.45
  -7  16  -1  215.21    8.29
  -8 -16  -1   73.34    2.99
  -8  16  -1   82.50    5.65
   8  16   1   78.74    5.01
  -8  16  -1   71.61    5.21
  -9  16  -1  128.66    6.71
   9  16   1  151.66    6.68
  -9  16  -1  134.36    7.13
  -9 -16  -1  139.37    4.25
 -10 -16  -1   65.82    3.36
  10  16   1   69.24    4.69
 -10  16  -1   69.97    5.25
 -10  16  -1   67.82    5.77
  11  16   1  336.44    9.47
 -11 -16  -1  318.27    7.26
 -11  16  -1  319.41   11.52
 -11  16  -1  327.72   10.92
 -12  16  -1    7.07    2.71
 -12 -16  -1   12.37    2.41
  12  16   1   13.49    2.93
 -12  16  -1    8.90    3.60
 -13 -16  -1  280.53    7.96
 -13  16  -1  263.70   10.46
 -13  16  -1  279.28   12.09
  13  16   1  301.64    8.98
 -14  16  -1    6.97    4.00
 -14 -16  -1    1.04    2.24
 -15  16  -1  121.67    9.00
 -15 -16  -1  111.64    6.00
 -16 -17   1    3.23    2.94
 -15  17   1   74.51    8.06
 -15 -17   1   79.25    5.12
 -14  17   1   28.40    5.40
 -14 -17   1   32.57    3.65
 -13 -17   1   74.93    4.33
 -13  17   1   71.41    7.18
 -12  17   1   52.17    5.53
  12  17  -1   56.13    4.11
 -12  17   1   61.19    6.63
 -12 -17   1   59.51    3.69
 -11 -17   1    1.18    1.70
 -11  17   1   -0.89    3.68
 -11  17   1   -0.86    2.94
  11  17  -1    1.38    2.30
  10  17  -1   56.01    4.59
 -10  17   1   61.85    5.99
 -10 -17   1   53.65    2.91
 -10  17   1   53.81    5.33
  -9 -17   1   10.62    1.59
   9  17  -1    6.52    2.44
  -9  17   1   14.08    3.70
  -9  17   1   14.87    4.18
   8  17  -1  377.47   10.87
  -8 -17   1  349.90    5.92
  -8  17   1  326.80   12.34
  -8  17   1  323.65   11.33
  -7  17   1  137.76    7.45
  -7 -17   1  142.28    3.54
  -7  17   1  133.16    8.15
   7  17  -1  149.86    7.15
  -6  17   1  269.68   10.35
   6  17  -1  268.73    9.45
  -6 -17   1  277.46    4.37
  -6  17   1  268.85   10.96
  -5 -17   1  282.61    4.08
  -5  17   1  274.47   11.26
   5  17  -1  297.14   10.36
  -5  17   1  284.27   10.66
  -4  17   1   53.02    5.50
   4  17  -1   75.71    5.74
  -4  17   1   52.86    5.22
  -4 -17   1   59.83    1.83
  -3  17   1   22.51    4.21
  -3  17   1   19.66    3.75
  -3 -17   1   19.77    1.08
   3  17  -1   17.20    3.57
  -2 -17   1  421.72   11.32
  -2  17   1  429.62   14.65
  -2 -17   1  432.94    4.00
  -2  17   1  449.17   13.18
   2  17  -1  452.09   13.79
  -1 -17   1  170.40    6.73
  -1  17   1  183.38    8.58
   1  17  -1  189.97    9.04
  -1  17   1  191.31   10.12
  -1 -17   1  189.12    2.56
   0 -17  -1  162.59    2.86
   0  17   1  168.95    8.08
   0 -17   1  171.12    2.48
   0 -17   1  149.34    5.75
   0  17  -1  164.25    8.39
  -1  17  -1  235.57    9.47
  -1 -17  -1  253.36    3.53
  -1  17  -1  247.52   10.11
   1  17   1  275.31    9.96
   1 -17   1  212.49    6.24
   2  17   1   57.11    4.93
  -2  17  -1   71.15    5.43
  -2  17  -1   63.17    5.36
  -2 -17  -1   62.36    1.88
   3  17   1  202.15    8.43
  -3 -17  -1  228.75    3.63
  -3  17  -1  222.25    8.78
  -3  17  -1  233.64    9.46
  -4  17  -1   10.11    2.57
  -4  17  -1   10.33    2.63
  -4 -17  -1   10.67    1.22
   4  17   1    9.47    3.02
  -5  17  -1   26.15    3.92
  -5  17  -1   25.62    3.55
  -5 -17  -1   23.74    1.60
   5  17   1   24.79    3.46
   6  17   1   22.49    3.21
  -6 -17  -1   18.79    1.52
  -6  17  -1   14.51    3.20
  -6  17  -1   23.78    3.60
  -7  17  -1   77.01    5.47
  -7 -17  -1   72.92    2.81
   7  17   1   95.58    5.79
  -7  17  -1   82.28    5.60
  -8  17  -1   88.13    5.96
  -8 -17  -1   94.30    3.39
  -8  17  -1   92.10    5.89
   8  17   1  100.16    5.87
   9  17   1   87.99    5.31
  -9  17  -1   93.96    6.03
  -9 -17  -1   90.82    3.54
  -9  17  -1   97.05    6.31
 -10  17  -1   27.07    3.95
 -10  17  -1   20.78    3.77
 -10 -17  -1   22.68    2.27
  10  17   1   23.93    3.27
  11  17   1    3.74    2.20
 -11 -17  -1    4.84    1.99
 -11  17  -1    3.39    3.16
 -11  17  -1    6.52    3.21
 -12 -17  -1    0.93    1.87
 -12  17  -1    2.65    3.34
  12  17   1    1.15    2.21
 -12  17  -1   -2.20    3.02
 -13  17  -1   67.62    6.09
 -13 -17  -1   87.67    4.89
 -13  17  -1   80.27    7.11
 -14 -17  -1   55.28    4.33
 -14  17  -1   48.77    6.22
 -15  17  -1   10.55    4.41
 -15 -17  -1   15.51    3.32
 -16 -18   1    3.05    2.86
 -15 -18   1  165.44    7.14
 -15  18   1  171.10   11.60
 -14  18   1  324.46   14.91
 -14 -18   1  336.28    9.25
 -13  18   1   10.68    4.48
 -13 -18   1    5.38    2.19
 -12  18   1  832.78   19.35
 -12  18   1  856.48   21.87
  12  18  -1  876.46   15.29
 -12 -18   1  833.64   12.17
 -11  18   1   29.57    4.41
  11  18  -1   28.14    3.55
 -11 -18   1   26.16    2.54
 -11  18   1   33.05    5.24
 -10  18   1   20.78    4.88
 -10 -18   1   19.04    2.15
  10  18  -1   14.21    2.88
 -10  18   1   16.91    3.82
   9  18  -1   24.19    3.52
  -9  18   1   22.73    4.12
  -9 -18   1   22.75    1.97
  -9  18   1   20.29    4.56
  -8  18   1  681.25   16.76
   8  18  -1  717.71   15.10
  -8 -18   1  723.54    8.46
  -8  18   1  692.20   18.03
  -7  18   1   12.05    3.78
   7  18  -1   21.13    3.44
  -7 -18   1   16.01    1.47
  -7  18   1    9.27    3.35
  -6  18   1  432.53   13.33
   6  18  -1  400.50   12.14
  -6 -18   1  417.62    5.41
  -6  18   1  438.29   14.35
   5  18  -1   83.93    6.00
  -5 -18   1   91.53    2.43
  -5  18   1  101.54    6.87
  -5  18   1  102.33    7.47
  -4 -18   1   45.44    1.62
  -4  18   1   47.89    5.41
  -4  18   1   49.94    5.30
   4  18  -1   43.30    4.70
  -3 -18   1  228.18    3.14
   3  18  -1  259.38   10.53
  -3  18   1  257.82   10.37
  -3  18   1  256.97   11.22
  -2  18   1 2003.19   28.11
  -2  18   1 2093.24   32.77
  -2 -18   1 1989.69    8.72
   2  18  -1 2094.31   28.68
   1  18  -1  429.28   13.63
  -1 -18   1  383.41    3.77
  -1  18   1  375.87   14.12
  -1  18   1  386.54   12.46
   0  18   1  636.86   15.69
   0  18  -1  659.53   16.71
   0 -18  -1  653.84    5.85
   0 -18   1  649.11    4.91
  -1  18  -1  292.11   11.37
  -1  18  -1  276.75   10.78
   1  18   1  319.54   11.02
  -1 -18  -1  294.05    3.94
   2  18   1  314.67   10.74
  -2  18  -1  382.57   11.79
  -2  18  -1  375.96   12.44
  -2 -18  -1  335.72    4.29
  -3  18  -1 1782.76   25.38
   3  18   1 1754.92   25.02
  -3 -18  -1 1738.51   10.07
  -3  18  -1 1754.82   25.76
  -4 -18  -1 3383.89   14.77
   4  18   1 3519.86   34.30
  -4  18  -1 3348.44   33.95
  -4  18  -1 3583.15   36.45
  -5  18  -1 1526.03   22.81
  -5  18  -1 1560.71   23.36
  -5 -18  -1 1574.40   10.50
   5  18   1 1556.49   22.59
  -6  18  -1   79.15    5.77
   6  18   1   89.27    5.76
  -6 -18  -1   77.21    2.69
  -6  18  -1   79.54    5.83
  -7  18  -1  258.29    9.84
  -7 -18  -1  262.27    5.07
   7  18   1  275.65    9.65
  -7  18  -1  258.60    9.97
  -8 -18  -1  218.12    4.99
   8  18   1  218.21    8.58
  -8  18  -1  239.34    9.62
   9  18   1   92.80    5.63
  -9 -18  -1   91.45    3.68
  -9  18  -1   89.60    6.30
  -9  18  -1   89.01    6.31
 -10 -18  -1  728.69   10.26
 -10  18  -1  757.43   17.84
  10  18   1  713.89   14.94
 -10  18  -1  712.77   16.53
 -11 -18  -1  992.47   12.83
  11  18   1 1028.02   17.26
 -11  18  -1  976.04   19.84
 -11  18  -1 1011.84   21.18
 -12 -18  -1   86.24    4.44
  12  18   1   92.69    5.63
 -12  18  -1   83.74    7.05
 -12  18  -1   75.19    6.37
  13  18   1   52.66    4.42
 -13 -18  -1   43.72    3.58
 -13  18  -1   39.83    5.34
 -13  18  -1   36.68    5.21
 -14  18  -1   38.16    5.71
 -14 -18  -1   25.96    3.39
 -15  18  -1   91.36    8.45
 -15 -18  -1   86.92    5.53
 -16 -19   1    7.74    3.12
 -15  19   1   72.07    8.49
 -15 -19   1   62.45    4.89
 -14 -19   1    7.08    2.70
 -14  19   1   12.46    5.15
 -13  19   1   21.69    5.20
 -13 -19   1   18.35    2.70
 -12  19   1   75.96    6.75
 -12  19   1   96.07    8.68
 -12 -19   1   99.57    4.56
  11  19  -1    6.62    2.63
 -11 -19   1    6.93    1.81
 -11  19   1   15.23    3.88
 -11  19   1   12.14    4.63
  10  19  -1    5.21    2.39
 -10  19   1    7.65    3.39
 -10 -19   1    5.46    1.71
 -10  19   1    0.91    3.54
  -9 -19   1   40.76    2.54
  -9  19   1   44.67    5.16
  -9  19   1   41.08    5.59
   9  19  -1   53.18    4.67
  -8  19   1  560.52   16.75
  -8  19   1  544.32   15.47
  -8 -19   1  530.76    7.21
   8  19  -1  510.35   13.56
  -7  19   1  601.34   16.21
  -7 -19   1  566.05    6.88
  -7  19   1  599.63   17.14
   7  19  -1  555.10   14.15
  -6  19   1   83.88    7.37
   6  19  -1   82.35    5.95
  -6  19   1   87.24    6.62
  -6 -19   1   85.44    2.58
  -5  19   1   32.35    4.48
  -5 -19   1   31.34    1.55
   5  19  -1   28.27    4.38
  -5  19   1   30.37    4.98
  -4  19   1   60.09    6.21
  -4  19   1   61.77    5.71
   4  19  -1   53.13    5.18
  -4 -19   1   58.11    1.86
  -3  19   1   28.00    4.41
  -3 -19   1   30.57    1.34
  -3  19   1   30.40    5.31
   3  19  -1   26.65    4.17
  -2  19   1   55.01    6.50
  -2 -19   1   47.55    1.51
   2  19  -1   35.73    5.12
  -2  19   1   46.39    5.16
  -1  19   1  204.18    9.47
   1  19  -1  206.90    9.90
  -1 -19   1  187.59    2.76
  -1  19   1  191.31   10.51
   0 -19  -1  273.97    3.95
   0  19   1  243.78   10.26
   0 -19   1  229.59    3.05
   0  19  -1  300.48   11.81
  -1  19  -1   67.78    5.99
  -1 -19  -1   73.36    2.12
   1  19   1   71.58    5.85
  -1  19  -1   80.85    6.52
  -2 -19  -1   19.74    1.29
  -2  19  -1   27.52    4.46
   2  19   1   18.97    3.46
  -2  19  -1   21.60    4.00
  -3  19  -1 2070.15   29.41
  -3 -19  -1 1877.19   10.66
   3  19   1 1910.38   26.66
  -3  19  -1 2033.75   27.87
   4  19   1  205.00    9.04
  -4  19  -1  261.80   10.20
  -4  19  -1  243.58   10.12
  -4 -19  -1  223.48    3.98
  -5  19  -1  165.53    8.55
  -5 -19  -1  158.73    3.50
  -5  19  -1  146.06    7.87
  -6  19  -1  130.25    7.54
   6  19   1  132.68    6.89
  -6  19  -1  137.26    7.57
  -6 -19  -1  130.61    3.48
   7  19   1   17.60    3.30
  -7  19  -1   24.65    4.05
  -7 -19  -1   23.08    1.85
  -7  19  -1   23.71    4.19
  -8  19  -1  138.31    7.69
   8  19   1  142.82    7.28
  -8 -19  -1  133.78    3.99
  -8  19  -1  135.80    7.76
  -9 -19  -1   80.54    3.48
   9  19   1   95.52    5.91
  -9  19  -1   91.86    6.73
  -9  19  -1   87.28    6.42
 -10 -19  -1  135.72    4.69
  10  19   1  141.28    7.10
 -10  19  -1  149.87    8.50
 -10  19  -1  137.24    8.05
  11  19   1    4.53    2.34
 -11 -19  -1    9.75    1.96
 -11  19  -1    9.24    3.76
 -11  19  -1   15.13    4.01
 -12  19  -1   44.55    5.45
 -12  19  -1   54.14    6.16
 -12 -19  -1   55.71    3.81
  12  19   1   60.28    4.73
  13  19   1   39.36    4.24
 -13  19  -1   37.99    5.53
 -13 -19  -1   46.77    3.70
 -13  19  -1   51.30    6.19
 -14  19  -1   49.71    6.71
 -14 -19  -1   49.83    4.25
 -15 -20   1   28.82    3.76
 -14  20   1    6.52    5.01
 -14 -20   1    3.44    2.39
 -13  20   1    2.15    4.45
 -13 -20   1    1.99    2.01
  12  20  -1   91.01    5.60
 -12 -20   1   89.96    4.47
 -12  20   1   94.76    8.90
 -11  20   1   24.55    5.14
 -11 -20   1   25.41    2.53
 -11  20   1   17.51    4.19
  11  20  -1   16.88    3.37
  10  20  -1  156.90    7.58
 -10  20   1  180.92    9.76
 -10 -20   1  150.37    4.71
 -10  20   1  150.96    9.62
  -9  20   1  231.50   10.89
  -9 -20   1  212.97    5.10
  -9  20   1  205.42   11.17
   9  20  -1  211.99    8.78
  -8 -20   1  202.92    4.62
  -8  20   1  223.52   10.42
   8  20  -1  205.45    8.96
  -8  20   1  226.26   11.27
  -7 -20   1   52.43    2.34
   7  20  -1   55.49    4.95
  -7  20   1   41.66    5.20
  -7  20   1   49.97    6.12
  -6  20   1  380.74   14.27
  -6 -20   1  389.80    5.38
   6  20  -1  378.98   12.41
  -6  20   1  389.21   13.42
  -5 -20   1   31.95    1.61
  -5  20   1   33.97    4.86
   5  20  -1   33.12    4.55
  -5  20   1   36.69    5.57
  -4  20   1  797.64   20.59
  -4 -20   1  774.17    6.45
  -4  20   1  771.03   18.48
   4  20  -1  785.12   18.28
  -3 -20   1   47.77    1.61
  -3  20   1   52.94    5.40
   3  20  -1   49.99    5.61
  -3  20   1   49.45    6.16
  -2  20   1  927.93   20.20
  -2  20   1  918.41   23.13
   2  20  -1  955.20   21.06
  -2 -20   1  895.44    6.26
  -1  20   1  177.85   10.33
  -1 -20   1  173.85    2.74
   1  20  -1  175.79    9.39
  -1  20   1  188.45    9.27
   0 -20   1  364.23    3.94
   0  20  -1  371.11   13.62
   0  20   1  365.20   12.69
   0 -20  -1  373.00    4.65
  -1 -20  -1  494.35    5.34
   1  20   1  502.04   14.45
  -1  20  -1  491.00   15.01
  -1  20  -1  513.69   15.73
   2  20   1  703.85   16.84
  -2 -20  -1  740.21    6.65
  -2  20  -1  729.45   18.02
  -2  20  -1  775.09   18.69
  -3  20  -1  656.52   16.52
  -3 -20  -1  643.45    6.44
   3  20   1  652.96   16.21
  -3  20  -1  672.85   17.62
  -4  20  -1    7.78    3.30
  -4  20  -1    8.14    3.38
  -4 -20  -1   10.89    1.30
   4  20   1   11.28    3.18
   5  20   1  169.29    8.34
  -5  20  -1  160.58    8.57
  -5 -20  -1  163.26    3.64
  -5  20  -1  156.48    8.56
  -6 -20  -1  100.10    3.14
   6  20   1   92.66    6.19
  -6  20  -1  111.04    7.37
  -6  20  -1  113.83    7.29
  -7 -20  -1   56.81    2.62
  -7  20  -1   59.79    5.77
   7  20   1   55.85    5.01
  -7  20  -1   60.94    5.85
   8  20   1  184.23    8.26
  -8 -20  -1  173.94    4.51
  -8  20  -1  173.88    8.96
  -8  20  -1  186.20    9.36
  -9 -20  -1  648.50    9.07
   9  20   1  701.26   15.60
  -9  20  -1  641.17   16.78
  -9  20  -1  642.70   17.21
 -10 -20  -1   29.87    2.59
 -10  20  -1   32.33    4.83
  10  20   1   28.19    3.86
 -10  20  -1   29.36    5.00
 -11  20  -1   83.71    7.03
  11  20   1   94.06    5.97
 -11  20  -1   96.37    7.53
 -11 -20  -1   95.10    4.30
 -12 -20  -1   97.96    4.76
  12  20   1  116.98    6.54
 -12  20  -1  111.59    8.21
 -12  20  -1  110.94    8.09
  13  20   1  201.20    8.55
 -13 -20  -1  177.41    6.45
 -13  20  -1  187.13   10.88
 -13  20  -1  173.70   10.40
 -14  20  -1   -0.99    4.65
 -14 -20  -1    2.75    2.47
 -15 -21   1    0.01    2.58
 -14  21   1    3.98    4.84
 -14 -21   1    2.66    2.41
 -13 -21   1  212.59    6.92
 -13  21   1  220.84   13.16
 -12 -21   1    2.83    1.93
 -12  21   1    3.57    4.85
  12  21  -1    1.21    2.48
  11  21  -1   39.57    4.49
 -11  21   1   35.76    6.25
 -11  21   1   38.97    5.79
 -11 -21   1   37.58    2.88
  10  21  -1  162.32    8.02
 -10  21   1  158.63    9.53
 -10  21   1  154.59   10.12
 -10 -21   1  159.08    4.86
   9  21  -1  375.21   11.85
  -9 -21   1  342.08    6.47
  -9  21   1  330.58   13.20
  -9  21   1  320.26   13.98
  -8 -21   1   38.47    2.28
   8  21  -1   31.01    4.25
  -8  21   1   39.28    6.09
  -8  21   1   42.37    5.57
  -7  21   1  383.08   13.88
  -7 -21   1  373.53    5.79
   7  21  -1  389.31   12.73
  -7  21   1  369.37   14.90
  -6  21   1   99.68    8.10
  -6 -21   1  103.62    2.98
   6  21  -1  113.43    7.39
  -6  21   1  105.67    7.74
  -5  21   1   88.11    7.00
  -5  21   1   87.57    7.42
  -5 -21   1   84.80    2.49
   5  21  -1   82.92    6.40
  -4 -21   1   10.74    1.09
  -4  21   1   15.67    4.58
   4  21  -1   16.44    3.83
  -4  21   1   12.23    3.78
  -3  21   1  108.45    8.92
   3  21  -1  111.55    7.81
  -3 -21   1  104.28    2.38
  -3  21   1  103.57    7.43
  -2 -21   1   48.18    1.63
  -2  21   1   49.38    6.40
  -2  21   1   51.27    5.73
   2  21  -1   68.10    6.41
  -1 -21   1  256.49    3.42
   1  21  -1  270.86   12.04
  -1  21   1  255.95   10.80
   0 -21  -1  241.95    3.87
   0  21   1  233.64   10.48
   0  21  -1  278.36   12.12
   0 -21   1  242.85    3.39
  -1  21  -1    7.67    3.60
  -1 -21  -1    5.74    0.94
   1  21   1    6.59    3.46
  -1  21  -1    8.80    3.92
  -2 -21  -1   47.73    1.97
  -2  21  -1   54.50    6.16
  -2  21  -1   43.40    5.42
   2  21   1   45.95    5.31
  -3  21  -1   28.60    4.43
  -3  21  -1   33.34    5.12
   3  21   1   27.69    4.34
  -3 -21  -1   26.11    1.61
   4  21   1  283.22   10.94
  -4 -21  -1  266.96    4.52
  -4  21  -1  258.70   11.49
  -4  21  -1  253.63   11.09
  -5  21  -1   46.87    5.16
  -5 -21  -1   55.78    2.50
   5  21   1   62.11    5.50
  -5  21  -1   45.61    5.63
  -6 -21  -1  581.02    7.26
   6  21   1  572.19   14.91
  -6  21  -1  575.78   15.84
  -6  21  -1  564.39   16.42
  -7 -21  -1   42.54    2.35
  -7  21  -1   39.73    5.08
  -7  21  -1   36.50    5.00
   7  21   1   40.87    4.67
   8  21   1   24.13    3.76
  -8 -21  -1   20.54    2.00
  -8  21  -1   18.38    4.22
  -8  21  -1   20.54    4.30
   9  21   1   56.34    5.02
  -9  21  -1   49.13    5.89
  -9  21  -1   44.75    5.61
  -9 -21  -1   46.58    2.77
 -10  21  -1   23.30    4.77
 -10 -21  -1   23.30    2.46
  10  21   1   23.28    3.67
 -10  21  -1   25.89    5.07
 -11 -21  -1   33.40    2.91
 -11  21  -1   32.93    5.22
  11  21   1   46.44    4.61
 -11  21  -1   39.06    5.89
 -12 -21  -1   34.46    3.22
 -12  21  -1   38.54    5.94
  12  21   1   39.99    4.30
 -12  21  -1   46.89    6.39
 -13 -21  -1   25.10    3.25
 -13  21  -1   28.32    5.65
  13  21   1   25.44    3.89
 -13  21  -1   25.59    5.25
 -14 -21  -1    8.88    2.94
 -14  21  -1    2.98    4.55
 -15 -22   1   28.03    3.85
 -14 -22   1  116.71    5.77
 -14  22   1  140.79   11.65
 -13  22   1   13.38    5.81
 -13 -22   1    3.33    2.24
 -12  22   1   15.72    5.39
 -12 -22   1   11.00    2.25
  12  22  -1   14.00    3.25
  11  22  -1  137.67    7.49
 -11 -22   1  129.61    4.76
 -11  22   1  135.14    9.15
 -11  22   1  137.76   10.29
 -10 -22   1  313.08    6.75
  10  22  -1  335.32   11.49
 -10  22   1  351.18   14.22
 -10  22   1  336.43   15.13
  -9  22   1  121.54    9.18
  -9 -22   1   92.23    3.60
  -9  22   1  110.65    8.20
   9  22  -1   95.49    6.41
  -8  22   1   86.48    7.34
  -8  22   1   87.22    8.28
  -8 -22   1   74.68    2.98
   8  22  -1   73.47    6.00
  -7  22   1   42.84    6.29
  -7  22   1   39.88    5.43
   7  22  -1   25.08    4.20
  -7 -22   1   32.35    2.01
  -6  22   1  177.56    9.95
  -6  22   1  171.34   10.99
   6  22  -1  183.21    9.43
  -6 -22   1  168.75    3.75
  -5  22   1  285.23   13.62
  -5  22   1  268.89   11.69
  -5 -22   1  274.03    4.33
   5  22  -1  270.52   11.53
  -4 -22   1 1940.45   10.63
   4  22  -1 1952.02   30.46
  -4  22   1 1954.05   35.28
  -4  22   1 2011.80   31.31
  -3  22   1  690.76   21.03
  -3 -22   1  683.01    6.02
  -3  22   1  691.45   18.78
   3  22  -1  692.57   18.70
  -2  22   1   96.73    8.37
  -2 -22   1   95.77    2.25
   2  22  -1   91.68    7.25
  -2  22   1   90.58    7.28
   1  22  -1   75.44    6.93
  -1  22   1   56.60    5.92
   1 -22  -1   59.06    2.08
  -1 -22   1   58.66    1.83
   0 -22   1  540.58    5.10
   0 -22  -1  534.94    5.80
   0  22  -1  555.57   17.41
   0  22   1  519.43   15.62
  -1  22  -1    7.19    3.74
  -1  22  -1    5.05    3.25
  -1 -22  -1    8.74    1.07
   1  22   1   13.97    3.73
  -2  22  -1  852.89   20.81
  -2 -22  -1  843.80    7.43
  -2  22  -1  838.45   21.02
   2  22   1  831.63   19.23
  -3  22  -1 1821.22   30.34
   3  22   1 1858.50   28.18
  -3 -22  -1 1840.55   11.29
  -3  22  -1 1872.83   30.75
  -4  22  -1  776.75   19.96
  -4 -22  -1  814.50    7.86
  -4  22  -1  784.48   19.37
   4  22   1  726.12   17.79
  -5 -22  -1   46.00    2.22
  -5  22  -1   46.08    5.72
   5  22   1   63.06    5.68
  -5  22  -1   48.16    6.05
  -6 -22  -1  344.64    5.70
  -6  22  -1  377.10   13.84
   6  22   1  342.72   12.00
  -6  22  -1  372.82   14.00
  -7  22  -1   18.06    4.34
  -7  22  -1   21.19    4.69
   7  22   1   15.23    3.34
  -7 -22  -1   22.83    2.06
  -8  22  -1  130.23    8.53
   8  22   1  152.65    8.12
  -8  22  -1  142.30    9.01
  -8 -22  -1  139.71    4.20
  -9  22  -1  358.48   13.84
  -9 -22  -1  372.96    7.06
  -9  22  -1  364.79   13.92
 -10  22  -1   38.08    6.17
 -10  22  -1   26.53    4.69
  10  22   1   31.31    4.18
 -10 -22  -1   35.03    2.80
  11  22   1    2.85    2.86
 -11  22  -1    1.62    3.78
 -11  22  -1   -3.57    4.02
 -11 -22  -1   -0.09    1.76
 -12  22  -1   72.44    7.70
  12  22   1   80.55    5.84
 -12 -22  -1   67.68    4.16
 -12  22  -1   67.99    7.18
  13  22   1  246.98    9.58
 -13 -22  -1  232.35    7.46
 -13  22  -1  264.68   13.81
 -14 -22  -1    1.39    2.47
 -14  22  -1    8.59    5.29
 -15 -23   1    1.96    2.67
 -14 -23   1   12.51    2.92
 -13  23   1   -2.88    4.82
 -13 -23   1    0.07    2.10
 -12  23   1  145.82   11.58
 -12 -23   1  141.21    5.49
  11  23  -1   53.23    5.21
 -11  23   1   44.59    6.24
 -11 -23   1   47.02    3.30
 -11  23   1   35.67    6.46
 -10 -23   1    8.66    1.82
 -10  23   1   17.75    5.68
  10  23  -1    6.66    3.01
 -10  23   1   13.37    4.54
  -9  23   1  246.69   11.91
  -9 -23   1  235.23    5.58
  -9  23   1  249.28   13.54
   9  23  -1  248.58   10.33
  -8  23   1   33.58    5.89
  -8 -23   1   31.74    2.24
  -8  23   1   18.93    4.96
   8  23  -1   34.71    4.77
  -7  23   1   30.46    5.75
  -7 -23   1   32.31    2.01
  -7  23   1   34.97    5.52
   7  23  -1   29.33    4.77
  -6 -23   1   27.79    1.79
  -6  23   1   26.35    4.84
   6  23  -1   21.27    4.17
  -6  23   1   26.79    5.49
  -5  23   1  547.10   18.84
  -5  23   1  543.86   17.21
  -5 -23   1  543.48    6.22
   5  23  -1  576.60   16.62
  -4  23   1   77.59    7.92
  -4  23   1   79.03    6.97
  -4 -23   1   72.76    2.26
   4  23  -1  102.33    7.52
  -3  23   1  244.17   11.47
   3  23  -1  206.50   10.73
  -3 -23   1  223.88    3.62
  -3  23   1  263.11   13.75
  -2 -23   1  663.76    5.88
   2  23  -1  709.36   19.60
  -2  23   1  678.03   21.32
  -2  23   1  715.77   19.18
  -1 -23   1  166.17    2.96
   1 -23  -1  154.98    3.23
   1  23  -1  164.75    9.61
  -1  23   1  178.87    9.83
   0  23  -1  172.36   10.39
   0  23   1  184.81    9.88
   0 -23   1  168.27    2.96
   0 -23  -1  156.99    3.29
  -1 -23  -1  166.06    3.38
   1  23   1  155.59    9.12
  -1  23  -1  178.09   10.47
   2  23   1  415.70   14.30
  -2  23  -1  485.42   16.69
  -2  23  -1  471.39   16.25
  -2 -23  -1  431.71    5.51
  -3  23  -1   30.35    5.61
   3  23   1   43.95    5.89
  -3 -23  -1   47.88    2.51
  -4  23  -1   11.45    4.17
  -4  23  -1   10.50    3.87
  -4 -23  -1   17.87    1.71
  -5  23  -1   16.52    4.46
  -5 -23  -1   23.70    1.80
   5  23   1   18.45    3.74
  -5  23  -1   18.53    4.54
  -6  23  -1    9.29    3.87
   6  23   1    6.54    3.29
  -6 -23  -1    7.40    1.37
  -6  23  -1    4.88    3.83
  -7 -23  -1  222.84    4.96
   7  23   1  243.38   10.38
  -7  23  -1  234.09   11.49
  -7  23  -1  229.50   11.49
   8  23   1  789.87   18.04
  -8 -23  -1  743.79    9.41
  -8  23  -1  757.84   20.58
  -8  23  -1  736.96   20.12
   9  23   1  105.85    7.07
  -9  23  -1  107.81    8.18
  -9 -23  -1  110.21    4.10
  -9  23  -1  123.90    8.90
 -10 -23  -1    8.97    2.03
 -10  23  -1    4.02    4.05
 -10  23  -1    4.33    3.94
  10  23   1    7.87    3.34
 -11  23  -1    7.37    4.64
 -11 -23  -1    2.65    1.87
  11  23   1    3.19    2.90
 -11  23  -1    5.66    4.39
 -12  23  -1    5.10    4.45
  12  23   1   10.28    3.33
 -12 -23  -1    5.87    2.30
 -12  23  -1    2.02    4.32
  13  23   1   31.61    4.22
 -13 -23  -1   36.28    3.59
 -13  23  -1   25.64    5.96
 -14 -24   1  306.77    9.02
 -13  24   1   33.46    6.99
 -13 -24   1   47.96    3.81
 -12 -24   1  169.66    5.88
 -12  24   1  179.28   12.64
 -11  24   1    4.34    4.50
 -11  24   1    2.42    4.64
  11  24  -1    2.82    3.31
 -11 -24   1    3.34    1.73
  10  24  -1  110.84    7.33
 -10  24   1  125.39    9.40
 -10 -24   1  121.29    4.46
 -10  24   1  125.19   10.14
  -9  24   1    7.09    5.01
   9  24  -1    5.83    3.21
  -9  24   1   -2.42    4.07
  -9 -24   1    4.72    1.61
  -8  24   1   50.26    7.32
  -8 -24   1   50.46    2.64
   8  24  -1   52.71    5.49
  -8  24   1   46.95    6.33
  -7  24   1  195.44   10.65
  -7 -24   1  208.82    4.56
  -7  24   1  209.02   12.59
   7  24  -1  201.54    9.94
  -6  24   1  142.88    9.43
  -6 -24   1  130.17    3.42
  -6  24   1  132.03   10.23
   6  24  -1  121.94    8.21
  -5  24   1    1.16    3.68
  -5  24   1    1.77    4.10
  -5 -24   1    2.44    1.07
   5  24  -1   -1.78    3.59
  -4  24   1   86.28    8.80
   4  24  -1   91.45    7.61
  -4  24   1   98.12    7.95
  -4 -24   1   93.51    2.61
   3  24  -1   12.03    4.07
  -3  24   1    7.53    3.83
  -3 -24   1    9.62    1.09
  -3  24   1    5.12    4.37
  -2 -24   1  524.07    5.38
  -2  24   1  535.25   16.87
   2  24  -1  587.29   18.37
  -2  24   1  516.98   19.04
  -1 -24   1   88.35    2.29
   1 -24  -1   93.68    2.65
   1  24  -1  107.39    8.43
  -1  24   1   97.35    7.70
   0  24   1  529.24   16.35
   0  24  -1  563.24   18.41
   0 -24  -1  534.29    6.12
   0 -24   1  536.99    5.33
  -1 -24  -1    6.91    1.09
   1  24   1    6.53    4.01
  -1  24  -1    9.61    4.39
   1 -24   1    7.47    1.00
  -2  24  -1  114.33    8.64
  -2 -24  -1  106.42    2.88
  -2  24  -1  127.94    9.18
   2  24   1  105.83    7.89
  -3  24  -1   67.24    7.50
  -3 -24  -1   63.39    2.42
   3  24   1   55.82    5.79
  -3  24  -1   65.29    7.02
  -4  24  -1  207.27   11.19
  -4  24  -1  201.55   10.96
  -4 -24  -1  185.38    3.96
   4  24   1  194.12    9.85
  -5 -24  -1   82.15    2.86
   5  24   1   86.89    6.75
  -5  24  -1   79.64    7.47
  -5  24  -1   88.97    8.00
  -6  24  -1  126.64    9.01
   6  24   1  124.20    8.00
  -6  24  -1  131.75    9.20
  -6 -24  -1  132.61    3.79
   7  24   1   89.06    6.77
  -7  24  -1   79.28    7.82
  -7 -24  -1   82.87    3.28
  -7  24  -1   86.24    7.77
  -8 -24  -1   83.12    3.44
  -8  24  -1   94.34    8.16
   8  24   1   86.38    6.75
  -8  24  -1   92.81    8.20
  -9  24  -1  112.28    9.10
  -9 -24  -1  102.69    4.04
   9  24   1   96.60    6.96
  -9  24  -1  101.18    8.49
 -10  24  -1   12.73    4.59
 -10  24  -1    9.02    4.59
 -10 -24  -1    7.81    1.99
  10  24   1    4.52    2.77
  11  24   1   38.17    4.88
 -11  24  -1   34.60    6.28
 -11  24  -1   33.81    6.36
 -11 -24  -1   30.49    2.98
 -12 -24  -1   39.04    3.51
  12  24   1   50.56    5.32
 -12  24  -1   34.57    6.61
 -12  24  -1   44.94    6.83
 -13 -24  -1   31.36    3.45
 -13  24  -1   24.91    5.97
 -14 -25   1    5.38    2.74
 -13  25   1   -4.94    5.01
 -13 -25   1    1.44    2.13
 -12 -25   1  112.92    4.98
 -12  25   1  127.11   11.25
 -11 -25   1   76.13    4.00
  11  25  -1   89.87    6.65
 -11  25   1   65.28    7.23
 -11  25   1   76.98    9.48
  10  25  -1    8.99    3.64
 -10  25   1    0.18    4.15
 -10  25   1    1.11    4.98
  -9  25   1  131.05   10.68
  -9  25   1  122.51    9.04
  -9 -25   1  125.41    4.19
   9  25  -1  117.74    7.74
  -8  25   1    2.29    4.59
  -8  25   1    5.41    4.37
   8  25  -1    2.48    3.03
  -7 -25   1    6.98    1.48
  -7  25   1    7.72    4.69
  -7  25   1    7.71    3.93
   7  25  -1    9.75    3.70
  -6  25   1   66.61    8.10
   6  25  -1   68.50    6.67
  -6 -25   1   70.11    2.64
  -6  25   1   67.87    7.16
   5  25  -1  349.84   13.75
  -5  25   1  349.18   16.72
  -5  25   1  367.47   14.66
  -5 -25   1  355.56    5.30
  -4 -25   1  143.85    3.26
  -4  25   1  159.39   11.42
   4  25  -1  150.99    9.62
  -4  25   1  149.20    9.78
  -3  25   1   32.97    5.59
  -3  25   1   39.17    7.16
  -3 -25   1   36.11    1.71
   3  25  -1   41.81    5.89
  -2  25   1   17.88    5.79
   2  25  -1   14.90    4.52
  -2 -25   1   17.59    1.33
  -2  25   1   16.67    4.66
  -1 -25   1   84.68    2.31
   1 -25  -1   83.76    2.61
   1  25  -1   96.82    8.17
  -1  25   1   93.56    7.83
   0 -25  -1   22.80    1.63
   0  25   1   28.38    5.35
   0 -25   1   24.07    1.42
   0  25  -1   22.54    5.48
   1  25   1  352.71   13.67
  -1 -25  -1  357.43    5.13
  -1  25  -1  385.48   15.52
   1 -25   1  349.10    4.48
   2  25   1  291.92   12.62
  -2 -25  -1  285.99    4.69
  -2  25  -1  309.32   13.96
  -2  25  -1  323.26   14.27
  -3  25  -1   82.13    7.65
  -3  25  -1   80.79    8.04
   3  25   1   81.37    6.95
  -3 -25  -1   75.08    2.58
  -4  25  -1  330.37   14.49
  -4 -25  -1  318.25    5.25
   4  25   1  335.39   12.93
  -4  25  -1  312.08   14.52
  -5  25  -1  293.40   13.45
   5  25   1  259.69   11.29
  -5  25  -1  273.53   13.18
  -5 -25  -1  256.78    4.91
  -6  25  -1  106.32    8.93
  -6  25  -1  106.15    8.71
   6  25   1   88.92    6.99
  -6 -25  -1   98.20    3.32
  -7  25  -1  163.97   10.73
   7  25   1  159.48    9.02
  -7 -25  -1  151.33    4.29
  -7  25  -1  138.48    9.88
  -8 -25  -1  279.76    6.04
   8  25   1  323.93   12.22
  -8  25  -1  273.03   13.55
  -8  25  -1  279.53   13.50
  -9  25  -1    6.33    4.84
   9  25   1   -2.30    3.15
  -9 -25  -1    1.92    1.55
  -9  25  -1   -5.67    4.79
 -10  25  -1  169.01   11.19
  10  25   1  171.83    8.82
 -10 -25  -1  168.55    5.42
 -10  25  -1  161.42   11.10
 -11  25  -1   28.64    5.99
 -11 -25  -1   31.42    3.00
 -11  25  -1   30.45    6.28
  11  25   1   27.81    4.36
 -12  25  -1   13.53    5.40
 -12 -25  -1   22.34    2.99
  12  25   1   17.49    3.72
 -12  25  -1   22.51    6.11
 -13 -25  -1   35.12    3.72
 -13  25  -1   28.70    7.24
 -14 -26   1    8.84    2.76
 -13  26   1   12.68    6.33
 -13 -26   1   11.29    2.63
 -12 -26   1  122.40    5.23
 -12  26   1  142.21   12.41
 -11  26   1  124.45    9.70
  11  26  -1  127.94    8.14
 -11 -26   1  113.48    4.75
 -11  26   1  135.29   11.53
 -10  26   1   23.13    6.46
 -10  26   1   16.06    4.91
  10  26  -1   15.31    4.17
 -10 -26   1   20.57    2.41
  -9  26   1  216.52   13.80
  -9 -26   1  221.34    5.53
   9  26  -1  251.54   11.20
  -9  26   1  228.58   12.47
  -8  26   1  503.07   20.09
  -8  26   1  531.23   18.35
   8  26  -1  505.62   15.97
  -8 -26   1  487.23    7.52
  -7 -26   1   -0.32    1.20
  -7  26   1    2.39    5.04
   7  26  -1   -0.47    3.30
  -7  26   1    6.35    4.54
  -6 -26   1  102.81    3.17
  -6  26   1  113.77    8.80
  -6  26   1  118.44   10.21
   6  26  -1   96.45    7.64
  -5 -26   1    5.03    1.21
   5  26  -1    9.99    3.49
  -5  26   1    4.45    4.04
  -5  26   1    9.75    5.71
  -4  26   1   64.77    8.07
  -4  26   1   69.65    7.33
  -4 -26   1   69.46    2.40
   4  26  -1   80.33    7.28
  -3  26   1  140.40   10.93
  -3 -26   1  141.91    3.15
  -3  26   1  145.82    9.85
   3  26  -1  143.98    9.77
  -2 -26   1 1187.88    8.57
  -2  26   1 1209.05   26.05
   2  26  -1 1244.36   27.46
  -1 -26   1  538.54    5.69
   1  26  -1  570.25   18.81
   1 -26  -1  544.41    6.47
  -1  26   1  553.78   17.63
   0 -26   1   70.57    2.18
   0  26   1   66.84    6.80
   0 -26  -1   67.98    2.43
   0  26  -1   69.04    7.26
  -1 -26  -1  165.21    3.61
  -1  26  -1  170.79   11.29
   1 -26   1  177.41    3.35
   1  26   1  181.51   10.21
  -2 -26  -1   27.53    1.76
  -2  26  -1   43.90    6.86
  -2  26  -1   36.78    6.72
   2  26   1   26.78    5.34
  -3  26  -1   46.69    6.65
  -3 -26  -1   44.80    2.12
  -3  26  -1   52.61    7.00
   3  26   1   48.75    5.94
  -4  26  -1  712.51   21.27
  -4  26  -1  657.52   20.77
  -4 -26  -1  666.47    7.65
   4  26   1  666.85   18.56
  -5  26  -1  192.52   11.70
   5  26   1  185.98    9.88
  -5 -26  -1  188.34    4.32
  -5  26  -1  175.96   11.00
  -6  26  -1    0.48    3.83
  -6  26  -1    3.21    4.04
  -6 -26  -1    2.76    1.29
   6  26   1    0.76    3.16
  -7  26  -1    6.89    4.77
  -7 -26  -1    2.39    1.41
   7  26   1    0.73    3.07
  -7  26  -1   -2.82    4.59
  -8  26  -1   19.43    5.25
  -8  26  -1   15.62    5.17
  -8 -26  -1   15.29    2.02
   8  26   1   13.69    4.18
  -9 -26  -1    2.55    1.61
  -9  26  -1    5.44    4.43
  -9  26  -1   -1.93    4.99
   9  26   1    1.52    3.09
 -10  26  -1   79.53    8.28
 -10 -26  -1   81.88    4.03
  10  26   1   89.54    7.08
 -10  26  -1   89.93    8.84
 -11  26  -1  121.02   10.32
 -11 -26  -1  130.22    5.27
  11  26   1  132.98    8.15
 -11  26  -1  132.84   10.71
  12  26   1    5.68    3.27
 -12  26  -1   -1.60    4.99
 -12 -26  -1    4.69    2.29
 -12  26  -1    8.42    5.57
 -13  26  -1   14.63    6.02
 -13 -26  -1    5.75    2.81
 -13 -27   1  180.38    6.69
 -12  27   1    3.10    5.66
 -12 -27   1    2.11    1.96
 -11  27   1   24.18    6.62
 -11 -27   1   18.89    2.58
  11  27  -1   18.34    4.32
 -11  27   1   28.88    6.28
  10  27  -1    6.54    3.97
 -10  27   1    4.32    4.68
 -10  27   1    6.24    5.55
 -10 -27   1    6.25    1.92
  -9  27   1   16.03    5.33
   9  27  -1   15.08    3.98
  -9 -27   1   14.60    1.95
  -9  27   1   11.75    5.66
   8  27  -1   65.81    6.48
  -8 -27   1   65.47    2.98
  -8  27   1   72.60    8.93
  -8  27   1   58.86    7.14
  -7 -27   1 1028.34   10.32
  -7  27   1 1095.81   26.17
  -7  27   1 1065.25   29.18
   7  27  -1 1071.97   24.11
  -6  27   1   70.97    9.10
  -6  27   1   79.44    8.15
   6  27  -1   85.75    7.48
  -6 -27   1   75.01    2.79
  -5  27   1  153.91   12.30
   5  27  -1  143.90    9.52
  -5  27   1  166.66   10.74
  -5 -27   1  146.51    3.63
  -4 -27   1    1.29    0.98
   4  27  -1    1.47    3.52
  -4  27   1    7.21    5.53
  -4  27   1    3.69    4.02
  -3  27   1  133.51   10.92
   3  27  -1  164.24   10.59
  -3 -27   1  138.57    3.18
  -3  27   1  138.16    9.71
  -2 -27   1   70.70    2.30
   2 -27  -1   63.88    2.47
   2  27  -1   70.22    7.83
  -1 -27   1  979.17    7.83
   1  27  -1 1016.93   25.62
  -1  27   1 1012.73   24.35
   1 -27  -1  967.43    8.69
   0  27   1  115.50    8.78
   0  27  -1  120.68    9.39
   0 -27   1  110.34    2.69
   0 -27  -1  107.05    2.98
  -1  27  -1  118.65    9.65
  -1 -27  -1  103.32    3.01
   1 -27   1  108.79    2.76
   1  27   1   87.08    7.56
  -2  27  -1   44.66    6.59
  -2 -27  -1   36.48    2.00
   2  27   1   43.38    5.78
  -3  27  -1  166.10   11.17
  -3  27  -1  158.47   11.16
  -3 -27  -1  155.74    3.75
   3  27   1  149.75    9.44
   4  27   1  123.32    8.60
  -4  27  -1  136.05   10.40
  -4  27  -1  154.58   11.18
  -4 -27  -1  127.74    3.57
  -5 -27  -1  195.78    4.47
  -5  27  -1  208.18   12.15
   5  27   1  204.59   10.58
  -5  27  -1  213.10   12.90
  -6 -27  -1  176.64    4.54
  -6  27  -1  171.57   11.37
  -6  27  -1  174.40   11.45
   6  27   1  173.05    9.82
  -7  27  -1   26.71    5.93
  -7  27  -1   22.92    5.81
   7  27   1   23.47    4.77
  -7 -27  -1   25.03    2.19
  -8  27  -1   15.36    5.30
   8  27   1   15.69    4.20
  -8  27  -1   14.84    5.38
  -8 -27  -1   14.37    2.01
  -9  27  -1  217.75   13.05
  -9  27  -1  226.45   13.40
   9  27   1  210.17   10.60
  -9 -27  -1  206.59    5.70
 -10  27  -1   92.61    9.21
 -10 -27  -1   83.79    4.09
 -10  27  -1  105.12   10.07
  10  27   1   97.54    7.38
 -11  27  -1    1.45    5.41
 -11  27  -1    3.61    4.98
  11  27   1    3.67    3.13
 -11 -27  -1    4.91    2.11
 -12  27  -1   74.01    9.35
 -12 -27  -1   83.92    4.78
 -12  27  -1   85.89    9.42
  12  27   1   94.82    7.24
 -13 -28   1    6.01    2.48
 -12 -28   1    4.31    2.19
 -12  28   1   -4.02    6.42
 -11  28   1   13.60    6.63
  11  28  -1   19.02    4.33
 -11  28   1   20.21    5.62
 -11 -28   1   14.48    2.39
  10  28  -1   73.23    6.97
 -10  28   1   72.37    8.04
 -10 -28   1   71.06    3.69
 -10  28   1   79.35    9.81
  -9 -28   1   14.43    2.03
   9  28  -1   12.53    4.41
  -9  28   1   18.02    6.14
  -9  28   1   14.01    5.02
  -8  28   1   67.31    8.69
  -8  28   1   67.55    7.80
  -8 -28   1   59.34    2.97
   8  28  -1   55.11    6.38
   7  28  -1    9.63    4.08
  -7 -28   1   13.06    1.76
  -7  28   1   24.16    6.42
  -7  28   1   16.79    5.03
  -6  28   1    9.88    4.86
   6  28  -1   17.93    4.67
  -6 -28   1   15.87    1.66
  -6  28   1   22.62    7.06
  -5 -28   1    2.54    1.20
  -5  28   1    3.89    4.96
   5  28  -1    9.10    3.85
  -5  28   1    5.71    4.41
  -4  28   1   20.10    5.35
  -4  28   1   26.71    6.77
   4  28  -1   28.12    5.50
  -4 -28   1   21.57    1.60
  -3  28   1   12.64    5.87
  -3 -28   1   16.43    1.40
   3  28  -1   19.72    5.31
  -3  28   1   19.55    5.26
   2  28  -1    9.99    4.92
  -2 -28   1   13.45    1.32
  -2  28   1   11.07    4.61
   2 -28  -1   13.71    1.47
   1 -28  -1   43.90    2.17
  -1 -28   1   46.84    1.99
  -1  28   1   68.25    7.57
   1  28  -1   67.84    8.26
   0  28   1   51.73    6.66
   0 -28  -1   54.78    2.27
   0 -28   1   53.35    2.03
   0  28  -1   61.13    7.60
  -1  28  -1   24.05    5.50
  -1 -28  -1   18.99    1.64
   1  28   1   16.97    4.79
   1 -28   1   21.93    1.49
  -2 -28  -1  113.32    3.21
   2  28   1  115.06    8.61
  -2  28  -1  116.65    9.91
   2 -28   1  113.31    2.88
  -3  28  -1   93.74    9.03
   3  28   1  104.24    8.39
  -3 -28  -1  100.64    3.14
  -3  28  -1  109.70    9.64
  -4 -28  -1    4.02    1.30
   4  28   1    2.59    3.52
  -4  28  -1    0.74    4.51
  -4  28  -1    0.25    4.39
  -5  28  -1    6.25    5.36
   5  28   1    3.75    3.72
  -5 -28  -1    5.34    1.36
  -5  28  -1    6.97    4.31
   6  28   1    6.75    3.50
  -6 -28  -1    1.49    1.34
  -6  28  -1    1.16    4.63
  -7 -28  -1   79.53    3.39
  -7  28  -1   76.39    8.78
  -7  28  -1   85.49    8.79
   7  28   1   88.53    7.45
  -8  28  -1   93.11    9.86
  -8  28  -1   83.73    8.92
   8  28   1   84.88    7.26
  -8 -28  -1   85.68    3.72
  -9  28  -1   15.60    5.35
  -9 -28  -1   14.60    2.23
  -9  28  -1   11.40    5.23
   9  28   1   23.29    4.53
 -10  28  -1    6.69    5.60
 -10 -28  -1    3.23    1.94
 -10  28  -1    6.48    5.10
  10  28   1    1.95    3.53
 -11  28  -1   11.88    5.63
 -11  28  -1   17.34    6.38
  11  28   1   15.09    4.22
 -11 -28  -1   14.90    2.66
  12  28   1    7.60    3.84
 -12  28  -1    8.59    5.81
 -12  28  -1    4.28    5.98
 -12 -28  -1    2.06    2.31
 -11  29   1  101.93   11.94
 -11 -29   1   89.86    4.52
  11  29  -1  107.47    8.15
  10  29  -1    6.29    4.06
 -10 -29   1    1.85    1.78
 -10  29   1   -4.72    5.98
 -10  29   1    4.42    4.77
   9  29  -1   58.17    6.36
  -9 -29   1   43.16    2.79
  -9  29   1   53.32    7.22
  -9  29   1   59.51    8.97
  -8  29   1   22.07    5.83
  -8 -29   1   29.14    2.38
   8  29  -1   35.59    5.53
  -8  29   1   32.04    7.31
  -7  29   1  282.46   17.00
   7  29  -1  294.83   13.42
  -7 -29   1  273.96    5.61
  -7  29   1  303.56   14.84
  -6  29   1   42.58    8.15
  -6  29   1   39.24    6.46
   6  29  -1   50.59    6.55
  -6 -29   1   43.14    2.37
  -5 -29   1    2.40    1.22
   5  29  -1    3.80    4.11
  -5  29   1    5.83    4.40
   4  29  -1    3.85    4.49
  -4  29   1   -0.03    3.93
  -4  29   1   -2.40    5.86
  -4 -29   1    1.44    1.07
  -3 -29   1  106.04    2.96
  -3  29   1  103.61    8.92
   3  29  -1  122.96    9.74
   2  29  -1   -0.65    4.31
  -2  29   1    2.69    4.19
   2 -29  -1    0.77    1.09
  -2 -29   1    2.92    1.05
   1 -29  -1  260.83    4.77
  -1  29   1  271.31   13.19
   1  29  -1  267.48   13.95
  -1 -29   1  265.61    4.38
   0 -29   1  224.11    4.00
   0 -29  -1  223.38    4.38
   0  29   1  235.89   12.76
   0  29  -1  235.01   13.37
  -1 -29  -1   49.94    2.28
  -1  29  -1   60.39    7.51
   1 -29   1   46.98    1.98
   1  29   1   33.02    5.58
  -2  29  -1   31.84    6.52
  -2 -29  -1   20.44    1.73
   2 -29   1   19.98    1.46
   2  29   1   25.14    5.42
  -3  29  -1  460.87   18.52
  -3  29  -1  422.24   18.04
  -3 -29  -1  442.08    6.41
   3  29   1  475.87   16.92
  -4  29  -1   87.16    8.98
  -4 -29  -1   88.92    3.19
   4  29   1   84.12    7.69
  -4  29  -1   76.42    8.96
  -5  29  -1  534.91   20.67
  -5 -29  -1  521.61    7.47
   5  29   1  536.84   17.70
  -5  29  -1  561.45   20.66
  -6  29  -1  180.37   12.79
  -6 -29  -1  175.77    4.72
  -6  29  -1  181.38   12.48
   6  29   1  180.20   10.37
  -7  29  -1    1.63    5.51
  -7  29  -1    4.18    4.62
   7  29   1    0.54    3.44
  -7 -29  -1    2.69    1.61
  -8  29  -1   28.18    6.01
  -8  29  -1   33.12    6.86
  -8 -29  -1   36.62    2.74
   8  29   1   34.77    5.48
  -9  29  -1   92.46    9.66
   9  29   1  102.74    8.10
  -9 -29  -1   93.10    4.12
  -9  29  -1   95.18   10.20
 -10 -29  -1   98.13    4.48
 -10  29  -1   95.81    9.83
 -10  29  -1  100.47   10.37
  10  29   1  105.80    8.18
 -11  29  -1   32.48    7.41
 -11 -29  -1   26.26    3.04
  11  29   1   33.29    5.57
 -11  29  -1   30.71    7.01
 -12 -29  -1  170.20    6.61
 -12  29  -1  156.57   12.73
  12  29   1  189.27   10.22
 -12  29  -1  153.97   12.97
 -11  30   1   46.15    8.84
  11  30  -1   50.45    6.04
 -10  30   1  185.87   14.81
 -10 -30   1  161.39    5.40
 -10  30   1  182.08   12.35
  10  30  -1  171.68   10.35
   9  30  -1   82.08    7.73
  -9  30   1   72.96    8.53
  -9  30   1   64.76    9.16
  -9 -30   1   69.30    3.52
   8  30  -1    5.40    4.29
  -8  30   1    5.32    4.89
  -8 -30   1    4.81    1.70
  -8  30   1    1.27    5.94
  -7 -30   1    4.24    1.55
  -7  30   1    3.25    5.17
   7  30  -1   -5.70    4.23
  -7  30   1    5.52    5.79
  -6  30   1   12.58    6.25
   6  30  -1    9.58    4.83
  -6 -30   1    4.71    1.42
  -6  30   1   13.86    5.50
  -5  30   1   26.71    8.01
  -5 -30   1   15.40    1.66
   5  30  -1   21.36    5.25
  -5  30   1   24.16    5.61
  -4  30   1   76.82    9.61
   4  30  -1   82.89    8.09
  -4  30   1   88.90    8.61
  -4 -30   1   84.23    2.85
  -3  30   1  107.51    9.32
  -3 -30   1   99.80    3.01
   3 -30  -1   93.56    3.06
   3  30  -1  117.48    9.72
  -2 -30   1    3.88    1.15
   2 -30  -1    2.12    1.24
  -2  30   1    0.58    4.57
   2  30  -1    4.09    4.58
  -1  30   1   61.69    7.52
  -1 -30   1   56.22    2.24
   1 -30  -1   58.93    2.54
   0 -30   1    6.10    1.15
   0  30  -1   16.03    5.71
   0  30   1   11.63    4.37
   0 -30  -1    4.26    1.27
   1 -30   1   34.28    1.92
   1  30   1   29.96    5.58
  -1 -30  -1   32.99    2.07
  -1  30  -1   43.34    6.97
  -2  30  -1  103.76    9.55
   2  30   1  128.76    9.37
   2 -30   1  116.49    3.04
  -2 -30  -1  113.32    3.37
  -3  30  -1   38.75    7.88
   3  30   1   50.33    6.99
  -3  30  -1   44.56    8.08
  -3 -30  -1   35.68    2.20
  -4 -30  -1    6.16    1.52
  -4  30  -1    5.21    5.06
  -4  30  -1    8.81    6.03
   4  30   1   10.86    4.70
  -5 -30  -1   88.80    3.38
   5  30   1   73.75    7.68
  -5  30  -1   87.54    9.78
  -6  30  -1   14.12    5.77
  -6 -30  -1   18.68    2.06
  -6  30  -1   19.53    5.75
  -7  30  -1   32.37    7.42
  -7  30  -1   43.76    7.58
  -7 -30  -1   38.42    2.65
   7  30   1   40.94    6.00
   8  30   1   53.75    6.71
  -8 -30  -1   50.00    3.15
  -8  30  -1   47.82    7.74
  -8  30  -1   51.37    7.97
  -9  30  -1  156.91   12.63
  -9  30  -1  164.28   12.36
   9  30   1  183.35   10.49
  -9 -30  -1  159.80    5.29
 -10 -30  -1   26.79    2.97
 -10  30  -1   22.83    6.81
  10  30   1   31.06    5.40
 -10  30  -1   18.22    7.25
 -11  30  -1    7.74    6.18
 -11 -30  -1    4.99    2.36
  11  30   1    1.75    3.78
 -11  30  -1    4.71    6.64
  11  31  -1  161.65   10.22
 -10  31   1   31.50    8.00
  10  31  -1   17.60    4.76
 -10  31   1   13.83    6.07
  -9  31   1  238.34   14.24
  -9  31   1  232.21   16.40
  -9 -31   1  194.36    5.58
   9  31  -1  195.38   11.22
  -8 -31   1   42.62    2.81
  -8  31   1   50.68    9.52
  -8  31   1   57.34    7.89
   8  31  -1   51.25    6.88
  -7  31   1    5.67    6.68
  -7  31   1   18.35    5.86
  -7 -31   1   14.01    1.81
   7  31  -1   13.85    4.79
  -6  31   1   84.03   10.58
   6  31  -1   97.96    8.87
  -6 -31   1   85.30    3.24
  -6  31   1  104.09   10.03
  -5  31   1  188.13   14.62
   5  31  -1  212.66   12.47
  -5  31   1  211.38   12.78
  -5 -31   1  194.56    4.46
  -4  31   1   16.52    6.72
  -4  31   1   20.93    5.51
   4  31  -1   17.42    5.41
  -4 -31   1   15.13    1.61
  -3  31   1  367.76   16.39
   3  31  -1  335.50   15.68
   3 -31  -1  313.95    5.50
  -3 -31   1  322.52    5.25
  -2  31   1   58.39    7.60
   2 -31  -1   47.05    2.38
   2  31  -1   44.73    6.57
  -2 -31   1   46.74    2.14
  -1  31   1   39.28    6.50
   1  31  -1   48.46    7.31
  -1 -31   1   40.59    2.03
   1 -31  -1   43.41    2.32
   0 -31  -1    4.31    1.31
   0  31  -1    4.35    5.02
   0 -31   1    5.77    1.17
   0  31   1    7.68    4.67
   1 -31   1  543.70    6.47
  -1  31  -1  591.89   21.45
  -1 -31  -1  544.37    7.13
   1  31   1  500.42   18.25
  -2 -31  -1  161.32    4.05
   2 -31   1  164.04    3.68
   2  31   1  171.33   10.94
  -2  31  -1  186.50   12.81
   3  31   1   57.57    7.00
   3 -31   1   53.61    2.26
  -3  31  -1   63.09    8.13
  -3 -31  -1   55.88    2.63
  -4  31  -1  106.67   10.47
  -4 -31  -1  108.45    3.67
  -4  31  -1   97.13   10.38
   4  31   1  105.61    8.95
  -5  31  -1   11.60    5.89
   5  31   1   14.46    4.73
  -5  31  -1   13.94    5.76
  -5 -31  -1   10.23    1.72
  -6  31  -1   61.42    8.46
   6  31   1   69.12    7.17
  -6 -31  -1   70.22    3.32
  -6  31  -1   70.90    9.43
  -7  31  -1  132.21   11.74
  -7 -31  -1  116.29    4.24
   7  31   1  123.91    9.15
  -7  31  -1  112.81   11.34
  -8  31  -1  371.71   18.61
  -8  31  -1  389.30   18.97
   8  31   1  368.86   15.18
  -8 -31  -1  359.68    7.48
   9  31   1    1.55    3.65
  -9  31  -1    5.95    5.80
  -9 -31  -1    9.56    2.18
  -9  31  -1    5.89    5.28
 -10  31  -1   47.14    8.86
 -10 -31  -1   43.43    3.48
  10  31   1   40.79    5.92
 -11  31  -1    3.18    5.63
 -11  31  -1   -5.07    7.30
 -11 -31  -1    4.21    2.30
  11  31   1    7.17    4.31
 -10  32   1   22.82    8.05
  10  32  -1   14.62    4.50
 -10  32   1   10.94    5.39
   9  32  -1    3.88    3.79
  -9  32   1   -8.82    5.87
  -9  32   1    3.02    6.69
  -8 -32   1   26.30    2.44
  -8  32   1   24.93    7.76
  -8  32   1   27.64    6.43
   8  32  -1   29.34    5.93
  -7  32   1   19.06    7.41
  -7 -32   1   19.81    2.11
  -7  32   1   18.69    5.79
   7  32  -1   20.57    5.44
  -6 -32   1    0.32    1.38
  -6  32   1    3.35    6.16
   6  32  -1    0.99    4.15
  -6  32   1    2.25    4.60
  -5  32   1   12.02    6.28
  -5 -32   1   13.81    1.77
  -5  32   1   17.72    5.47
   5  32  -1    6.69    4.31
   4  32  -1   11.30    5.18
  -4  32   1    5.18    4.81
  -4 -32   1    2.53    1.22
  -3 -32   1   21.11    1.79
   3  32  -1   31.80    6.42
  -3  32   1   24.79    6.03
   3 -32  -1   30.25    2.10
  -2 -32   1   24.92    1.78
   2  32  -1   29.62    6.44
  -2  32   1   21.98    5.51
   2 -32  -1   24.56    1.96
  -1 -32   1    2.95    1.16
   1  32  -1    3.57    4.88
  -1  32   1    6.21    4.45
   1 -32  -1    0.70    1.20
   0 -32   1   35.70    1.95
   0 -32  -1   41.54    2.30
   0  32  -1   40.15    7.02
   0  32   1   42.89    6.79
  -1 -32  -1    7.92    1.59
   1 -32   1    4.53    1.22
  -1  32  -1   25.17    7.00
   1  32   1   21.59    6.05
  -2  32  -1   15.59    5.99
   2  32   1   14.54    5.32
   2 -32   1   12.92    1.44
  -2 -32  -1   14.03    1.72
  -3  32  -1   -3.19    5.16
   3 -32   1    0.91    1.14
   3  32   1    0.70    4.00
  -3 -32  -1    0.28    1.35
  -4 -32  -1   65.35    2.98
  -4  32  -1   59.47    8.31
  -4  32  -1   66.78    8.71
   4  32   1   59.64    7.33
  -5  32  -1   28.81    7.61
  -5 -32  -1   32.35    2.41
   5  32   1   32.40    5.70
  -5  32  -1   34.75    7.48
  -6  32  -1   73.21    9.10
  -6  32  -1   70.47    9.89
  -6 -32  -1   61.09    3.14
   6  32   1   67.13    7.58
  -7  32  -1   13.01    6.44
  -7  32  -1    6.79    6.63
   7  32   1    3.55    4.21
  -7 -32  -1    3.44    1.74
  -8  32  -1   22.92    6.38
  -8 -32  -1   22.56    2.49
   8  32   1   17.61    4.91
  -8  32  -1   22.36    7.19
   9  32   1    0.53    3.93
  -9  32  -1   -2.82    6.02
  -9 -32  -1    0.53    1.97
  -9  32  -1   -5.37    5.83
  10  32   1   24.83    5.43
 -10  32  -1   38.39    8.49
 -10 -32  -1   22.78    2.91
 -10  32  -1   19.54    7.22
  10  33  -1   18.62    5.30
 -10  33   1   34.01    7.25
  -9  33   1   90.27    9.76
  -9  33   1   98.66   12.92
   9  33  -1  106.86    9.22
   8  33  -1   14.13    4.82
  -8  33   1   14.14    7.22
  -8  33   1   26.28    6.63
  -7  33   1   30.30    8.20
  -7  33   1   37.53    7.15
   7  33  -1   40.44    6.53
   6  33  -1   10.75    4.69
  -6  33   1   16.00    5.77
  -6 -33   1   14.10    1.91
  -5  33   1  300.42   18.77
  -5 -33   1  301.42    5.75
   5  33  -1  371.96   16.62
  -5  33   1  344.08   16.89
   4 -33  -1    0.57    1.33
  -4 -33   1    3.79    1.32
  -4  33   1    1.63    4.79
   4  33  -1    4.84    4.68
  -3 -33   1  237.63    4.77
   3  33  -1  227.88   13.72
  -3  33   1  224.83   13.34
   3 -33  -1  240.31    5.09
   2 -33  -1  113.37    3.56
   2  33  -1  113.66   10.19
  -2 -33   1  114.70    3.28
  -2  33   1  121.45   10.23
  -1  33   1   47.42    7.57
   1 -33  -1   52.69    2.60
   1  33  -1   51.41    7.53
  -1 -33   1   43.69    2.15
   0  33  -1    6.03    5.35
   0  33   1    5.27    4.75
   0 -33  -1    1.27    1.31
   0 -33   1    2.37    1.19
  -1 -33  -1  268.79    5.31
   1  33   1  271.00   14.32
  -1  33  -1  269.46   15.57
   1 -33   1  266.68    4.74
  -2  33  -1  136.58   11.56
   2  33   1  133.20   10.47
   2 -33   1  117.66    3.29
  -2 -33  -1  112.67    3.65
   3 -33   1   42.35    2.20
  -3  33  -1   52.14    8.48
  -3 -33  -1   43.22    2.51
   3  33   1   50.59    7.13
  -4 -33  -1   23.06    2.11
  -4  33  -1   25.58    6.56
   4  33   1   20.02    5.12
  -5  33  -1    6.63    6.37
  -5  33  -1    9.09    5.71
  -5 -33  -1    6.89    1.72
   5  33   1    9.91    4.89
  -6 -33  -1   28.60    2.50
  -6  33  -1   19.56    6.27
   6  33   1   40.02    6.68
  -6  33  -1   30.87    7.90
  -7  33  -1  109.21   12.08
  -7  33  -1  123.18   11.74
  -7 -33  -1  104.89    4.21
   7  33   1  122.43    9.58
   8  33   1  112.25    9.36
  -8  33  -1   90.33   10.45
  -8 -33  -1   97.70    4.34
  -8  33  -1   97.67   12.04
  -9  33  -1   10.49    7.00
   9  33   1   19.02    5.08
  -9  33  -1   21.91    6.79
  -9 -33  -1   13.00    2.38
 -10  33  -1   22.12    7.40
 -10 -33  -1   15.41    2.60
  -9  34   1   21.45    9.46
   9  34  -1   25.03    5.83
  -9  34   1   24.93    6.57
  -8  34   1   34.12    8.76
  -8  34   1   34.72    7.27
   8  34  -1   46.51    7.26
  -7  34   1   37.51    9.50
  -7  34   1   30.97    6.78
   7  34  -1   40.66    6.49
  -6  34   1   17.82    5.87
  -6  34   1   30.73    8.56
   6  34  -1   23.81    5.94
  -5  34   1   26.32    6.73
   5  34  -1   27.11    6.19
  -5  34   1   26.13    8.53
  -4  34   1   81.72    9.16
  -4 -34   1   64.41    2.79
   4  34  -1   81.29    8.83
   4 -34  -1   69.09    3.03
  -3  34   1  101.96   10.03
   3  34  -1   93.94    9.83
  -3 -34   1   76.71    2.97
   3 -34  -1   87.67    3.33
   2 -34  -1   60.20    2.85
   2  34  -1   62.19    8.39
  -2 -34   1   53.11    2.47
  -2  34   1   57.61    7.91
  -1 -34   1    5.74    1.32
  -1  34   1    6.74    5.02
   1 -34  -1    7.02    1.58
   1  34  -1   10.38    5.91
   0  34   1    4.14    4.82
   0 -34   1    1.95    1.23
   0 -34  -1    3.66    1.47
   1 -34   1    5.16    1.36
  -1  34  -1   16.69    6.59
   1  34   1   18.38    6.01
  -1 -34  -1    5.48    1.58
  -2  34  -1   56.50    8.54
  -2 -34  -1   38.02    2.43
   2  34   1   46.72    7.08
   2 -34   1   43.40    2.27
  -3 -34  -1   78.09    3.24
  -3  34  -1   88.61    9.76
   3  34   1   74.65    8.14
   3 -34   1   80.52    2.98
  -4  34  -1    7.58    5.97
  -4 -34  -1    5.43    1.68
   4 -34   1    8.93    1.51
   4  34   1    9.01    4.94
   5  34   1    9.87    4.66
  -5  34  -1   17.88    6.34
  -5  34  -1   12.81    6.53
  -5 -34  -1   12.88    1.96
  -6 -34  -1    3.20    1.71
   6  34   1    0.24    4.06
  -6  34  -1    7.97    6.47
  -6  34  -1    0.07    5.19
   7  34   1    2.71    4.36
  -7  34  -1   13.31    7.34
  -7 -34  -1    2.20    1.86
  -7  34  -1   10.91    6.46
  -8 -34  -1   11.12    2.30
  -8  34  -1   18.16    7.03
   8  34   1   16.87    5.25
  -9 -34  -1    6.22    2.28
  -9  35   1   46.50    7.89
  -8  35   1   33.91    9.66
  -8  35   1   41.58    7.88
   8  35  -1   41.55    6.85
  -7  35   1  235.05   17.83
  -7  35   1  272.36   15.88
   7  35  -1  271.51   14.58
  -6  35   1  111.02   13.12
  -6  35   1  125.38   11.47
   6  35  -1  129.31   10.78
  -5  35   1   18.44    6.03
   5  35  -1   18.66    5.82
  -4  35   1   10.19    5.34
   4 -35  -1   15.84    1.90
   3 -35  -1  236.10    5.23
  -3  35   1  232.32   14.18
   3  35  -1  249.78   15.00
  -2  35   1    6.06    4.84
   2 -35  -1    6.64    1.60
   2  35  -1    0.13    4.72
   1 -35  -1  250.25    5.25
  -1 -35   1  245.16    4.89
   1  35  -1  265.06   15.49
  -1  35   1  260.36   14.71
   0 -35  -1  172.95    4.50
   0  35  -1  175.20   13.23
   0 -35   1  169.19    4.02
   0  35   1  186.00   12.44
   1  35   1    1.89    4.66
  -1 -35  -1    6.96    1.62
  -1  35  -1    7.34    5.89
   1 -35   1    6.93    1.46
  -2 -35  -1    5.24    1.69
  -2  35  -1    3.36    5.40
   2 -35   1    2.98    1.33
   2  35   1    9.00    5.54
   3  35   1  145.92   11.17
  -3  35  -1  162.56   13.15
  -3 -35  -1  139.01    4.27
   3 -35   1  136.64    3.80
  -4 -35  -1   39.65    2.65
   4 -35   1   38.88    2.26
  -4  35  -1   35.39    7.66
   4  35   1   38.02    6.77
  -5  35  -1   46.63    8.81
   5  35   1   61.01    7.69
  -5 -35  -1   59.99    3.25
  -6 -35  -1   45.44    3.04
   6  35   1   55.64    7.57
  -6  35  -1   48.86    8.73
  -7  35  -1   22.99    7.19
  -7 -35  -1   21.45    2.48
  -8 -35  -1    2.97    2.06
  -9 -35  -1   26.60    2.99
  -8  36   1   20.47    6.73
  -7  36   1   -8.90    8.19
  -7  36   1    4.59    5.38
  -6  36   1   16.19    8.49
  -6  36   1   12.51    6.00
   6  36  -1   17.91    6.15
   5  36  -1   10.18    5.07
  -5  36   1    1.42    5.04
   5 -36  -1    5.39    1.74
   4 -36  -1    7.75    1.77
  -4  36   1    8.70    5.59
   4  36  -1    8.18    5.28
   3 -36  -1   20.14    2.13
   3  36  -1   24.27    6.81
  -3  36   1   31.47    7.14
  -2  36   1   45.55    7.93
   2  36  -1   50.78    8.10
   2 -36  -1   39.05    2.44
   1 -36  -1    9.84    1.83
  -1  36   1   16.47    6.17
   0  36   1   26.83    6.90
   0  36  -1   28.88    7.38
   0 -36  -1    7.73    1.67
  -1  36  -1    2.19    5.31
  -1 -36  -1    2.73    1.52
   1  36   1    5.60    4.81
   2  36   1    3.03    4.77
  -2 -36  -1    2.02    1.58
  -3  36  -1   11.44    6.72
  -3 -36  -1    1.35    1.64
   3  36   1    4.98    5.37
   4  36   1   16.18    5.68
  -4 -36  -1   10.60    1.98
  -4  36  -1    7.11    6.47
   5  36   1   -0.07    4.65
  -5 -36  -1    5.68    1.93
  -5  36  -1    5.88    5.76
  -6  36  -1    5.66    6.05
  -6 -36  -1    6.69    2.09
  -7 -36  -1   26.57    2.75
  -8 -36  -1   11.63    2.48
  -7  37   1   74.87   12.65
   5 -37  -1   81.19    3.48
  -5  37   1   80.83    9.54
   4  37  -1    1.58    5.24
   4 -37  -1   -2.01    1.57
  -4  37   1    3.48    5.36
  -3  37   1   52.82    8.28
   3  37  -1   50.56    8.14
   3 -37  -1   50.35    2.88
  -2  37   1   21.62    6.36
   2  37  -1   13.91    6.07
   2 -37  -1   19.68    2.14
   1 -37  -1  232.94    5.33
  -1  37   1  236.60   14.89
   1  37  -1  255.55   15.49
   0 -37  -1  102.62    3.75
   0  37  -1  116.72   11.66
   0  37   1  109.40   10.76
  -1 -37  -1   31.52    2.45
  -1  37  -1   34.91    7.97
   1  37   1   27.01    6.55
  -2 -37  -1   26.73    2.30
  -2  37  -1   35.90    8.24
   2  37   1   38.42    7.15
  -3  37  -1   52.78    9.13
  -3 -37  -1   53.23    3.02
   3  37   1   50.62    7.63
  -4 -37  -1  142.85    4.61
  -5 -37  -1   38.43    2.86
  -6 -37  -1   81.70    3.97
  -7 -37  -1   22.04    2.74
   6 -38  -1   13.08    2.10
   5 -38  -1   51.60    3.05
   4 -38  -1    4.32    1.73
   3 -38  -1   12.20    1.97
   2 -38  -1  101.21    3.77
   1 -38  -1   18.10    2.17
   0 -38  -1    7.27    1.79
  -1 -38  -1   23.46    2.34
  -2 -38  -1   12.74    1.95
  -3 -38  -1   14.04    2.16
  -4 -38  -1   97.76    4.04
  -5 -38  -1   32.40    2.78
   5 -39  -1  127.41    4.37
   4 -39  -1   -1.36    1.80
   3 -39  -1   62.81    3.25
   2 -39  -1   30.35    2.52
   1 -39  -1   21.62    2.30
   0 -39  -1   14.19    2.07
  -1 -39  -1  262.98    6.02
  -2 -39  -1  106.23    4.10
  -3 -39  -1   13.70    2.16
  -4 -39  -1   34.25    2.85
   3 -40  -1    0.89    1.67
   2 -40  -1    6.21    1.91
   1 -40  -1    1.19    1.76
   0 -40  -1    9.67    1.97
  -1 -40  -1   12.83    2.19
 -17   0   2   36.42    5.04
 -16   0   2  282.48   11.12
 -15   0   2  182.27    8.43
 -14   0   2 1265.64   20.43
 -13   0   2   13.34    3.00
 -12   0   2  105.17    5.59
 -11   0   2    8.63    2.45
 -10   0   2 1027.76   14.44
  -9   0   2   66.77    3.81
  -8   0   2 2527.48   19.86
  -7   0   2 3870.19   23.50
   6   0  -2 3237.08   16.25
  -6   0   2 3121.97   19.49
  -5   0   2 1987.29   14.57
   5   0  -2 2036.88   11.93
  -4   0   2 2633.48   15.96
   4   0  -2 2725.64   13.12
   3   0  -2  903.15    3.65
   3   0  -2  893.75    7.41
  -3   0   2  858.33    8.76
   3   0  -2  888.75    4.56
   2   0  -2 1353.85    4.83
   2   0  -2 1349.60    6.70
  -2   0   2 1425.38   11.35
   1   0  -2  653.54    7.49
  -1   0   2  632.04    8.54
   1   0  -2  612.79    5.12
   0   0  -2 2041.20    5.10
   0   0   2 1894.92    9.62
   0   0   2 1989.41    4.87
   0   0  -2 1955.30   10.03
  -1   0  -2  212.59    1.96
   1   0   2  203.12    1.82
   1   0   2  180.25    3.36
  -1   0  -2  203.56    3.60
  -2   0  -2  598.89    6.62
  -2   0  -2  639.24    4.23
   2   0   2  636.47    3.78
  -3   0  -2  491.15    4.45
   3   0   2  495.49    3.94
  -3   0  -2  469.57    6.51
   3   0   2  478.38    6.13
   4   0   2  126.23    2.34
  -4   0  -2  129.84    2.75
  -4   0  -2  135.77    3.89
   4   0   2  132.44    3.59
  -5   0  -2 2373.19   12.90
  -5   0  -2 2361.30   16.88
  -6   0  -2  302.49    5.14
  -6   0  -2  264.96    4.06
  -7   0  -2   83.96    3.10
  -7   0  -2   83.12    2.55
  -8   0  -2 1564.83   13.58
  -8   0  -2 1552.76   10.59
  -9   0  -2 1288.91   13.37
  -9   0  -2 1286.35   10.32
 -10   0  -2   70.71    2.79
 -10   0  -2   67.79    3.65
 -11   0  -2 1203.35   14.98
 -11   0  -2 1211.41   11.13
 -12   0  -2   14.00    2.01
 -12   0  -2    7.04    2.47
 -13   0  -2   12.61    2.67
 -13   0  -2   14.15    1.95
 -14   0  -2   63.69    4.91
 -14   0  -2   61.94    3.38
 -15   0  -2  587.28   13.86
 -16   0  -2  207.43    8.86
 -17   1   2   11.73    4.43
 -17  -1   2    1.01    3.52
 -16  -1   2   23.25    4.10
 -16   1   2   30.02    4.66
 -15  -1   2   98.54    6.45
 -15   1   2  104.11    6.85
 -14  -1   2   21.88    3.55
 -14   1   2   11.87    3.43
 -13  -1   2    6.12    2.74
 -13   1   2    1.57    2.59
 -12  -1   2    8.95    2.71
 -12   1   2    5.61    2.40
 -11  -1   2   86.68    4.83
 -11   1   2   81.90    4.85
 -10  -1   2   39.63    3.18
 -10   1   2   34.86    3.31
  -9  -1   2  841.59   11.98
  -9   1   2  900.19   12.86
  -8  -1   2  108.26    4.12
  -8   1   2  114.01    4.62
  -7  -1   2    5.25    1.52
  -7   1   2    5.69    1.73
  -6  -1   2  158.26    4.31
  -6   1   2  136.96    4.43
   6   1  -2  149.45    3.38
   5   1  -2  907.92    7.64
   5  -1  -2  903.40    8.37
  -5   1   2  897.73   10.33
  -5  -1   2  894.82    9.30
   4  -1  -2  213.71    4.01
  -4   1   2  210.05    4.87
   4   1  -2  209.79    3.47
  -4  -1   2  198.95    4.12
  -3   1   2  472.41    6.98
   3   1  -2  460.74    3.21
   3   1  -2  487.00    3.18
   3   1  -2  467.08    4.73
   3  -1  -2  494.34    6.10
   3  -1  -2  446.42    3.85
  -3  -1   2  457.45    5.81
   2   1  -2   24.64    0.81
  -2   1   2   37.35    1.17
   2  -1  -2   33.75    1.25
   2  -1  -2   29.45    1.81
   2   1  -2   24.97    1.31
   2   1  -2   26.01    1.04
  -2  -1   2   28.87    1.75
  -2   1   2   32.76    2.27
  -1   1   2  434.06    4.30
   1  -1  -2  428.57    7.01
  -1   1   2  435.72    7.89
  -1  -1   2  350.53    5.81
   1   1  -2  405.11    3.13
   1   1  -2  372.41    4.00
   1  -1  -2  418.39    4.54
   1   1  -2  381.88    5.11
   0   1   2  150.94    1.50
   0  -1  -2  156.24    3.11
   0   1  -2  156.42    2.94
   0   1  -2  152.95    2.16
   0   1  -2  165.56    1.36
   0  -1  -2  154.27    1.55
   0  -1   2  159.41    1.28
   0   1   2  159.82    2.99
  -1   1  -2  811.37    5.24
  -1  -1  -2  830.96    7.66
   1  -1   2  803.63    3.52
  -1  -1  -2  845.88    4.09
  -1   1  -2  823.97    7.06
  -1   1  -2  810.43    3.85
   1   1   2  787.25    7.07
   1   1   2  846.43    3.83
  -2  -1  -2 2249.34    7.92
  -2   1  -2 2207.47    7.90
  -2   1  -2 2184.29   12.32
   2  -1   2 2309.05    7.25
   2   1   2 2272.80    7.39
   2   1   2 2319.08   12.78
  -3  -1  -2  303.06    5.34
   3   1   2  270.29    2.97
  -3  -1  -2  280.16    3.33
   3  -1   2  279.95    3.01
   3   1   2  291.41    4.96
  -3   1  -2  286.86    3.63
  -3   1  -2  279.76    3.44
  -3   1  -2  265.13    4.79
  -4   1  -2  253.98    3.85
  -4   1  -2  252.16    5.03
  -4  -1  -2  232.91    5.13
  -4   1  -2  244.65    3.56
  -4  -1  -2  247.62    3.63
   4   1   2  256.36    3.24
   4  -1   2  246.54    3.24
   4   1   2  231.85    4.72
  -5   1  -2   10.47    1.54
  -5   1  -2   15.63    1.32
  -5  -1  -2   20.54    1.95
  -5   1  -2   11.72    1.38
  -5  -1  -2   17.34    1.53
   5   1   2   15.83    1.62
   6   1   2  451.20    7.15
  -6   1  -2  420.49    5.22
  -6  -1  -2  466.93    6.39
  -6   1  -2  465.16    6.45
  -7   1  -2  218.33    4.01
  -7  -1  -2  215.77    4.80
  -7   1  -2  209.29    4.80
  -8  -1  -2   43.96    2.10
  -8   1  -2   35.79    2.05
  -8  -1  -2   35.66    2.50
  -8   1  -2   34.47    2.63
  -9   1  -2  165.84    5.23
  -9  -1  -2  171.99    3.96
  -9   1  -2  177.97    4.25
  -9  -1  -2  169.95    5.21
 -10  -1  -2  195.66    5.65
 -10   1  -2  184.34    4.19
 -10   1  -2  212.50    6.12
 -10  -1  -2  210.72    4.48
 -11  -1  -2  102.65    3.58
 -11   1  -2   81.86    4.51
 -11  -1  -2   83.02    4.38
 -11   1  -2   89.99    3.58
 -12   1  -2  331.54    8.58
 -12  -1  -2  324.14    8.43
 -12   1  -2  331.92    6.50
 -12  -1  -2  320.62    5.93
 -13  -1  -2   88.15    3.55
 -13  -1  -2   88.72    4.97
 -13   1  -2   82.32    4.92
 -13   1  -2   87.13    3.71
 -14  -1  -2   24.10    2.41
 -14   1  -2   20.58    2.35
 -14  -1  -2   22.25    3.35
 -14   1  -2   20.63    3.43
 -15   1  -2    7.97    3.03
 -15  -1  -2   12.52    3.42
 -16   1  -2   10.49    3.80
 -16  -1  -2   14.34    3.66
 -17  -2   2   20.73    4.50
 -17   2   2   24.81    5.11
 -16  -2   2  143.88    8.02
 -16   2   2  151.11    8.77
 -15  -2   2    4.35    2.78
 -15   2   2    3.01    3.08
 -14  -2   2  188.27    7.88
 -14   2   2  181.92    8.35
 -13  -2   2    2.82    2.27
 -13   2   2    1.68    2.72
 -12   2   2  542.86   12.49
 -12  -2   2  532.17   11.16
 -11  -2   2  835.45    4.68
 -11  -2   2  992.14   14.15
 -11   2   2  998.24   15.95
 -11  -2   2  779.48    7.23
 -10  -2   2  474.64    3.14
 -10   2   2  566.39   11.36
 -10  -2   2  554.13   10.08
 -10  -2   2  431.51    5.42
  -9  -2   2    6.58    0.43
  -9  -2   2    8.01    1.88
  -9   2   2    7.99    2.15
  -9  -2   2    5.13    0.70
  -8  -2   2  203.14    5.46
  -8   2   2  197.68    6.17
  -7  -2   2   82.93    3.35
  -7   2   2   83.33    3.89
  -6   2   2  585.26    9.40
   6   2  -2  591.89    6.44
  -6  -2   2  587.29    7.71
  -5   2   2  158.65    4.74
   5  -2  -2  148.17    3.67
   5   2  -2  148.18    2.99
  -5  -2   2  141.41    3.52
  -4  -2   2 1088.34    4.01
  -4   2   2 1039.45   11.39
   4  -2  -2 1068.06    9.52
   4   2  -2 1100.67    7.31
   4   2  -2  968.71    7.15
  -4  -2   2 1039.41    8.68
  -3   2   2 1630.16   13.85
  -3  -2   2 1896.74    5.51
   3   2  -2 1815.63    8.33
   3  -2  -2 1711.43    9.01
  -3   2   2 1617.84    6.49
  -3  -2   2 1749.28   10.23
   3  -2  -2 1733.86   12.22
   3   2  -2 1893.13    8.42
   2   2  -2 1868.93    7.39
   2  -2  -2 1883.69    9.88
   2   2  -2 1968.84    8.13
  -2   2   2 1721.50    7.96
  -2  -2   2 1811.85    6.05
  -2  -2   2 1865.57    9.86
   2  -2  -2 1958.25   13.76
  -2   2   2 1833.82   15.62
   1  -2  -2 3959.44   22.81
  -1   2   2 3791.32   24.55
  -1  -2   2 3779.20    9.42
   1  -2  -2 3813.50   15.02
  -1   2   2 3865.47   13.82
   1   2  -2 3946.54   10.92
   0  -2   2 2490.41    4.47
   0  -2  -2 2515.56    6.56
   0   2   2 2421.02   11.99
   0   2  -2 2379.25    8.60
   0   2  -2 2478.31    4.86
   0  -2   2 2483.82    8.37
   0  -2  -2 2485.12   12.98
   1   2   2 2621.25    6.97
   1   2   2 2610.14   13.29
  -1  -2  -2 2730.65    7.44
   1  -2   2 2563.32    6.18
  -1   2  -2 2536.88    6.83
  -1  -2  -2 2583.47   14.17
  -1   2  -2 2587.10    9.86
   2   2   2 1507.14   10.79
  -2  -2  -2 1524.52    6.54
  -2   2  -2 1353.11    7.47
   2  -2   2 1518.49    6.00
   2   2   2 1461.80    5.97
  -2   2  -2 1451.44   10.21
  -2   2  -2 1482.38    6.75
  -3  -2  -2 2307.22    9.43
   3   2   2 2202.35    8.34
   3  -2   2 2336.24    8.85
  -3   2  -2 2305.19   10.09
  -3   2  -2 2277.89   10.43
  -3   2  -2 2320.12   13.65
  -3  -2  -2 2344.31   15.24
   3   2   2 2275.22   13.99
   4   2   2  231.89    4.81
  -4   2  -2  228.75    3.57
   4   2   2  224.00    3.00
  -4   2  -2  223.20    3.68
   4  -2   2  219.85    3.09
  -4   2  -2  250.31    4.91
  -4  -2  -2  226.67    3.46
  -4  -2  -2  218.89    5.15
  -5   2  -2  698.55    6.47
   5   2   2  739.06    8.73
  -5   2  -2  726.77    8.81
  -5   2  -2  717.34    7.33
  -5  -2  -2  643.05    6.53
  -6   2  -2   91.21    3.00
  -6   2  -2   91.10    2.61
  -6  -2  -2   96.64    2.96
   6   2   2   89.43    3.44
  -7   2  -2   75.96    2.58
  -7  -2  -2   78.01    2.93
  -7   2  -2   80.80    3.20
   7   2   2   75.58    3.19
  -8  -2  -2   61.61    2.98
  -8   2  -2   57.72    3.04
  -8   2  -2   65.04    2.46
  -9   2  -2  529.59    6.93
  -9  -2  -2  543.49    6.63
  -9  -2  -2  548.55    8.74
  -9   2  -2  547.15    9.08
 -10   2  -2    2.33    1.83
 -10  -2  -2    6.25    1.99
 -10  -2  -2   10.24    1.57
 -10   2  -2    4.36    1.36
 -11  -2  -2  385.88    6.27
 -11  -2  -2  394.30    8.66
 -11   2  -2  365.83    8.69
 -11   2  -2  367.88    6.57
 -12  -2  -2   37.31    3.40
 -12  -2  -2   42.82    2.60
 -12   2  -2   37.46    2.70
 -12   2  -2   32.21    3.34
 -13  -2  -2   98.61    5.18
 -13  -2  -2   96.31    3.55
 -13   2  -2   95.64    3.89
 -13   2  -2   98.30    5.49
 -14  -2  -2   12.85    2.85
 -14  -2  -2   11.11    1.91
 -14   2  -2   10.48    2.08
 -14   2  -2   14.42    3.16
 -15   2  -2  141.68    7.34
 -15  -2  -2  153.97    7.09
 -16  -2  -2   16.58    3.76
 -16   2  -2   14.93    3.94
 -17  -3   2   49.64    5.58
 -17   3   2   49.24    6.15
 -16   3   2   62.77    6.20
 -16  -3   2   58.85    5.53
 -15   3   2   77.76    6.35
 -15  -3   2   86.27    6.07
 -14  -3   2    9.43    2.69
 -14   3   2   15.16    3.47
 -13  -3   2   20.48    3.08
 -13   3   2   16.59    3.17
 -12  -3   2  211.55    7.15
 -12   3   2  196.75    7.90
 -11   3   2   82.45    5.05
 -11  -3   2   80.82    4.37
 -11  -3   2   58.50    2.37
 -10  -3   2   78.47    3.99
 -10   3   2   92.46    4.90
 -10  -3   2   69.24    2.56
  -9  -3   2  848.34   11.31
  -9   3   2  861.32   13.59
  -8  -3   2 1333.93   13.17
  -8   3   2 1327.24   16.14
  -8  -3   2 1298.82    8.96
  -7  -3   2  116.67    3.72
   7   3  -2   83.03    1.61
  -7  -3   2  106.61    2.30
  -7   3   2  122.47    4.93
  -6   3   2  795.23   11.41
  -6  -3   2  776.71    8.39
  -6  -3   2  748.11    5.16
   6   3  -2  777.92    6.93
   5  -3  -2   19.17    1.74
  -5   3   2   23.94    2.42
   5   3  -2   15.48    1.17
  -4   3   2  346.98    6.97
   4   3  -2  334.66    4.98
  -4  -3   2  364.06    3.02
  -4  -3   2  301.07    4.31
   4  -3  -2  360.32    6.05
   4   3  -2  357.10    3.85
   4  -3  -2  337.73    4.14
   3   3  -2  909.97    5.36
  -3   3   2  933.78    6.15
  -3   3   2  952.50   11.73
   3  -3  -2  944.59   10.06
   3  -3  -2  992.00    8.01
  -3  -3   2  932.63    4.93
  -3  -3   2  926.84    6.74
   3   3  -2  966.63    7.22
  -2   3   2  915.70   11.83
  -2   3   2  867.95    6.61
   2  -3  -2  920.50   10.55
   2  -3  -2  921.61    7.92
   2   3  -2  950.38    6.25
   2   3  -2  968.97    4.54
  -2  -3   2 1039.06    5.61
  -2  -3   2  969.88    6.24
  -1   3   2  167.03    5.77
   1   3  -2  138.49    2.41
  -1   3   2  160.47    3.10
   1  -3  -2  157.44    3.45
  -1  -3   2  141.46    2.06
   1  -3  -2  156.97    4.97
   0  -3  -2 2171.76   19.96
   0  -3   2 2042.68    8.12
   0   3   2 2019.91   11.56
   0   3  -2 1932.60    4.14
   0   3  -2 2015.43    9.06
   0  -3  -2 2001.97    6.27
   0  -3  -2 2137.79   13.07
   0  -3   2 2023.80    3.66
  -1  -3  -2 4933.28   10.61
   1  -3   2 4734.94   12.95
  -1   3  -2 4832.52   14.35
  -1  -3  -2 4797.19   20.93
  -1   3  -2 4728.93    9.84
   1  -3   2 4893.35    8.45
   1   3   2 4619.96   19.07
   2   3   2 4543.23   20.29
   2   3   2 4242.06   10.33
  -2   3  -2 4120.17   13.63
   2  -3   2 4428.66   10.33
  -2   3  -2 4239.84   11.85
   2  -3   2 4236.59   12.82
  -2  -3  -2 4277.77   11.22
  -3   3  -2  433.76    6.10
  -3   3  -2  478.56    4.86
   3   3   2  459.81    3.91
   3   3   2  488.92    6.80
  -3  -3  -2  477.92    4.36
   3  -3   2  483.71    4.08
  -3  -3  -2  483.68    7.46
  -3   3  -2  473.79    5.00
  -4   3  -2  569.80    7.39
  -4  -3  -2  531.99    5.25
   4   3   2  494.61    4.39
   4  -3   2  520.86    4.83
   4   3   2  516.47    7.28
  -4   3  -2  512.17    5.73
  -4  -3  -2  514.90    8.27
  -4   3  -2  520.48    5.56
  -5   3  -2   25.62    1.47
  -5  -3  -2   29.06    1.58
  -5   3  -2   27.30    1.73
   5   3   2   37.00    2.26
  -6  -3  -2  245.33    4.51
  -6   3  -2  237.40    4.11
  -6   3  -2  227.19    4.74
   6   3   2  226.66    5.22
  -7  -3  -2   79.45    3.28
   7   3   2   85.60    3.44
  -7   3  -2   77.69    2.66
  -7   3  -2   71.48    3.18
  -8   3  -2   17.35    1.61
  -8   3  -2   17.95    2.03
  -8  -3  -2   21.39    2.06
   8   3   2   21.59    2.09
  -9   3  -2   29.11    2.02
  -9  -3  -2   30.78    2.53
  -9   3  -2   25.63    2.52
 -10   3  -2  355.14    8.03
 -10   3  -2  382.01    6.80
 -10  -3  -2  356.28    7.47
 -10  -3  -2  368.49    5.71
 -11  -3  -2  281.20    7.35
 -11  -3  -2  311.05    5.63
 -11   3  -2  267.03    5.82
 -11   3  -2  262.64    7.53
 -12   3  -2  255.13    5.96
 -12  -3  -2  250.89    7.25
 -12  -3  -2  239.27    5.15
 -12   3  -2  229.91    7.33
 -13   3  -2   27.75    3.47
 -13  -3  -2   44.19    2.80
 -13   3  -2   33.08    2.75
 -13  -3  -2   31.37    3.50
 -14  -3  -2    4.52    2.74
 -14   3  -2    3.42    1.86
 -14  -3  -2    6.26    1.63
 -14   3  -2    3.96    2.73
 -15   3  -2    2.61    2.96
 -15  -3  -2    5.54    3.03
 -16  -3  -2   66.59    5.52
 -16   3  -2   58.18    5.85
 -17   4   2    4.64    3.90
 -17  -4   2    0.74    3.24
 -16   4   2  230.76   10.92
 -16  -4   2  220.83    9.40
 -15   4   2  109.75    7.59
 -15  -4   2  103.77    6.33
 -14  -4   2    0.80    2.20
 -14   4   2    2.25    3.16
 -13  -4   2  185.30    6.91
 -13   4   2  182.57    8.21
 -12  -4   2 1456.22   17.73
 -12   4   2 1461.93   20.99
 -11  -4   2   73.81    4.03
 -11   4   2   67.11    4.74
 -10   4   2  274.56    4.27
 -10  -4   2  381.03    6.32
 -10  -4   2  363.40    2.97
 -10  -4   2  392.37    8.06
 -10   4   2  403.36   10.12
 -10   4   2  308.99    3.88
   9   4  -2  322.46    3.73
  -9   4   2  262.69    4.18
  -9  -4   2  319.17    7.02
  -9   4   2  283.15    3.40
  -9   4   2  349.90    8.97
  -9  -4   2  317.75    5.51
  -8  -4   2   15.83    1.35
  -8   4   2   12.27    0.71
  -8   4   2   11.88    1.02
  -8  -4   2   17.09    1.84
   8   4  -2   15.27    0.96
  -8   4   2   18.85    2.61
  -7   4   2  143.03    1.90
   7   4  -2  162.08    2.79
  -7  -4   2  199.38    4.59
  -7   4   2  185.63    6.10
  -7  -4   2  174.69    3.46
  -6  -4   2 2498.01   11.85
  -6  -4   2 2527.61   14.61
   6   4  -2 2509.97   12.00
  -6   4   2 2495.49   20.96
   6   4  -2 2489.17   12.04
  -5  -4   2 2713.19   11.06
   5  -4  -2 2639.38   16.66
   5   4  -2 2668.19   11.18
  -5   4   2 2668.67   20.95
  -5  -4   2 2659.40   13.58
   5   4  -2 2631.28   14.24
   5  -4  -2 2632.56    8.53
   4   4  -2  180.35    4.26
  -4   4   2  169.74    3.04
  -4  -4   2  182.20    3.18
  -4  -4   2  190.65    2.80
   4  -4  -2  182.14    4.59
   4   4  -2  192.96    2.74
  -4   4   2  170.40    5.26
   4  -4  -2  182.84    3.62
  -3   4   2  352.44    7.54
   3   4  -2  343.39    2.97
   3  -4  -2  379.19    5.86
  -3  -4   2  368.42    3.64
  -3  -4   2  341.61    3.71
   3  -4  -2  355.83    6.60
   3   4  -2  355.16    5.19
  -3   4   2  388.76    4.87
  -2   4   2  462.65    9.20
   2   4  -2  473.58    5.32
  -2   4   2  459.33    5.57
  -2  -4   2  458.89    4.13
   2   4  -2  454.92    2.53
   2  -4  -2  476.06    6.54
   2  -4  -2  480.88    8.24
   1   4  -2   25.25    1.28
  -1   4   2   44.49    3.57
  -1   4   2   51.20    2.06
   1  -4  -2   38.50    2.99
   1  -4  -2   46.24    2.20
  -1  -4   2   27.14    1.11
   0   4  -2 9717.96   21.73
   0  -4  -2 9813.56   30.58
   0  -4  -2 9803.51   44.72
   0   4   2 9610.51   28.14
   0  -4   2 9805.87   19.30
  -2   4  -2 6845.43   19.42
   2  -4   2 6704.40   13.23
   2  -4   2 6153.15   16.10
  -2   4  -2 6478.54   15.62
  -2  -4  -2 6153.33   26.16
   2   4   2 6478.18   24.93
   3   4   2  104.81    3.48
  -3   4  -2   99.55    2.56
   3  -4   2   97.46    2.24
  -3  -4  -2  106.70    2.14
   3  -4   2  104.42    2.03
  -3   4  -2   99.35    2.36
  -3  -4  -2   96.59    3.67
   3   4   2  103.74    1.87
  -4   4  -2   88.69    3.11
  -4  -4  -2   72.19    2.07
  -4   4  -2   69.81    2.25
   4   4   2   72.48    3.06
   4  -4   2   72.97    1.98
  -4  -4  -2   73.83    3.44
  -4   4  -2   73.85    2.37
   4   4   2   65.56    1.74
  -5   4  -2  442.77    5.69
  -5  -4  -2  447.25    5.33
  -5   4  -2  424.56    6.07
   5   4   2  410.85    7.09
  -6   4  -2  825.86    9.18
  -6  -4  -2  850.64    8.25
  -6   4  -2  832.10    8.13
   6   4   2  808.91    9.93
   7   4   2 4636.91   24.35
  -7  -4  -2 4837.76   21.28
  -7   4  -2 4687.80   23.57
  -7   4  -2 4826.80   20.29
  -8  -4  -2  721.89    9.02
  -8   4  -2  733.35    8.37
   8   4   2  707.93    9.93
  -8   4  -2  681.40    9.83
  -9   4  -2    5.76    1.32
  -9  -4  -2    8.94    1.74
  -9   4  -2    5.48    1.74
   9   4   2    2.81    1.50
 -10   4  -2  183.26    4.66
 -10   4  -2  168.62    5.79
 -10  -4  -2  185.15    5.49
 -11  -4  -2  877.57   12.41
 -11   4  -2  851.61   13.37
 -11   4  -2  867.54   10.55
 -11  -4  -2  905.13    9.32
 -12  -4  -2   48.63    3.66
 -12  -4  -2   52.86    2.75
 -12   4  -2   36.86    2.67
 -12   4  -2   35.35    3.51
 -13   4  -2  470.95    8.68
 -13   4  -2  449.68   11.08
 -13  -4  -2  478.40    7.54
 -13  -4  -2  468.53   10.61
 -14  -4  -2   98.54    3.79
 -14   4  -2   94.75    4.42
 -14   4  -2   90.66    5.78
 -14  -4  -2  101.75    5.57
 -15  -4  -2   11.88    3.12
 -15   4  -2    9.69    3.15
 -16   4  -2   13.87    3.83
 -16  -4  -2    7.84    3.30
 -17   5   2   81.01    7.46
 -17  -5   2   74.99    6.09
 -16   5   2   45.85    5.64
 -16  -5   2   44.64    4.70
 -15  -5   2    2.02    2.51
 -15   5   2   -1.30    3.19
 -14   5   2   54.59    5.52
 -14  -5   2   43.96    4.18
 -13  -5   2   18.02    2.79
 -13   5   2   22.19    3.80
 -12  -5   2  122.39    5.33
 -12   5   2  135.64    7.00
 -11  -5   2  451.12    9.19
 -11  -5   2  436.43    3.62
 -11   5   2  452.87   11.70
 -10  -5   2  198.11    5.73
  10   5  -2  213.17    3.37
 -10   5   2  166.26    3.10
 -10   5   2  196.65    7.62
 -10  -5   2  199.59    5.06
  -9   5   2   84.29    2.00
  -9  -5   2   98.78    3.84
   9   5  -2   96.21    2.35
  -9   5   2  106.82    5.58
  -9  -5   2   90.03    3.33
  -8   5   2  105.72    1.93
   8   5  -2   84.26    2.31
  -8   5   2  113.24    5.44
  -8  -5   2   95.83    3.27
  -8  -5   2  102.76    3.65
   7   5  -2  362.36    4.90
   7  -5  -2  295.94    2.37
  -7  -5   2  334.39    5.40
  -7  -5   2  337.14    5.83
  -7   5   2  336.14    8.53
  -6  -5   2  377.76    5.40
  -6  -5   2  367.98    5.55
   6  -5  -2  364.53    3.03
   6   5  -2  323.73    5.20
  -6   5   2  386.95    8.91
   6   5  -2  363.91    4.49
  -6   5   2  383.71    5.43
  -5  -5   2 1592.90   10.22
   5   5  -2 1673.86   12.95
  -5  -5   2 1657.48   10.31
  -5   5   2 1717.74   11.14
   5   5  -2 1633.79    8.44
   5  -5  -2 1701.53    8.82
  -5   5   2 1645.96   17.11
   4   5  -2  566.55    8.21
   4   5  -2  571.03    4.32
  -4  -5   2  585.62    5.77
  -4   5   2  585.10    6.61
  -4  -5   2  583.09    5.34
   4  -5  -2  588.04    8.65
  -4   5   2  576.79   10.20
   4  -5  -2  570.63    7.11
  -3   5   2    8.38    2.21
   3   5  -2    8.41    0.53
   3  -5  -2    9.33    1.54
  -3  -5   2    8.20    0.91
   3   5  -2    6.67    1.42
  -3   5   2    7.29    1.19
  -3  -5   2    8.39    0.72
   3  -5  -2    9.39    1.66
  -2   5   2   86.49    4.67
   2   5  -2   67.22    0.82
   2   5  -2   69.41    2.52
   2  -5  -2   83.33    3.22
  -2   5   2   79.26    2.69
   2  -5  -2   77.34    3.74
  -2  -5   2   72.89    1.86
   1  -5  -2 1535.44   16.76
   1   5  -2 1552.38   10.03
  -1   5   2 1488.00   18.49
  -1   5   2 1494.83   11.68
  -1  -5   2 1487.75    8.35
   1  -5  -2 1612.76   13.25
   0  -5  -2  277.41    2.62
   0   5   2  243.78    5.00
   0  -5   2  257.06    3.50
   0  -5  -2  239.14    7.83
   0   5  -2  258.61    4.05
   0  -5  -2  247.79    5.39
  -1   5  -2 1099.24    5.56
  -1  -5  -2 1106.83    5.43
  -1   5  -2 1141.19    8.27
   1  -5   2 1130.93    7.24
   1   5   2 1199.99   11.12
   1   5   2 1097.20    5.20
   1  -5   2 1109.59    4.44
  -2  -5  -2 8589.93   32.76
  -2   5  -2 8532.45   23.08
   2  -5   2 8462.75   15.70
   2   5   2 8494.03   30.44
   2  -5   2 8664.78   20.71
   3  -5   2  941.60    6.22
  -3   5  -2  910.51    7.20
  -3  -5  -2  927.85    6.08
  -3   5  -2  927.35    7.89
   3  -5   2  918.20    6.93
   3   5   2  909.86   10.19
  -3  -5  -2  944.25   11.41
   3   5   2  942.22    5.64
  -4  -5  -2  247.32    6.24
   4  -5   2  257.40    3.85
  -4   5  -2  266.38    4.55
   4  -5   2  273.12    3.84
  -4  -5  -2  313.15    4.10
   4   5   2  259.01    5.76
  -4   5  -2  275.61    4.55
  -5   5  -2  164.27    3.73
  -5  -5  -2  176.99    3.38
   5   5   2  181.82    4.89
  -5   5  -2  175.32    4.07
   6   5   2 1951.19   16.10
  -6   5  -2 1956.69   12.99
  -6  -5  -2 1899.53   12.06
  -6   5  -2 1936.60   14.42
  -7   5  -2  930.22    9.35
  -7  -5  -2  950.34    9.60
  -7   5  -2  936.32   10.85
   7   5   2  903.72   11.05
  -8   5  -2  183.60    5.39
  -8   5  -2  181.17    4.41
  -8  -5  -2  198.91    5.00
   8   5   2  173.43    5.10
   9   5   2   97.20    4.05
  -9  -5  -2  113.32    3.99
  -9   5  -2  106.47    3.61
  -9   5  -2  112.03    4.69
 -10  -5  -2    7.67    1.92
 -10   5  -2    5.52    1.46
  10   5   2    9.01    1.81
 -10   5  -2    3.58    1.91
 -11   5  -2  210.42    6.87
 -11   5  -2  216.66    5.58
 -11  -5  -2  238.59    6.64
 -12  -5  -2  528.27    7.48
 -12   5  -2  495.39    8.78
 -12  -5  -2  515.21   10.08
 -12   5  -2  484.49   10.97
 -13   5  -2   66.18    4.83
 -13   5  -2   77.99    4.08
 -13  -5  -2   92.18    3.61
 -13  -5  -2   86.75    5.05
 -14  -5  -2   11.09    2.68
 -14  -5  -2   17.42    2.05
 -14   5  -2   13.17    2.40
 -14   5  -2   13.06    3.14
 -15  -5  -2    6.61    2.94
 -15   5  -2    7.40    3.54
 -16   5  -2    9.57    3.84
 -16  -5  -2    5.96    3.19
 -17   6   2   22.66    5.18
 -17  -6   2   26.35    4.57
 -16  -6   2  101.18    6.48
 -16   6   2   97.51    7.57
 -15   6   2    6.00    3.32
 -15  -6   2    3.83    2.69
 -14  -6   2  159.35    6.73
 -14   6   2  164.41    8.53
 -13   6   2   10.30    3.26
 -13  -6   2    7.32    2.37
 -12  -6   2  208.43    6.68
 -12   6   2  210.16    8.62
 -11   6   2  935.31   16.75
 -11  -6   2  968.46   13.23
  10   6  -2  193.94    3.60
 -10   6   2  177.58    3.25
 -10   6   2  177.77    7.32
 -10  -6   2  181.63    5.42
 -10  -6   2  168.74    4.99
  -9   6   2   62.59    2.83
   9   6  -2   72.46    2.37
  -9   6   2   71.66    1.90
  -9  -6   2   61.20    3.08
  -9   6   2   61.12    4.47
  -9  -6   2   62.20    3.03
  -8  -6   2  744.42    9.27
  -8   6   2  664.64    8.55
  -8  -6   2  713.79    9.30
   8   6  -2  732.48    7.35
  -8   6   2  727.47   13.21
   7   6  -2   79.82    2.79
   7  -6  -2   72.11    1.43
  -7   6   2   78.99    3.00
  -7  -6   2   67.78    2.69
  -7   6   2   76.17    4.58
  -7  -6   2   69.72    2.84
  -6   6   2  810.57    9.05
   6   6  -2  842.89    9.40
  -6  -6   2  823.96    8.01
   6  -6  -2  815.99    5.50
   6   6  -2  773.28    6.21
  -6  -6   2  770.70    8.45
  -6   6   2  811.84   13.23
  -5   6   2 1149.89   10.45
   5  -6  -2 1106.62    8.38
  -5  -6   2 1016.11    9.08
  -5  -6   2 1018.77    7.88
   5   6  -2 1046.86   11.36
   5   6  -2 1043.40    6.38
  -5   6   2 1068.24   14.49
   4   6  -2 2461.87   18.46
   4   6  -2 2431.73    8.23
  -4  -6   2 2507.42   10.62
  -4  -6   2 2456.66   13.29
  -4   6   2 2534.54   15.56
   4  -6  -2 2494.31   18.35
   4  -6  -2 2488.59   16.10
  -4   6   2 2436.85   22.41
   3  -6  -2  171.21    4.83
  -3  -6   2  150.95    3.22
   3   6  -2  148.66    4.38
   3   6  -2  155.70    1.70
  -3  -6   2  158.53    2.19
  -3   6   2  154.42    4.01
   3  -6  -2  151.46    4.84
  -3   6   2  151.50    5.83
   2  -6  -2 1073.33   11.80
   2   6  -2  971.46    2.76
   2  -6  -2 1031.28   13.09
  -2  -6   2 1006.59    7.60
   2   6  -2 1031.80    9.94
  -2   6   2  988.65   14.98
  -2   6   2 1050.32   10.44
  -1   6   2  852.65   14.88
   1   6  -2  854.12    8.52
   1  -6  -2  924.49   10.92
  -1  -6   2  868.50    7.13
   1  -6  -2  851.71   13.10
  -1   6   2  888.82    9.73
   0  -6  -2  186.88    5.12
   0  -6  -2  190.30    7.43
   0   6   2  178.93    4.63
   0  -6  -2  215.55    2.45
   0   6  -2  206.25    4.05
   0  -6   2  204.39    3.42
  -1   6  -2  444.53    5.79
   1   6   2  468.56    7.52
  -1  -6  -2  447.66    3.61
  -1  -6  -2  445.12    7.77
   1  -6   2  458.48    5.05
  -1   6  -2  441.72    4.11
   1  -6   2  445.12    3.05
   1   6   2  429.86    3.43
   2  -6   2  122.64    2.65
   2   6   2  132.34    2.04
  -2  -6  -2  137.92    2.17
   2   6   2  132.60    4.20
  -2   6  -2  122.59    3.14
   2  -6   2  134.17    2.15
  -2   6  -2  134.90    2.62
  -2  -6  -2  126.75    4.45
  -3  -6  -2  277.26    6.64
   3   6   2  257.86    3.00
  -3   6  -2  261.03    4.55
  -3  -6  -2  262.44    3.29
   3  -6   2  263.02    3.43
   3   6   2  296.71    6.30
   3  -6   2  261.10    3.94
  -3   6  -2  251.84    4.09
  -4   6  -2   22.96    1.55
   4  -6   2   19.51    1.27
  -4  -6  -2   28.93    1.53
   4   6   2   21.31    2.06
   4  -6   2   20.28    1.22
  -4   6  -2   22.70    1.69
   5   6   2  378.68    7.23
  -5   6  -2  363.28    5.65
  -5  -6  -2  404.01    5.07
  -5   6  -2  381.15    6.07
  -6   6  -2    9.77    1.43
  -6   6  -2    6.25    1.41
   6   6   2    8.31    1.76
  -6  -6  -2    9.57    1.33
   7   6   2  894.19   11.40
  -7  -6  -2  842.04    8.87
  -7   6  -2  823.92    9.17
  -7   6  -2  794.67   10.39
  -8   6  -2  106.70    4.24
  -8  -6  -2  103.29    3.64
   8   6   2  100.13    4.11
  -8   6  -2   99.74    3.49
  -9  -6  -2  542.45    8.42
   9   6   2  511.45    9.04
  -9   6  -2  521.90    9.69
  -9   6  -2  522.38    7.93
 -10   6  -2    2.58    1.45
 -10   6  -2    3.41    1.84
 -10  -6  -2    3.76    1.69
  10   6   2    4.63    1.76
 -11   6  -2  461.58    8.25
 -11  -6  -2  462.03    8.92
 -11   6  -2  425.22    9.91
  11   6   2  470.43    9.26
 -12  -6  -2   70.99    2.99
 -12   6  -2   67.16    3.79
 -12  -6  -2   69.72    4.31
 -12   6  -2   58.58    4.37
 -13   6  -2  372.52   10.42
 -13  -6  -2  388.22    6.76
 -13   6  -2  381.61    8.32
 -14  -6  -2  106.41    5.60
 -14  -6  -2  107.16    3.89
 -14   6  -2   88.39    5.95
 -14   6  -2   96.59    4.67
 -15   6  -2   11.27    3.81
 -15  -6  -2   11.49    3.01
 -16   6  -2   26.03    4.32
 -16  -6  -2   22.82    3.81
 -17  -7   2   98.49    6.81
 -17   7   2  106.52    8.74
 -16   7   2    7.91    4.42
 -16  -7   2   15.78    3.45
 -15  -7   2    4.05    2.61
 -15   7   2    6.23    3.76
 -14   7   2   75.52    6.29
 -14  -7   2   70.50    4.75
 -13  -7   2  263.72    7.81
 -13   7   2  267.92   10.41
 -12   7   2   50.46    4.75
 -12  -7   2   41.22    3.28
  11   7  -2 1116.75    8.98
 -11  -7   2 1039.87   13.46
 -11   7   2 1021.25   18.34
 -10   7   2  307.77    6.54
 -10   7   2  358.37    4.69
 -10   7   2  332.03   10.09
 -10  -7   2  350.29    7.27
 -10  -7   2  349.91    7.57
  -9  -7   2    2.94    1.29
  -9  -7   2    1.94    1.41
   9   7  -2    4.77    1.08
  -9   7   2    2.80    0.72
  -9   7   2    1.28    1.22
  -9   7   2    3.79    2.49
  -8   7   2   67.20    3.18
   8   7  -2   62.58    2.64
  -8  -7   2   66.05    3.32
   8  -7  -2   71.55    1.56
  -8  -7   2   77.18    3.18
  -8   7   2   77.23    4.93
  -7   7   2   96.84    3.64
   7  -7  -2   99.85    1.98
  -7  -7   2  104.85    3.25
  -7   7   2  103.77    5.24
  -7  -7   2   98.24    3.62
   7   7  -2  107.96    3.55
   6   7  -2  649.28    9.01
  -6  -7   2  575.46    8.06
  -6   7   2  585.04    8.57
  -6  -7   2  646.83    6.95
   6  -7  -2  629.92    5.70
  -6   7   2  611.09   11.75
   6   7  -2  593.37    5.25
   5   7  -2   36.45    2.75
   5   7  -2   29.32    1.14
  -5  -7   2   17.11    1.69
  -5   7   2   15.95    1.91
  -5  -7   2   19.00    1.28
   5  -7  -2   28.84    1.74
  -5   7   2   16.36    2.67
   4  -7  -2 3031.19   21.30
   4   7  -2 3126.25   22.55
  -4   7   2 3094.76   19.30
  -4   7   2 3119.32   26.23
  -4  -7   2 3092.40   16.55
  -4  -7   2 3058.05   11.14
   4   7  -2 3122.50    9.07
   4  -7  -2 3171.69   19.63
   3  -7  -2   66.71    3.40
   3   7  -2   54.25    1.00
  -3   7   2   56.90    4.02
  -3   7   2   65.06    3.04
  -3  -7   2   51.24    2.23
   3   7  -2   50.31    3.06
  -3  -7   2   50.18    1.25
   3  -7  -2   53.62    3.15
  -2   7   2  131.85    6.10
   2  -7  -2  136.77    4.84
  -2  -7   2  129.43    3.15
   2  -7  -2  124.57    5.01
   2   7  -2  132.97    1.04
  -2   7   2  135.16    4.21
   2   7  -2  143.48    4.35
   1  -7  -2 1357.65   17.42
  -1   7   2 1400.31   19.99
  -1  -7   2 1458.51    9.74
   1   7  -2 1419.91   12.07
   1  -7  -2 1429.72   14.56
  -1   7   2 1360.05   13.05
   0  -7  -2  381.79   10.35
   0  -7   2  409.15    5.11
   0   7   2  394.71    7.27
   0  -7  -2  422.80    3.54
   0  -7   2  382.85    2.43
   0   7  -2  415.93    6.34
   0  -7  -2  400.29    7.85
   0   7  -2  431.91    4.65
   1   7   2  351.68    6.89
   1  -7   2  277.75    4.33
  -1  -7  -2  295.26    3.04
   1   7   2  285.39    2.89
  -1   7  -2  301.70    5.17
   1  -7   2  309.60    2.86
  -1   7  -2  316.98    4.20
  -1  -7  -2  340.95    7.33
  -2  -7  -2  158.80    2.43
   2  -7   2  157.74    2.46
  -2   7  -2  154.62    3.77
   2   7   2  166.19    5.05
   2  -7   2  151.31    3.13
   2   7   2  142.71    2.15
  -2   7  -2  156.89    3.15
  -2  -7  -2  163.81    5.35
   3   7   2   58.35    3.27
  -3  -7  -2   60.57    1.71
   3  -7   2   54.06    1.99
   3   7   2   41.11    1.31
  -3   7  -2   60.04    2.47
   3  -7   2   53.88    1.73
  -3   7  -2   55.17    2.17
  -3  -7  -2   60.21    3.49
   4   7   2    8.15    1.76
   4  -7   2    7.18    0.93
  -4  -7  -2    4.78    0.85
  -4   7  -2    7.10    1.24
  -4   7  -2    5.72    1.14
  -5  -7  -2  477.25    5.58
  -5   7  -2  472.64    6.82
  -5   7  -2  442.86    6.80
   6   7   2  843.81   11.17
  -6   7  -2  803.19    9.89
  -6  -7  -2  837.93    8.05
  -6   7  -2  839.86    9.26
  -7   7  -2   73.28    3.01
  -7   7  -2   65.56    3.25
  -7  -7  -2   76.08    2.75
   7   7   2   69.88    3.44
  -8   7  -2  257.87    5.63
  -8   7  -2  267.63    6.69
  -8  -7  -2  272.13    5.76
   8   7   2  264.04    6.60
  -9   7  -2    2.77    1.36
  -9   7  -2    4.11    1.72
   9   7   2    5.50    1.66
 -10  -7  -2    6.46    1.79
  10   7   2    5.73    1.72
 -10   7  -2    3.48    1.76
 -10   7  -2    6.67    1.63
 -11   7  -2   10.80    1.92
  11   7   2   15.52    2.30
 -11  -7  -2   15.69    2.74
 -11   7  -2    9.92    2.33
 -12   7  -2  144.48    5.23
 -12  -7  -2  151.26    5.70
 -12   7  -2  135.87    6.32
  12   7   2  152.68    5.63
 -13  -7  -2   34.28    2.33
 -13  -7  -2   34.91    3.50
 -13   7  -2   36.05    3.11
 -13   7  -2   37.33    4.14
 -14  -7  -2  126.68    4.11
 -14   7  -2  123.63    5.47
 -14   7  -2  134.80    7.49
 -14  -7  -2  133.94    6.35
 -15  -7  -2  143.79    6.88
 -15   7  -2  134.38    7.80
 -16  -7  -2    4.41    3.05
 -16   7  -2   -0.24    3.41
 -17  -8   2   13.14    3.69
 -16  -8   2   29.08    3.92
 -16   8   2   25.42    4.97
 -15   8   2   15.44    4.51
 -15  -8   2   12.04    2.97
 -14  -8   2  331.86    9.21
 -14   8   2  334.32   12.49
 -13  -8   2  626.35   11.89
 -13   8   2  621.49   16.30
 -12   8   2   11.22    3.38
 -12  -8   2   16.12    2.45
 -11   8   2   72.49    3.59
 -11   8   2   87.17    6.10
  11   8  -2  101.86    3.02
 -11  -8   2   93.39    4.26
 -10   8   2  469.73    8.75
 -10   8   2  515.43    5.94
 -10   8   2  512.78   13.08
 -10  -8   2  551.86    9.17
 -10  -8   2  488.08    9.55
  10   8  -2  548.32    7.11
   9   8  -2   70.61    2.84
  -9   8   2   65.19    3.48
  -9   8   2   69.12    5.04
  -9  -8   2   63.03    3.03
   9  -8  -2   59.58    1.51
  -9  -8   2   63.24    3.58
   8  -8  -2 2502.43    9.83
  -8   8   2 2433.37   19.29
  -8  -8   2 2540.44   16.50
  -8  -8   2 2415.82   19.73
  -8   8   2 2533.21   26.07
  -7   8   2   12.56    1.88
   7   8  -2    3.94    1.27
  -7  -8   2   11.48    1.33
   7  -8  -2   12.69    1.00
  -7   8   2   15.08    2.58
  -7  -8   2   13.41    1.83
   6   8  -2  479.64    4.67
  -6   8   2  443.09    8.15
   6   8  -2  500.90    8.63
   6  -8  -2  514.38    5.95
  -6  -8   2  453.22    7.76
  -6   8   2  473.24   10.89
  -6  -8   2  480.54    5.84
   5   8  -2   39.14    1.26
  -5  -8   2   40.18    1.65
   5   8  -2   47.13    3.18
  -5   8   2   30.87    2.48
  -5  -8   2   36.16    2.32
   5  -8  -2   37.59    2.14
  -5   8   2   39.29    3.69
   4  -8  -2 2469.54   18.59
   4   8  -2 2559.40   21.89
  -4   8   2 2385.76   18.27
  -4  -8   2 2449.50    9.93
   4   8  -2 2432.47    7.73
  -4  -8   2 2439.93   16.19
  -4   8   2 2476.34   24.90
   3  -8  -2  365.95    7.96
  -3   8   2  351.96    9.86
   3   8  -2  343.64    2.36
  -3  -8   2  348.52    3.01
  -3   8   2  359.27    7.23
   3  -8  -2  335.92    7.60
  -3  -8   2  334.46    5.68
   3   8  -2  332.87    7.88
  -2   8   2  740.22   14.36
  -2   8   2  747.46   10.42
  -2  -8   2  689.36    7.68
   2  -8  -2  757.50   11.60
  -2  -8   2  681.94    3.05
   2   8  -2  697.55    2.53
   2   8  -2  722.39   10.25
   2  -8  -2  698.00   11.80
  -1   8   2 2144.42   25.59
  -1  -8   2 2223.31   12.98
   1  -8  -2 2261.36   23.25
   1   8  -2 2191.06   16.53
  -1   8   2 2296.54   18.24
  -1  -8   2 2069.34    8.86
   0   8  -2    7.21    1.14
   0  -8  -2   18.05    2.33
   0   8  -2    9.56    1.56
   0  -8  -2   15.15    3.15
   0  -8  -2   12.06    0.86
   0  -8   2    7.40    0.57
   0  -8   2    9.05    1.10
   0   8   2   16.43    1.95
  -1  -8  -2  175.18    2.44
   1  -8   2  154.83    3.36
  -1  -8  -2  166.22    5.54
   1   8   2  169.44    5.35
  -1   8  -2  159.69    4.29
   1  -8   2  179.10    2.38
  -1   8  -2  173.15    3.41
   2   8   2 1898.01   17.11
   2  -8   2 1843.77   11.27
  -2   8  -2 1862.49   13.61
  -2  -8  -2 1898.92    8.51
   2  -8   2 1877.91    8.84
  -2   8  -2 1864.74   11.68
  -2  -8  -2 1869.29   18.04
   2   8   2 1827.56    7.86
   3  -8   2 1654.02    9.32
  -3   8  -2 1647.38   11.91
   3   8   2 1770.54   16.62
  -3   8  -2 1706.42   13.00
  -3  -8  -2 1676.58    8.69
  -4  -8  -2 1129.11    7.86
   4   8   2 1043.96   13.02
   4  -8   2 1079.84    8.29
  -4   8  -2 1066.40   10.25
  -5  -8  -2 1123.14    8.57
  -5   8  -2 1088.82   11.11
   5   8   2 1158.02   13.56
  -5   8  -2 1105.68   10.83
  -6   8  -2   50.68    2.86
  -6  -8  -2   54.81    2.31
   6   8   2   56.85    3.31
  -6   8  -2   51.41    2.63
  -7   8  -2   43.64    2.62
  -7  -8  -2   31.23    1.95
  -7   8  -2   44.74    2.90
   7   8   2   34.68    2.75
   8   8   2  250.91    6.64
  -8   8  -2  254.84    5.88
  -8   8  -2  260.43    6.76
  -8  -8  -2  262.66    5.40
  -9   8  -2  673.98    9.60
  -9  -8  -2  668.21    9.16
   9   8   2  685.88   10.81
  -9   8  -2  663.88   11.26
 -10  -8  -2    3.13    1.77
 -10   8  -2    2.42    1.48
 -10   8  -2    1.22    1.82
  11   8   2  111.31    4.78
 -11   8  -2  110.92    4.48
 -11  -8  -2  112.28    4.69
 -11   8  -2  106.94    5.51
  12   8   2  187.58    6.33
 -12   8  -2  157.98    5.60
 -12  -8  -2  165.10    5.80
 -12   8  -2  162.92    7.10
 -13   8  -2    5.25    2.05
 -13  -8  -2    5.27    2.30
 -13   8  -2    6.54    2.89
 -14  -8  -2   45.47    4.10
 -14   8  -2   35.67    3.47
 -14  -8  -2   44.45    2.76
 -14   8  -2   39.80    4.65
 -15   8  -2  205.71    9.73
 -15  -8  -2  196.70    7.83
 -16   8  -2   49.62    5.78
 -17  -9   2   -2.67    3.37
 -16   9   2   56.35    6.95
 -16  -9   2   55.77    5.01
 -15   9   2  164.33    9.76
 -15  -9   2  156.79    6.92
 -14  -9   2    6.66    2.38
 -14   9   2    7.49    3.76
 -13  -9   2  523.39   10.83
 -13   9   2  523.91   15.09
 -12   9   2   36.90    4.69
 -12  -9   2   42.76    3.33
 -11   9   2   27.53    2.68
  11   9  -2   44.83    2.29
 -11   9   2   38.35    4.71
 -11  -9   2   35.18    2.86
 -10   9   2  148.83    5.35
 -10  -9   2  155.56    4.82
 -10   9   2  165.94    3.70
  10   9  -2  148.13    4.10
 -10   9   2  158.29    7.70
 -10  -9   2  138.37    5.49
   9  -9  -2  650.99    5.34
  -9   9   2  621.87   10.54
   9   9  -2  744.13    9.53
  -9  -9   2  666.49   11.35
  -9   9   2  712.50   15.04
  -9  -9   2  728.78    9.56
   8   9  -2 1145.38   12.63
   8  -9  -2 1148.68    8.03
  -8   9   2  933.60   12.92
  -8   9   2  980.80   16.92
  -8  -9   2 1017.20   10.44
  -8  -9   2 1005.33   13.50
  -7  -9   2  237.77    4.57
  -7   9   2  215.31    6.17
  -7   9   2  254.65    8.56
   7   9  -2  223.51    6.05
  -7  -9   2  195.70    5.80
   7  -9  -2  240.17    3.96
  -6   9   2  292.79    7.16
  -6   9   2  292.48    9.14
   6   9  -2  306.56    7.47
   6   9  -2  285.28    3.53
  -6  -9   2  285.77    4.45
   6  -9  -2  301.16    5.11
  -6  -9   2  256.74    6.26
   5  -9  -2    9.47    1.46
   5   9  -2    9.74    0.73
   5   9  -2   12.08    2.26
  -5  -9   2    5.07    0.83
  -5   9   2    3.88    1.65
  -5  -9   2    4.98    1.36
  -5   9   2    5.35    2.39
   4   9  -2  713.68   12.50
  -4   9   2  829.57   11.74
   4   9  -2  763.70    4.34
  -4  -9   2  757.00    5.35
  -4  -9   2  721.69    9.44
   4  -9  -2  792.52   11.30
  -4   9   2  671.24   13.71
  -3   9   2 1992.19   23.71
   3  -9  -2 2235.30   20.16
   3   9  -2 2188.97    5.99
  -3  -9   2 2217.99    7.43
  -3   9   2 2215.00   18.91
  -3  -9   2 2116.54   15.21
   3  -9  -2 2081.44   19.72
   3   9  -2 2132.18   21.02
  -2  -9   2  562.19    2.84
  -2   9   2  588.00   13.41
   2  -9  -2  610.67   10.80
   2   9  -2  563.12    9.78
  -2   9   2  592.09    9.98
  -2  -9   2  558.53    7.50
   2  -9  -2  534.33   10.92
   1  -9  -2  221.97    7.78
  -1   9   2  228.87    6.35
  -1   9   2  209.01    8.87
  -1  -9   2  228.59    4.70
   1  -9  -2  239.27    7.00
  -1  -9   2  211.75    3.40
   1   9  -2  243.86    6.19
   0   9  -2  107.46    3.26
   0  -9  -2   86.41    5.91
   0  -9  -2   93.63    1.86
   0   9   2   91.88    4.19
   0   9  -2   89.09    3.79
   0  -9   2  103.98    1.99
   0  -9   2   90.99    2.89
   0  -9  -2   86.07    4.34
  -1  -9  -2  156.53    2.42
  -1  -9  -2  163.11    7.75
  -1   9  -2  157.54    3.76
   1  -9   2  156.60    2.51
   1  -9   2  127.24    3.33
  -1  -9  -2  169.41    5.91
   1   9   2  178.01    5.67
  -1   9  -2  152.86    4.64
   2   9   2   99.58    4.42
   2  -9   2   75.64    2.65
  -2  -9  -2   88.77    4.55
   2   9   2   86.21    1.82
   2  -9   2   94.38    2.20
  -2  -9  -2   92.97    2.04
  -2   9  -2   88.92    3.54
  -2   9  -2   93.94    3.08
  -3  -9  -2  848.30    6.34
   3   9   2  938.91   12.83
  -3   9  -2  912.15   10.42
   3  -9   2  917.06    7.27
  -3   9  -2  891.04    9.41
   4   9   2  294.15    7.32
  -4   9  -2  306.10    5.95
  -4   9  -2  295.11    6.00
   4  -9   2  283.55    4.45
  -5  -9  -2   22.76    1.45
  -5   9  -2   24.04    2.08
   5   9   2   26.22    2.60
  -5   9  -2   21.66    1.94
  -6   9  -2  234.05    6.00
  -6   9  -2  237.06    5.66
   6   9   2  242.98    6.53
  -6  -9  -2  240.40    4.40
  -7  -9  -2  225.95    4.60
  -7   9  -2  231.65    5.62
  -7   9  -2  222.74    6.18
   7   9   2  253.17    6.81
  -8  -9  -2  208.80    4.86
  -8   9  -2  199.41    5.44
  -8   9  -2  210.97    6.39
   8   9   2  208.27    6.34
   9   9   2   54.28    3.46
  -9  -9  -2   47.81    2.79
  -9   9  -2   47.65    3.03
  -9   9  -2   44.29    3.46
 -10   9  -2  326.71    7.38
 -10  -9  -2  334.28    7.04
 -10   9  -2  345.29    9.20
  10   9   2  351.90    8.14
 -11  -9  -2  251.76    6.51
 -11   9  -2  262.22    6.99
  11   9   2  249.33    7.03
 -11   9  -2  265.74    8.67
 -12   9  -2   99.12    5.84
  12   9   2  105.84    4.97
 -12  -9  -2  102.87    4.81
 -12   9  -2   86.60    4.50
  13   9   2    7.04    2.23
 -13  -9  -2    4.85    2.18
 -13   9  -2    6.23    1.97
 -13   9  -2    4.03    2.77
 -14  -9  -2  118.63    4.10
 -14  -9  -2  113.05    5.64
 -14   9  -2  107.81    5.52
 -14   9  -2  122.51    7.49
 -15   9  -2    6.39    3.71
 -15  -9  -2   -0.08    2.79
 -17 -10   2    5.58    3.19
 -16 -10   2   54.21    4.91
 -16  10   2   65.21    7.37
 -15  10   2    8.22    4.27
 -15 -10   2    7.17    2.83
 -14 -10   2   68.27    4.78
 -14  10   2   68.87    6.50
 -13 -10   2    1.66    1.99
 -13  10   2    4.91    3.18
 -12 -10   2   84.18    4.28
 -12  10   2   89.81    6.54
  11  10  -2   14.30    1.76
 -11 -10   2   13.51    2.16
 -11  10   2   13.68    2.29
 -11  10   2   11.05    3.12
 -10 -10   2   68.75    3.32
  10  10  -2   72.98    3.26
 -10  10   2   70.04    5.38
 -10  10   2   65.47    3.96
  -9  10   2  616.65   11.15
   9  10  -2  693.64   10.03
  -9  10   2  713.06   15.25
   9 -10  -2  640.64    5.82
  -9 -10   2  683.52    9.17
  -9 -10   2  632.67   11.78
  -8  10   2  237.30    7.08
  -8  10   2  263.50    9.48
  -8 -10   2  292.01    5.54
   8 -10  -2  275.37    4.16
  -8 -10   2  246.41    7.05
   8  10  -2  274.76    6.65
   7 -10  -2   78.48    2.56
  -7  10   2   66.22    3.85
  -7 -10   2   73.95    2.61
   7  10  -2   66.04    3.68
  -7 -10   2   60.83    3.60
  -7  10   2   71.41    5.07
   6  10  -2  552.38    4.81
   6 -10  -2  585.43    7.80
   6  10  -2  569.66   10.68
  -6 -10   2  585.90    6.33
  -6  10   2  549.12   10.39
  -6 -10   2  505.30    9.14
  -5 -10   2  222.50    3.40
   5  10  -2  214.46    7.06
   5  10  -2  222.11    2.72
  -5  10   2  230.94    6.80
  -5  10   2  250.81    8.81
   5 -10  -2  230.11    5.72
  -5 -10   2  206.79    5.79
  -4  10   2   85.22    4.36
   4  10  -2  100.08    5.15
   4  10  -2   96.49    1.58
  -4 -10   2   96.27    1.95
  -4 -10   2   85.79    3.66
   4 -10  -2   90.99    4.34
  -4  10   2   94.09    5.90
  -3  10   2  487.27   12.67
   3 -10  -2  471.10    9.90
   3  10  -2  486.62    2.92
  -3  10   2  466.36    9.36
  -3 -10   2  470.71    3.35
  -3 -10   2  437.35    7.58
   3  10  -2  427.14   10.12
  -2 -10   2 1024.75   11.17
   2 -10  -2 1026.15   14.78
  -2 -10   2  963.83   10.47
  -2 -10   2  979.77    3.83
  -2  10   2 1002.54   13.59
   2  10  -2  997.47   14.03
  -2  10   2  991.73   18.46
  -1  10   2  680.31   15.83
  -1 -10   2  680.95    2.71
  -1 -10   2  670.10    8.29
  -1  10   2  736.01   11.84
   1 -10  -2  676.50   13.80
   1  10  -2  698.25   11.20
   1 -10  -2  722.73   12.73
  -1 -10   2  680.45    6.79
   0  10  -2   21.74    2.13
   0 -10  -2   20.71    3.52
   0 -10  -2   18.41    2.69
   0 -10  -2   22.48    1.08
   0 -10   2   19.14    1.60
   0  10  -2   25.01    2.56
   0 -10   2   26.74    1.32
   0  10   2   20.21    2.36
  -1 -10  -2  168.32    6.27
   1 -10   2  127.30    3.48
  -1 -10  -2  128.63    7.20
  -1  10  -2  165.96    5.17
   1 -10   2  173.85    2.91
  -1 -10  -2  123.02    2.25
  -1  10  -2  183.44    4.56
   1  10   2  187.68    6.12
  -2 -10  -2  370.75    4.03
   2 -10   2  378.03    4.56
  -2  10  -2  381.96    7.44
   2  10   2  395.97    8.93
  -2  10  -2  381.61    6.41
   3  10   2 1100.38   14.62
  -3 -10  -2 1038.68    7.08
  -3  10  -2 1004.82   10.88
  -3  10  -2 1045.68   12.05
   3 -10   2 1070.80    8.27
   4 -10   2   85.33    2.63
  -4  10  -2   82.08    3.58
  -4  10  -2   94.23    3.62
   4  10   2   78.97    4.07
  -4 -10  -2   88.20    2.31
   5  10   2  298.29    7.63
  -5  10  -2  284.33    6.31
  -5 -10  -2  288.92    4.41
  -5  10  -2  278.95    6.39
  -6 -10  -2  236.37    4.35
  -6  10  -2  219.74    5.66
   6  10   2  228.01    6.68
  -6  10  -2  240.20    6.30
  -7  10  -2  485.76    8.52
  -7 -10  -2  486.87    6.69
  -7  10  -2  480.42    9.16
   7  10   2  491.57    9.82
   8  10   2    5.78    1.85
  -8  10  -2    4.83    1.62
  -8 -10  -2    4.21    1.29
  -8  10  -2    2.03    1.65
   9  10   2  218.92    6.74
  -9  10  -2  207.53    6.94
  -9 -10  -2  213.16    5.32
  -9  10  -2  221.14    6.13
  10  10   2    5.98    1.92
 -10 -10  -2    7.74    1.95
 -10  10  -2    5.62    2.19
 -10  10  -2    3.60    1.79
 -11  10  -2    5.52    1.98
  11  10   2    1.65    1.86
 -11 -10  -2    5.70    1.88
 -11  10  -2    3.19    2.23
  12  10   2  150.11    5.88
 -12 -10  -2  151.16    5.71
 -12  10  -2  143.29    5.83
 -12  10  -2  161.35    7.52
  13  10   2  129.19    5.61
 -13 -10  -2  134.08    5.66
 -13  10  -2  137.22    7.43
 -13  10  -2  127.79    5.83
 -14  10  -2   12.30    3.57
 -14 -10  -2   12.53    2.89
 -14  10  -2   10.06    2.67
 -15  10  -2   17.29    4.07
 -15 -10  -2   19.47    3.38
 -17 -11   2    6.44    3.32
 -16 -11   2   96.26    5.95
 -16  11   2  108.55    8.86
 -15  11   2  204.69   11.24
 -15 -11   2  200.30    7.75
 -14 -11   2    5.50    2.50
 -14  11   2    7.43    3.76
 -13 -11   2  164.63    6.13
 -13  11   2  158.49    9.10
 -12 -11   2    9.23    2.16
 -12  11   2   11.11    3.56
 -11 -11   2    3.13    1.64
 -11  11   2    1.38    2.05
  11  11  -2    4.44    1.43
 -11  11   2    2.02    2.79
 -10  11   2  145.97    7.86
 -10 -11   2  178.76    5.25
 -10  11   2  137.75    5.74
  10  11  -2  167.25    5.13
  -9  11   2 2106.46   21.83
   9 -11  -2 2152.98   11.62
  -9 -11   2 2219.70   16.09
  -9 -11   2 2057.39   21.93
  -8  11   2  353.67    9.00
   8 -11  -2  384.29    5.37
  -8 -11   2  415.53    6.41
  -8  11   2  377.02   11.29
  -8 -11   2  373.43    9.00
   7 -11  -2  319.78    5.39
  -7 -11   2  294.60    7.71
  -7 -11   2  342.81    5.29
   7  11  -2  336.57    8.32
  -7  11   2  311.71    8.35
   6  11  -2  470.29   10.23
  -6  11   2  460.08   10.02
   6  11  -2  480.50    4.42
   6 -11  -2  501.57    7.86
  -6 -11   2  501.25    5.68
  -6 -11   2  438.08    8.96
  -5  11   2  132.46    5.69
   5  11  -2  160.17    6.41
  -5 -11   2  157.36    2.85
  -5 -11   2  138.31    4.96
   5 -11  -2  150.99    5.01
   5  11  -2  151.09    2.25
  -5  11   2  147.87    7.07
   4  11  -2   33.74    3.67
  -4  11   2   49.40    3.65
   4  11  -2   48.27    1.15
  -4 -11   2   48.08    1.39
  -4 -11   2   37.50    2.67
   4 -11  -2   47.39    3.43
  -4  11   2   48.24    4.81
   3  11  -2 3179.90    7.77
   3 -11  -2 3100.34   26.09
  -3  11   2 3115.98   33.31
   3  11  -2 2971.18   27.40
  -3 -11   2 3030.56    8.70
  -3  11   2 3013.65   24.88
  -3 -11   2 2895.76   20.08
  -2  11   2 1507.62   24.20
  -2 -11   2 1406.03   13.60
  -2 -11   2 1514.36   14.35
  -2  11   2 1516.56   17.66
   2 -11  -2 1566.75   19.43
  -2 -11   2 1408.51    4.85
   2  11  -2 1478.91   18.25
  -1  11   2   78.52    6.30
   1 -11  -2   79.05    4.83
  -1 -11   2   71.38    0.99
  -1  11   2   80.37    4.34
  -1 -11   2   60.84    2.83
  -1 -11   2   71.95    2.57
   1  11  -2   68.53    4.12
   0  11  -2 1060.46   12.45
   0 -11  -2 1004.16    6.34
   0 -11  -2 1034.60   15.71
   0  11  -2 1065.02   13.95
   0  11   2 1118.35   15.18
   0 -11   2 1051.99    8.07
  -1 -11  -2   33.47    1.30
   1 -11   2   33.00    1.55
  -1  11  -2   35.42    2.88
   1  11   2   35.31    3.14
  -1  11  -2   35.74    2.48
  -2 -11  -2  374.06    4.11
   2 -11   2  381.30    4.85
  -2  11  -2  366.69    7.75
  -2  11  -2  385.24    7.10
   2  11   2  372.02    8.96
  -3  11  -2   65.15    3.47
   3  11   2   60.60    3.88
  -3 -11  -2   65.58    1.90
  -3  11  -2   67.55    3.23
   3 -11   2   53.28    2.04
  -4  11  -2 1228.39   13.88
   4  11   2 1285.41   16.39
  -4 -11  -2 1255.37    8.50
   4 -11   2 1220.75    9.80
  -4  11  -2 1257.15   13.38
   5  11   2   44.72    3.35
  -5  11  -2   50.54    3.12
  -5 -11  -2   48.96    2.01
  -5  11  -2   45.54    2.96
  -6  11  -2  218.77    6.10
   6  11   2  227.07    7.04
  -6 -11  -2  233.11    4.37
  -6  11  -2  237.06    6.53
  -7  11  -2  106.68    4.40
  -7 -11  -2  101.68    3.19
   7  11   2  112.33    4.90
  -7  11  -2  105.48    4.71
  -8  11  -2  222.74    7.20
  -8  11  -2  214.93    6.33
  -8 -11  -2  224.44    4.99
   8  11   2  225.73    6.90
   9  11   2  326.79    8.51
  -9 -11  -2  296.48    6.19
  -9  11  -2  294.49    8.52
  -9  11  -2  282.88    7.34
 -10 -11  -2  756.93   10.46
  10  11   2  783.73   12.99
 -10  11  -2  743.52   12.29
 -10  11  -2  756.52   14.24
 -11 -11  -2    4.55    1.80
 -11  11  -2   -0.81    1.89
 -11  11  -2    2.58    2.35
  11  11   2    4.92    2.02
 -12 -11  -2  113.07    4.90
  12  11   2  120.28    5.48
 -12  11  -2  114.04    5.55
 -12  11  -2  108.11    6.34
  13  11   2   42.32    3.52
 -13 -11  -2   31.88    3.43
 -13  11  -2   31.43    3.61
 -13  11  -2   33.29    4.39
  14  11   2  181.23    6.78
 -14 -11  -2  168.70    6.80
 -14  11  -2  159.00    8.59
 -14  11  -2  160.40    7.28
 -15  11  -2    4.41    3.87
 -15 -11  -2    1.90    2.65
 -17 -12   2    3.72    3.03
 -16 -12   2   43.24    4.47
 -16  12   2   56.51    6.98
 -15 -12   2   32.82    3.66
 -15  12   2   40.53    6.06
 -14 -12   2   24.38    3.27
 -14  12   2   24.65    5.01
 -13 -12   2  611.35   11.44
 -13  12   2  584.88   16.76
 -12  12   2  402.61   13.49
 -12 -12   2  523.85    9.86
 -11  12   2  157.72    6.49
 -11 -12   2  174.19    5.51
  11  12  -2  162.99    5.13
 -11  12   2  176.69    8.96
 -10  12   2  205.97    7.36
 -10 -12   2  198.76    5.47
  10  12  -2  202.78    6.00
 -10  12   2  217.41    9.42
   9  12  -2   85.70    4.24
  -9  12   2  108.51    5.56
  -9  12   2  113.48    6.97
  -9 -12   2   94.25    3.51
  -8 -12   2  164.67    4.10
  -8  12   2  153.36    6.10
   8 -12  -2  158.43    3.83
   8  12  -2  174.31    6.14
  -8  12   2  173.60    8.19
  -7  12   2  844.42   14.28
  -7 -12   2  966.93    8.73
   7 -12  -2  890.97    9.55
   7  12  -2 1000.37   14.80
  -7  12   2  928.03   18.19
   6  12  -2 3415.09   11.57
  -6  12   2 3358.04   28.19
   6  12  -2 3570.79   28.99
   6 -12  -2 3509.12   21.40
  -6 -12   2 3706.55   15.35
  -6  12   2 3632.45   34.86
   5  12  -2 2124.35   23.57
  -5  12   2 1962.42   21.46
  -5 -12   2 2110.33   10.13
   5 -12  -2 2108.66   18.87
  -5 -12   2 1880.55   18.52
   5  12  -2 2169.67    8.45
  -5  12   2 2175.20   27.38
   4  12  -2  585.76   12.82
  -4 -12   2  594.28    4.63
  -4  12   2  549.69   11.47
  -4  12   2  594.58   14.73
   4  12  -2  617.91    4.01
  -4 -12   2  516.94    9.19
   4 -12  -2  550.54   10.63
   3 -12  -2   18.28    2.77
   3  12  -2   23.26    3.29
  -3  12   2   18.50    3.84
  -3  12   2   20.22    2.75
   3  12  -2   19.99    0.74
  -3 -12   2   14.79    0.78
  -2 -12   2   32.94    2.74
  -2  12   2   62.18    5.84
  -2  12   2   60.52    4.12
   2  12  -2   44.55    3.95
   2 -12  -2   60.62    4.34
  -2 -12   2   44.70    0.97
   1  12  -2  595.54   11.77
  -1  12   2  531.57   14.93
  -1 -12   2  589.09    3.03
  -1  12   2  603.55   11.76
  -1 -12   2  585.20    7.56
   0  12  -2 2686.88   21.54
   0  12   2 2794.74   25.02
   0  12  -2 2771.13   24.01
   0 -12   2 2731.05   14.21
  -1  12  -2 1811.38   16.70
  -1 -12  -2 1710.64    8.59
  -1  12  -2 1828.38   18.70
   1 -12   2 1804.22   11.02
   1  12   2 1896.47   20.69
  -2 -12  -2   47.41    1.62
   2 -12   2   42.20    1.86
  -2  12  -2   44.41    3.30
   2  12   2   53.96    3.92
  -2  12  -2   46.32    3.06
  -3 -12  -2  114.28    2.53
   3  12   2  119.79    5.52
  -3  12  -2  109.45    4.67
  -3  12  -2  105.76    4.13
   3 -12   2  107.83    2.95
  -4 -12  -2   45.03    1.77
   4  12   2   38.27    3.36
   4 -12   2   37.24    1.94
  -4  12  -2   47.29    3.03
  -4  12  -2   40.71    3.14
  -5 -12  -2   57.66    2.18
   5  12   2   66.38    4.20
  -5  12  -2   59.93    3.52
  -5  12  -2   57.06    3.39
  -6 -12  -2  189.02    3.97
   6  12   2  187.39    6.62
  -6  12  -2  189.75    6.07
  -6  12  -2  187.14    6.19
  -7 -12  -2  670.97    7.89
   7  12   2  698.64   12.21
  -7  12  -2  663.55   11.76
  -7  12  -2  655.70   11.11
  -8  12  -2  588.39   10.70
  -8 -12  -2  615.30    8.31
  -8  12  -2  582.82   11.69
   8  12   2  639.30   11.90
   9  12   2   46.02    3.47
  -9  12  -2   39.44    3.63
  -9  12  -2   40.42    3.31
  -9 -12  -2   43.61    2.69
  10  12   2   13.75    2.47
 -10 -12  -2   14.41    2.10
 -10  12  -2   15.61    2.58
 -10  12  -2   10.48    2.64
  11  12   2   58.92    4.03
 -11 -12  -2   58.95    3.48
 -11  12  -2   60.08    4.89
 -11  12  -2   62.93    4.24
 -12 -12  -2    7.71    2.25
  12  12   2    9.17    2.30
 -12  12  -2    9.22    2.56
 -12  12  -2   11.02    3.20
 -13  12  -2  122.00    6.43
 -13 -12  -2  128.23    5.67
  13  12   2  131.78    5.73
 -13  12  -2  119.23    7.21
 -14 -12  -2   91.74    5.20
 -14  12  -2   88.35    6.90
  14  12   2   90.16    4.99
 -14  12  -2   81.38    5.55
 -15 -12  -2   11.79    3.02
 -15  12  -2   14.17    4.39
 -17 -13   2  252.05    9.93
 -16 -13   2   10.61    3.21
 -16  13   2   12.80    5.02
 -15 -13   2   18.60    3.20
 -15  13   2   22.02    5.12
 -14 -13   2   12.39    2.82
 -14  13   2   12.00    4.18
 -13 -13   2   56.69    3.94
 -13  13   2   59.36    6.48
 -12 -13   2   30.21    2.89
 -12  13   2   31.04    4.79
 -11  13   2 1385.68   19.44
 -11 -13   2 1681.45   16.55
  11  13  -2 1579.25   16.43
 -11  13   2 1503.81   25.12
 -10  13   2 1295.45   18.91
 -10  13   2 1368.61   23.34
 -10 -13   2 1303.43   13.20
   9  13  -2  104.36    4.85
  -9  13   2   73.91    4.77
  -9 -13   2   81.90    3.24
  -9  13   2   83.26    6.18
  -8  13   2   72.83    4.88
   8  13  -2   65.20    4.18
  -8 -13   2   79.43    2.98
  -8  13   2   97.30    7.44
  -7 -13   2 1179.62    9.63
   7  13  -2 1142.76   16.65
  -7  13   2 1212.50   21.64
   6  13  -2  122.73    5.97
  -6  13   2  108.10    5.69
  -6 -13   2  129.02    2.92
   6 -13  -2  112.77    4.24
  -6  13   2  118.69    6.97
   5  13  -2 1194.10   18.57
  -5 -13   2 1345.33    8.20
  -5  13   2 1371.76   22.58
   5  13  -2 1347.18    6.68
  -5  13   2 1228.70   17.77
  -4  13   2 2467.37   30.87
   4  13  -2 2382.83   26.59
  -4 -13   2 2436.64    9.41
   4  13  -2 2504.02    8.24
   3  13  -2  183.94    7.69
  -3 -13   2  187.20    2.30
  -3  13   2  187.06    7.04
  -3  13   2  206.35    9.44
  -2 -13   2   22.25    2.42
   2  13  -2   17.24    3.04
  -2  13   2   14.35    4.05
  -2  13   2   15.54    2.66
  -2 -13   2   18.29    0.70
  -1 -13   2 3281.58    7.62
  -1  13   2 3370.16   39.11
  -1 -13   2 3435.72   19.48
  -1  13   2 3402.85   29.06
   0  13  -2 3237.79   25.23
   0 -13  -2 3250.04   12.14
   0  13  -2 3358.25   28.24
   0  13   2 3314.80   28.74
   0 -13   2 3358.33   16.83
  -1  13  -2  154.65    5.58
  -1 -13  -2  167.84    2.84
   1 -13   2  164.70    3.65
   1  13   2  201.79    7.23
  -1  13  -2  171.94    6.60
  -2  13  -2 1188.59   14.31
  -2 -13  -2 1138.31    7.51
   2 -13   2 1149.23    9.45
  -2  13  -2 1160.93   15.79
   2  13   2 1221.95   17.33
   3  13   2   58.17    4.13
  -3  13  -2   57.56    3.75
  -3 -13  -2   57.33    1.87
   3 -13   2   56.26    2.25
  -3  13  -2   61.63    3.47
  -4 -13  -2  130.40    2.94
   4  13   2  144.89    6.09
  -4  13  -2  120.58    5.19
  -4  13  -2  128.41    4.95
  -5 -13  -2  953.74    8.14
   5  13   2  972.00   15.29
  -5  13  -2  940.62   13.78
  -5  13  -2  920.97   13.43
  -6  13  -2 1129.27   15.26
   6  13   2 1123.26   16.31
  -6 -13  -2 1133.41    9.61
  -6  13  -2 1135.34   15.41
  -7  13  -2    9.45    2.24
  -7 -13  -2    9.19    1.42
  -7  13  -2    8.70    2.35
   7  13   2    8.58    2.21
   8  13   2  100.87    5.12
  -8  13  -2  110.31    5.20
  -8 -13  -2  107.99    3.59
  -8  13  -2  115.49    5.70
   9  13   2    7.62    2.30
  -9 -13  -2    4.88    1.47
  -9  13  -2    4.49    2.16
  -9  13  -2    3.24    2.44
  10  13   2  267.87    8.13
 -10 -13  -2  249.57    6.13
 -10  13  -2  254.49    8.08
 -10  13  -2  248.58    8.81
  11  13   2   27.07    2.98
 -11  13  -2   27.94    3.46
 -11 -13  -2   27.61    2.74
 -11  13  -2   26.88    3.74
  12  13   2  441.09   10.33
 -12 -13  -2  412.57    8.88
 -12  13  -2  423.81   12.72
 -12  13  -2  420.55   11.15
  13  13   2  230.60    7.73
 -13  13  -2  204.29    8.12
 -13 -13  -2  224.74    7.36
 -13  13  -2  242.18   10.31
  14  13   2   -0.79    2.30
 -14  13  -2    3.51    2.86
 -14  13  -2   -0.70    3.38
 -14 -13  -2    5.34    2.45
 -15  13  -2    5.80    4.07
 -15 -13  -2    4.48    2.69
 -17 -14   2    1.84    3.03
 -16 -14   2    7.53    2.95
 -16  14   2   13.68    5.18
 -15 -14   2    1.81    2.58
 -15  14   2   -0.58    3.79
 -14 -14   2   39.66    3.63
 -14  14   2   51.75    6.57
 -13 -14   2    8.52    2.32
 -13  14   2   15.17    4.39
 -12 -14   2    4.54    1.83
 -12  14   2    2.99    3.31
 -11  14   2    8.34    2.88
 -11 -14   2    9.72    2.27
  11  14  -2    6.79    2.02
 -11  14   2   15.06    4.23
  10  14  -2  745.83   12.46
 -10  14   2  649.18   13.76
 -10 -14   2  717.59    9.88
 -10  14   2  705.71   17.54
  -9  14   2   33.47    3.48
  -9  14   2   43.92    5.09
  -9 -14   2   41.03    2.44
   9  14  -2   47.70    3.66
  -8  14   2   13.15    3.05
  -8 -14   2    2.77    1.26
   8  14  -2    4.19    2.15
  -8  14   2   19.29    4.35
  -7  14   2  150.11    6.85
   7  14  -2  132.79    6.35
  -7  14   2  176.23    8.66
  -7 -14   2  150.66    3.55
  -6  14   2    7.63    2.96
  -6  14   2    3.10    2.03
  -6 -14   2    2.82    0.88
   6  14  -2    4.74    2.36
   5  14  -2    5.12    0.68
  -5 -14   2    5.03    0.82
   5  14  -2    3.74    2.34
  -5  14   2    3.80    2.27
  -5  14   2    5.50    3.04
  -4  14   2  158.81    8.70
   4  14  -2  148.40    7.41
  -4  14   2  147.43    6.60
   4  14  -2  151.27    2.15
  -4 -14   2  147.40    2.41
  -3  14   2  122.43    7.61
   3  14  -2   99.15    6.19
  -3 -14   2   96.83    5.01
  -3 -14   2  113.51    1.85
  -3  14   2  116.24    6.01
  -2 -14   2    6.72    1.88
   2  14  -2    8.01    2.53
  -2  14   2    8.26    3.69
  -2 -14   2    6.76    0.54
  -2  14   2    3.25    2.43
   1  14  -2    8.06    2.60
  -1  14   2    4.84    3.56
  -1 -14   2    3.87    1.47
  -1 -14   2    7.45    0.51
  -1  14   2    5.05    2.39
   0 -14   2    4.63    1.12
   0  14  -2    4.08    2.00
   0 -14  -2    5.33    0.86
   0  14  -2    5.05    2.35
  -1  14  -2   58.58    3.85
  -1 -14  -2   46.34    1.63
   1  14   2   51.15    4.26
   1 -14   2   46.80    2.22
  -1  14  -2   47.90    4.01
  -2  14  -2  129.79    5.35
  -2 -14  -2  112.01    2.49
  -2  14  -2  109.38    5.45
   2 -14   2  108.29    3.11
   2  14   2  116.36    5.73
  -3  14  -2   42.07    3.61
  -3  14  -2   41.35    3.31
  -3 -14  -2   38.91    1.66
   3 -14   2   37.94    2.06
   3  14   2   43.14    3.78
   4  14   2   71.42    4.58
  -4  14  -2   60.02    3.69
  -4 -14  -2   63.86    2.17
  -4  14  -2   65.38    4.12
  -5 -14  -2   13.67    1.33
   5  14   2   13.76    2.65
  -5  14  -2   12.75    2.37
  -5  14  -2   10.99    2.32
  -6  14  -2    7.51    2.22
   6  14   2   10.49    2.50
  -6 -14  -2   10.58    1.36
  -6  14  -2    7.72    2.18
  -7  14  -2    5.04    2.24
  -7  14  -2    5.32    2.11
  -7 -14  -2    6.10    1.32
   7  14   2    7.42    2.25
   8  14   2    2.63    2.14
  -8  14  -2    0.25    2.23
  -8 -14  -2    2.86    1.30
  -8  14  -2    3.53    2.16
  -9 -14  -2    3.20    1.50
  -9  14  -2    3.19    2.10
  -9  14  -2    3.09    2.38
   9  14   2    2.21    1.89
 -10  14  -2    4.05    2.15
 -10 -14  -2    0.75    1.51
  10  14   2    5.24    2.11
 -10  14  -2    3.32    2.52
 -11 -14  -2    5.05    1.98
 -11  14  -2    0.78    2.22
 -11  14  -2    1.08    2.53
  11  14   2    0.79    2.00
 -12 -14  -2   11.73    2.33
 -12  14  -2   13.02    3.62
  12  14   2   11.12    2.54
 -12  14  -2   13.53    3.14
 -13  14  -2   13.59    3.42
 -13  14  -2   14.85    4.12
  13  14   2   17.13    3.04
 -13 -14  -2    9.89    2.43
 -14 -14  -2    8.89    2.83
 -14  14  -2    6.51    3.04
 -14  14  -2   13.79    4.18
 -15  14  -2   54.51    6.44
 -15 -14  -2   53.24    4.53
 -16 -15   2   11.87    3.33
 -15 -15   2   73.00    5.05
 -15  15   2   80.02    7.88
 -14 -15   2   56.36    4.29
 -14  15   2   60.76    7.24
 -13  15   2  368.30   14.58
 -13 -15   2  350.13    8.71
 -12 -15   2    9.65    2.14
 -12  15   2    6.48    3.87
 -11  15   2  710.41   14.75
  11  15  -2  787.10   12.93
 -11 -15   2  758.42   10.89
 -11  15   2  736.19   19.08
  10  15  -2  188.69    6.74
 -10  15   2  159.38    7.25
 -10 -15   2  193.16    5.20
 -10  15   2  169.94    9.24
  -9 -15   2  114.78    3.73
   9  15  -2  105.72    5.38
  -9  15   2  114.85    7.87
  -9  15   2  106.93    6.08
  -8  15   2   28.57    4.39
   8  15  -2   39.57    3.74
  -8  15   2   31.92    3.94
  -8 -15   2   28.54    1.90
  -7  15   2  445.64   11.79
  -7 -15   2  524.55    6.42
   7  15  -2  506.83   12.22
  -7  15   2  495.84   14.83
   6  15  -2   37.79    4.04
  -6 -15   2   38.09    1.72
  -6  15   2   40.36    5.00
  -6  15   2   38.28    4.20
  -5  15   2 1972.00   29.44
   5  15  -2 1947.69   25.51
   5  15  -2 1879.39    8.20
  -5 -15   2 1941.50    9.74
   4  15  -2  310.99   10.66
  -4  15   2  298.83    9.62
   4  15  -2  321.94    3.19
  -4  15   2  331.31   12.36
  -4 -15   2  326.05    3.59
  -3 -15   2    7.58    0.65
  -3 -15   2    4.66    2.01
  -3  15   2    6.24    2.74
  -3  15   2    4.72    3.35
  -2 -15   2   14.13    2.10
   2  15  -2   13.68    3.09
  -2  15   2   16.57    4.27
  -2 -15   2   14.15    0.71
  -2  15   2   16.13    2.97
   1  15  -2  899.13   16.94
  -1  15   2  892.28   20.98
  -1 -15   2  892.95    4.46
  -1  15   2  912.94   16.30
  -1 -15   2  903.51   11.25
   0  15  -2  891.16   14.93
   0  15   2  962.60   16.64
   0 -15  -2  927.76    6.95
   0 -15   2  912.99   10.00
   0  15  -2  933.91   16.55
  -1 -15  -2  333.14    4.17
  -1  15  -2  353.28    9.54
   1  15   2  379.52   10.55
   1 -15   2  350.57    6.13
  -1  15  -2  348.91   10.09
   2 -15   2 1058.71   10.23
  -2  15  -2 1097.54   17.39
   2  15   2 1111.90   17.85
  -2 -15  -2 1055.65    7.63
  -2  15  -2 1060.33   15.54
  -3 -15  -2   49.39    1.87
   3 -15   2   42.09    2.22
  -3  15  -2   47.08    3.87
  -3  15  -2   49.11    3.69
   3  15   2   42.23    3.85
  -4  15  -2   10.35    2.51
   4  15   2   13.10    2.80
  -4 -15  -2   12.81    1.24
  -4  15  -2   11.55    2.38
   5  15   2  602.17   12.87
  -5 -15  -2  589.72    6.68
  -5  15  -2  566.74   11.85
  -5  15  -2  558.33   11.37
  -6  15  -2 1073.86   16.45
   6  15   2 1117.66   17.45
  -6 -15  -2 1101.23    9.62
  -6  15  -2 1079.50   16.37
   7  15   2    5.40    1.94
  -7 -15  -2    5.53    1.36
  -7  15  -2    6.48    2.28
  -7  15  -2    6.42    2.44
  -8 -15  -2  589.29    8.08
   8  15   2  603.48   12.65
  -8  15  -2  569.62   12.27
  -8  15  -2  611.04   13.51
  -9 -15  -2  229.24    5.50
  -9  15  -2  218.96    7.82
   9  15   2  237.83    7.96
  -9  15  -2  221.10    8.48
  10  15   2  159.80    6.73
 -10 -15  -2  149.34    4.97
 -10  15  -2  154.06    7.00
 -10  15  -2  147.33    7.40
 -11 -15  -2   78.34    3.96
  11  15   2  102.27    5.54
 -11  15  -2   82.38    5.48
 -11  15  -2   84.15    6.18
  12  15   2  636.37   13.08
 -12  15  -2  584.98   13.98
 -12 -15  -2  590.40   10.84
 -12  15  -2  562.69   15.24
 -13  15  -2   91.86    6.27
 -13  15  -2   95.25    7.06
 -13 -15  -2   90.05    4.90
  13  15   2  103.39    5.60
 -14 -15  -2   52.99    4.36
 -14  15  -2   56.84    6.35
 -15 -15  -2    5.12    2.78
 -15  15  -2    6.85    4.33
 -16 -16   2    4.74    3.08
 -15 -16   2   11.14    2.97
 -15  16   2   16.20    4.94
 -14 -16   2  161.03    6.52
 -14  16   2  172.68   10.90
 -13 -16   2  130.92    5.55
 -13  16   2  156.32    9.98
 -12  16   2  123.66    8.82
 -12 -16   2  126.23    5.12
 -11  16   2   48.39    4.72
 -11  16   2   44.72    5.84
 -11 -16   2   59.75    3.43
  10  16  -2    1.92    2.00
 -10  16   2    5.59    2.71
 -10 -16   2    4.30    1.58
 -10  16   2    3.73    3.44
  -9  16   2    7.33    2.79
   9  16  -2   10.01    2.41
  -9 -16   2   13.65    1.77
  -9  16   2   13.25    3.78
  -8  16   2  226.73    8.95
  -8 -16   2  223.37    4.74
   8  16  -2  262.97    8.85
  -8  16   2  245.55   11.06
  -7 -16   2 1565.03   11.11
   7  16  -2 1503.99   21.50
  -7  16   2 1438.87   21.69
  -7  16   2 1548.40   26.61
  -6  16   2  192.68    8.26
  -6 -16   2  206.79    3.68
   6  16  -2  190.66    8.25
  -6  16   2  208.26   10.31
  -5  16   2  181.01    9.54
   5  16  -2  179.28    2.71
   5  16  -2  206.44    8.75
  -5 -16   2  196.91    3.21
  -5  16   2  161.53    7.60
  -4  16   2   88.14    7.01
   4  16  -2   74.73    5.78
  -4  16   2   69.07    5.19
   4  16  -2   78.40    1.67
  -4 -16   2   80.55    1.87
  -3  16   2    9.51    4.10
  -3 -16   2    6.43    2.50
  -3 -16   2    6.48    0.64
   3  16  -2    6.97    3.21
  -3  16   2    5.72    2.38
  -2 -16   2   26.02    2.78
   2  16  -2   26.66    3.85
  -2  16   2   23.11    4.69
  -2  16   2   23.29    3.37
  -2 -16   2   27.19    0.95
  -1  16   2   42.99    5.68
  -1 -16   2   49.42    1.17
  -1  16   2   51.12    4.51
  -1 -16   2   39.08    2.84
   1  16  -2   47.02    4.82
   0 -16  -2  227.37    3.55
   0  16   2  248.00    8.96
   0 -16   2  220.51    5.27
   0  16  -2  233.33    9.03
  -1  16  -2  338.10    9.96
  -1 -16  -2  320.33    4.18
   1  16   2  302.45    9.78
   1 -16   2  338.88    6.49
  -1  16  -2  319.89   10.12
  -2  16  -2  609.99   12.63
   2  16   2  537.92   12.87
  -2  16  -2  589.38   13.28
   2 -16   2  546.96    7.66
  -2 -16  -2  591.74    5.83
  -3  16  -2   13.21    2.56
  -3 -16  -2   11.30    1.14
   3  16   2   12.95    2.92
  -3  16  -2   16.16    3.11
  -4 -16  -2   11.68    1.38
   4  16   2   11.89    2.93
  -4  16  -2    9.36    2.74
  -4  16  -2   13.03    2.79
  -5 -16  -2  293.49    4.77
  -5  16  -2  271.26    8.55
  -5  16  -2  308.49    9.31
  -6 -16  -2  258.36    4.82
  -6  16  -2  245.90    8.26
  -6  16  -2  260.94    8.63
  -7 -16  -2   74.88    2.94
   7  16   2   88.09    5.18
  -7  16  -2   69.58    4.90
  -7  16  -2   77.39    5.13
  -8 -16  -2  395.47    6.69
   8  16   2  400.66   10.70
  -8  16  -2  392.60   10.66
  -8  16  -2  378.43   10.95
   9  16   2    3.75    2.04
  -9  16  -2    2.96    2.49
  -9 -16  -2    0.79    1.41
  -9  16  -2    1.82    2.58
 -10  16  -2   37.79    4.08
 -10 -16  -2   35.42    2.79
 -10  16  -2   32.95    4.35
  10  16   2   48.18    4.08
 -11 -16  -2    6.20    2.00
  11  16   2    4.90    2.58
 -11  16  -2    5.79    2.92
 -11  16  -2    2.19    3.26
 -12  16  -2   12.01    3.39
 -12 -16  -2   15.39    2.58
 -12  16  -2   14.18    4.17
  12  16   2   17.87    3.08
  13  16   2  159.49    6.89
 -13 -16  -2  140.90    5.78
 -13  16  -2  137.48    7.73
 -13  16  -2  145.29    8.78
 -14 -16  -2  233.60    8.06
 -14  16  -2  221.41   11.18
 -15  16  -2   99.23    8.32
 -16 -17   2   40.44    4.45
 -15 -17   2  209.86    7.88
 -15  17   2  241.19   13.92
 -14 -17   2    1.12    2.13
 -14  17   2   -1.67    4.40
 -13 -17   2  145.47    5.80
 -13  17   2  145.41   10.17
 -12 -17   2   26.70    2.90
 -12  17   2   31.30    5.70
 -11  17   2   50.11    4.99
 -11 -17   2   60.57    3.42
  11  17  -2   55.92    4.27
 -11  17   2   59.51    6.91
 -10 -17   2   57.48    3.03
  10  17  -2   41.25    3.91
 -10  17   2   50.54    5.09
 -10  17   2   55.68    6.18
  -9  17   2  103.91    6.48
  -9 -17   2  102.29    3.59
   9  17  -2   98.67    5.68
  -9  17   2  104.70    8.17
  -8 -17   2  104.31    3.34
  -8  17   2   88.28    6.11
   8  17  -2   93.76    5.79
  -8  17   2   93.66    7.43
   7  17  -2   65.35    5.15
  -7  17   2   58.93    5.05
  -7 -17   2   63.75    2.45
  -7  17   2   74.99    6.69
   6  17  -2  129.28    7.15
  -6  17   2  167.72    9.57
  -6  17   2  142.19    7.44
  -6 -17   2  136.07    3.06
  -5  17   2  425.73   15.02
  -5  17   2  388.39   11.87
   5  17  -2  430.91   13.12
  -5 -17   2  424.80    4.71
  -4  17   2   79.32    6.89
  -4 -17   2   77.74    5.49
  -4  17   2   75.45    5.60
  -4 -17   2   76.32    1.87
   4  17  -2   72.81    5.71
  -3  17   2 1364.17   27.25
  -3 -17   2 1333.17   19.17
   3  17  -2 1370.15   23.80
  -3 -17   2 1351.44    6.77
  -2 -17   2 1037.63   15.00
   2  17  -2 1054.79   20.44
  -2  17   2 1009.10   23.96
  -2  17   2  945.46   17.77
  -2 -17   2 1036.51    5.52
  -1  17   2  677.60   19.39
  -1 -17   2  680.13    4.30
   1  17  -2  703.59   16.58
  -1  17   2  665.29   14.88
  -1 -17   2  673.29   10.79
   0 -17   2  564.63    3.98
   0 -17  -2  556.18    5.62
   0  17   2  582.06   13.86
   0 -17   2  535.05    8.48
   0  17  -2  557.88   14.35
  -1  17  -2  261.44    9.29
  -1 -17  -2  246.09    3.79
  -1  17  -2  262.74    9.77
   1  17   2  236.19    8.98
   1 -17   2  280.56    6.15
  -2  17  -2  135.53    6.50
  -2 -17  -2  125.64    2.86
   2  17   2  130.02    6.74
   2 -17   2  128.69    3.99
  -2  17  -2  133.09    7.00
   3  17   2  661.12   14.45
  -3  17  -2  656.73   14.28
  -3 -17  -2  642.81    6.40
  -3  17  -2  640.93   13.28
  -4 -17  -2 3164.86   14.94
  -4  17  -2 3289.21   31.59
  -4  17  -2 3289.67   29.84
   4  17   2 3373.86   32.44
   5  17   2  493.34   12.35
  -5 -17  -2  460.53    5.98
  -5  17  -2  460.33   12.19
  -5  17  -2  467.42   11.59
   6  17   2   86.19    5.52
  -6  17  -2   77.59    5.14
  -6 -17  -2   85.50    2.95
  -6  17  -2   81.81    5.38
   7  17   2   23.64    3.39
  -7 -17  -2   18.53    1.76
  -7  17  -2   19.71    3.16
  -7  17  -2   25.67    3.27
  -8 -17  -2  367.21    6.47
   8  17   2  404.39   11.17
  -8  17  -2  380.28   11.18
  -8  17  -2  381.12   11.09
  -9 -17  -2   62.49    3.16
  -9  17  -2   64.79    5.33
  -9  17  -2   65.35    5.29
   9  17   2   70.01    4.94
 -10 -17  -2  770.02   10.77
  10  17   2  797.82   15.31
 -10  17  -2  776.61   16.43
 -10  17  -2  784.15   17.17
  11  17   2   59.64    4.65
 -11 -17  -2   71.91    3.88
 -11  17  -2   70.74    5.75
 -11  17  -2   68.31    5.96
 -12 -17  -2   15.88    2.56
 -12  17  -2   14.43    3.84
 -12  17  -2   14.23    3.59
  12  17   2   17.46    3.09
  13  17   2    4.37    2.65
 -13 -17  -2    2.32    2.25
 -13  17  -2    2.53    3.42
 -13  17  -2   10.96    3.73
 -14 -17  -2  189.17    7.27
 -14  17  -2  193.44   10.85
 -15  17  -2    0.81    4.02
 -16 -18   2    4.83    3.02
 -15 -18   2    3.71    2.42
 -15  18   2   12.79    5.86
 -14 -18   2   17.19    2.94
 -14  18   2   15.32    5.69
 -13 -18   2   -0.55    2.10
 -13  18   2    8.09    4.58
 -12 -18   2    1.64    1.92
 -12  18   2    0.30    4.15
 -11  18   2    8.20    3.36
  11  18  -2    2.24    2.32
 -11 -18   2    5.12    1.80
 -11  18   2   10.67    4.36
 -10  18   2    8.39    4.33
 -10 -18   2    6.54    1.59
  10  18  -2    4.68    2.41
 -10  18   2    3.83    2.74
  -9 -18   2   55.83    2.74
  -9  18   2   50.20    5.03
   9  18  -2   67.59    5.10
  -9  18   2   53.19    6.23
   8  18  -2   34.51    4.25
  -8 -18   2   31.43    2.11
  -8  18   2   36.47    4.30
  -8  18   2   45.09    5.70
  -7  18   2   22.84    3.74
  -7 -18   2   23.12    1.66
   7  18  -2   31.68    3.94
  -7  18   2   22.41    4.97
  -6  18   2   13.73    4.32
  -6 -18   2   18.38    1.34
  -6  18   2   13.38    3.50
   6  18  -2   21.86    3.78
  -5  18   2   28.16    4.77
  -5 -18   2   23.28    1.31
   5  18  -2   18.25    3.92
  -5  18   2   24.94    3.88
   4  18  -2   19.03    3.83
  -4  18   2   18.27    4.11
  -4 -18   2   16.71    3.45
  -4 -18   2   13.96    0.99
  -4  18   2   17.55    3.45
  -3 -18   2  222.95    8.36
  -3  18   2  187.66   11.04
   3  18  -2  223.71   10.14
  -3  18   2  170.78    8.25
  -3 -18   2  203.47    2.74
  -2 -18   2   24.44    2.84
   2  18  -2   29.19    4.48
  -2  18   2   38.60    5.84
  -2 -18   2   34.77    1.17
  -2  18   2   39.99    4.47
   1  18  -2   19.76    3.92
  -1 -18   2   14.24    2.13
  -1 -18   2   15.95    0.81
  -1  18   2   14.43    2.94
   0 -18   2   40.56    1.19
   0 -18   2   39.74    2.70
   0 -18  -2   42.72    1.74
   0  18   2   38.95    4.34
   0  18  -2   35.90    4.48
  -1  18  -2    7.21    3.04
  -1  18  -2    8.44    3.05
  -1 -18  -2    6.43    0.94
   1 -18   2    6.22    1.51
   1  18   2    7.48    2.67
  -2  18  -2   51.34    4.57
  -2 -18  -2   54.84    2.01
   2  18   2   75.88    5.54
  -2  18  -2   55.92    5.05
  -3  18  -2   94.96    5.86
  -3  18  -2   80.78    5.83
  -3 -18  -2   84.53    2.53
   3  18   2   95.46    5.98
  -4 -18  -2  170.70    3.68
   4  18   2  160.81    7.61
  -4  18  -2  202.82    8.25
   5  18   2   91.59    5.84
  -5  18  -2   76.79    5.31
  -5 -18  -2   77.46    2.70
  -5  18  -2   79.64    5.74
  -6 -18  -2    5.75    1.27
  -6  18  -2    8.28    2.75
   6  18   2   15.24    2.88
  -6  18  -2    6.70    2.71
  -7  18  -2  100.29    6.36
  -7  18  -2   87.46    5.67
  -7 -18  -2   91.42    3.21
   7  18   2   83.94    5.70
  -8 -18  -2   12.75    1.74
   8  18   2   15.02    3.20
  -8  18  -2   11.32    3.21
  -8  18  -2   17.57    3.44
   9  18   2   22.24    3.54
  -9  18  -2   24.13    3.85
  -9  18  -2   28.36    4.01
  -9 -18  -2   21.77    2.16
 -10  18  -2    7.66    3.05
  10  18   2   12.31    2.97
 -10 -18  -2    6.19    1.85
 -10  18  -2   11.45    3.42
 -11  18  -2    4.18    2.98
  11  18   2    3.06    2.47
 -11 -18  -2    1.41    1.84
 -11  18  -2   -0.01    3.00
 -12 -18  -2    8.27    2.23
 -12  18  -2    3.78    3.21
 -12  18  -2   14.97    4.39
  12  18   2    8.78    3.03
 -13 -18  -2    1.97    2.19
  13  18   2    3.04    2.73
 -13  18  -2    7.57    4.14
 -13  18  -2    2.81    3.49
 -14 -18  -2    0.39    2.51
 -14  18  -2    8.62    4.29
 -16 -19   2   19.21    3.58
 -15 -19   2  227.85    8.29
 -14 -19   2   78.04    4.68
 -14  19   2  100.91    9.52
 -13 -19   2   73.45    4.41
 -13  19   2   75.73    8.27
 -12 -19   2   65.19    3.80
 -12  19   2   69.32    7.91
  11  19  -2  131.18    6.61
 -11  19   2  132.18    7.86
 -11 -19   2  126.07    4.64
 -11  19   2  133.75    9.69
 -10  19   2   16.53    4.74
 -10  19   2   23.13    4.15
  10  19  -2   25.95    3.56
 -10 -19   2   24.97    2.32
  -9  19   2  317.18   11.60
   9  19  -2  338.84   10.81
  -9 -19   2  320.52    6.11
  -9  19   2  330.10   14.19
   8  19  -2  216.85    9.09
  -8  19   2  234.77   10.00
  -8 -19   2  215.76    4.68
  -8  19   2  231.78   11.89
  -7  19   2  423.44   15.67
   7  19  -2  419.57   12.59
  -7  19   2  395.70   12.76
  -7 -19   2  421.29    5.97
  -6  19   2  103.50    8.39
  -6 -19   2   95.34    2.64
   6  19  -2   88.74    6.51
  -6  19   2   91.94    6.53
  -5  19   2  117.42    7.14
  -5  19   2  130.20    9.04
   5  19  -2  126.77    7.90
  -5 -19   2  125.41    2.73
  -4  19   2   10.92    4.62
   4  19  -2   12.15    3.50
  -4 -19   2   10.95    0.96
  -4  19   2    9.04    3.23
  -3 -19   2 1081.73   17.45
  -3  19   2 1066.45   25.75
   3  19  -2 1145.38   22.70
  -3 -19   2 1124.60    6.62
   2  19  -2  879.01   19.97
  -2  19   2  842.06   22.62
  -2  19   2  791.77   17.23
  -2 -19   2  858.41    5.46
  -2 -19   2  869.58   14.25
   1  19  -2   94.02    7.04
   1 -19  -2   96.01    2.54
  -1 -19   2   97.97    1.84
  -1  19   2   93.53    6.28
  -1 -19   2   87.94    4.44
   0 -19  -2  595.15    6.01
   0 -19   2  589.49    4.40
   0  19   2  593.32   14.73
   0  19  -2  597.52   16.20
   0 -19   2  542.11    9.34
  -1 -19  -2   52.87    1.95
   1  19   2   42.77    4.67
  -1  19  -2   59.84    5.15
   1 -19   2   50.25    3.07
  -1  19  -2   62.45    5.67
  -2  19  -2  216.64    8.75
  -2  19  -2  219.19    9.59
   2  19   2  216.73    9.09
  -2 -19  -2  204.33    3.72
  -3  19  -2  843.40   17.75
  -3 -19  -2  854.69    7.73
   3  19   2  901.19   17.74
  -3  19  -2  874.92   17.39
  -4 -19  -2 1952.80   12.14
  -4  19  -2 1903.21   26.18
  -4  19  -2 1932.70   25.20
   4  19   2 2007.66   25.99
   5  19   2  113.01    6.77
  -5 -19  -2  106.05    3.15
  -5  19  -2  109.61    6.74
  -5  19  -2  100.95    6.25
   6  19   2  143.25    7.15
  -6  19  -2  149.24    7.78
  -6  19  -2  164.07    8.06
  -6 -19  -2  136.62    3.74
   7  19   2  220.19    8.94
  -7  19  -2  208.08    9.21
  -7  19  -2  216.62    9.08
  -7 -19  -2  205.96    4.74
  -8 -19  -2  310.97    6.17
   8  19   2  329.65   10.69
  -8  19  -2  317.89   11.25
  -8  19  -2  314.47   10.86
  -9 -19  -2   18.05    2.13
   9  19   2   23.89    3.56
  -9  19  -2   24.12    4.02
  -9  19  -2   17.69    3.91
  10  19   2  297.51    9.86
 -10 -19  -2  275.76    6.62
 -10  19  -2  280.22   11.03
 -10  19  -2  288.35   11.21
 -11  19  -2   90.05    6.97
  11  19   2  112.41    6.27
 -11 -19  -2  100.13    4.48
 -11  19  -2   89.67    6.81
  12  19   2   90.64    6.01
 -12 -19  -2   83.11    4.50
 -12  19  -2   89.28    7.04
 -12  19  -2   92.74    7.30
  13  19   2    1.09    2.52
 -13 -19  -2   -0.04    2.21
 -13  19  -2    0.81    3.90
 -13  19  -2   -0.05    3.49
 -14  19  -2  164.73   10.24
 -14 -19  -2  163.93    7.03
 -16 -20   2   -2.08    2.90
 -15 -20   2   11.14    2.90
 -14 -20   2  291.03    8.66
 -14  20   2  307.19   15.74
 -13 -20   2   96.52    4.85
 -13  20   2   97.30    9.36
 -12 -20   2   60.64    3.79
 -12  20   2   59.56    7.64
  11  20  -2   44.61    4.45
 -11 -20   2   48.07    3.20
 -11  20   2   42.99    5.17
 -11  20   2   44.99    6.44
 -10  20   2  124.96    7.94
 -10 -20   2  141.77    4.60
  10  20  -2  163.35    7.62
 -10  20   2  130.03    9.73
  -9  20   2    8.70    4.48
   9  20  -2   16.44    3.39
  -9  20   2    5.19    3.00
  -9 -20   2    8.61    1.73
  -8  20   2   46.24    5.14
  -8 -20   2   41.99    2.28
   8  20  -2   42.71    4.69
  -8  20   2   41.42    6.08
  -7  20   2  448.64   16.66
   7  20  -2  489.50   13.95
  -7  20   2  439.84   13.78
  -7 -20   2  483.30    6.36
  -6  20   2  393.15   15.90
  -6  20   2  373.50   12.70
  -6 -20   2  395.51    5.24
   6  20  -2  391.59   12.86
  -5  20   2  445.30   16.69
  -5  20   2  429.64   13.42
   5  20  -2  460.82   14.69
  -5 -20   2  480.28    5.32
  -4  20   2  215.14   12.49
   4  20  -2  235.38   10.70
  -4 -20   2  217.04    3.28
  -4  20   2  190.11    9.14
   3  20  -2   22.95    4.68
  -3  20   2   37.39    5.95
  -3 -20   2   25.63    1.18
  -3  20   2   34.67    4.34
   2  20  -2  126.57    8.40
  -2  20   2  170.38   11.19
  -2  20   2  145.73    7.86
  -2 -20   2  137.65    2.31
  -2 -20   2  109.39    5.63
   1 -20  -2  241.71    3.99
  -1 -20   2  244.69    2.96
   1  20  -2  253.12   11.32
  -1  20   2  236.19    9.82
  -1 -20   2  229.46    7.26
   0  20  -2  183.50    9.78
   0 -20   2  193.75    2.69
   0 -20  -2  185.64    3.49
   0  20   2  181.71    8.66
   0 -20   2  164.35    5.47
  -1  20  -2  156.07    8.05
  -1 -20  -2  176.27    3.50
   1  20   2  179.71    8.61
  -1  20  -2  164.48    9.04
  -2  20  -2  366.15   12.25
  -2 -20  -2  352.39    4.96
   2  20   2  387.03   12.20
  -2  20  -2  324.45   12.17
  -3  20  -2  535.65   14.16
  -3 -20  -2  492.83    6.00
   3  20   2  490.83   13.75
  -3  20  -2  531.44   14.91
  -4 -20  -2  139.63    3.43
   4  20   2  129.92    7.36
  -4  20  -2  149.52    8.20
  -4  20  -2  169.11    8.35
   5  20   2  167.54    8.36
  -5  20  -2  137.56    7.92
  -5 -20  -2  140.67    3.61
  -5  20  -2  135.71    7.53
   6  20   2  117.92    7.03
  -6 -20  -2  126.10    3.71
  -6  20  -2  126.69    7.48
  -6  20  -2  127.36    7.21
   7  20   2   37.07    4.28
  -7 -20  -2   39.88    2.37
  -7  20  -2   39.25    4.68
  -7  20  -2   31.17    4.37
   8  20   2  159.19    7.81
  -8 -20  -2  145.39    4.32
  -8  20  -2  141.38    7.99
  -8  20  -2  141.21    7.81
  -9  20  -2  732.53   17.54
  -9 -20  -2  725.19    9.96
   9  20   2  788.12   16.40
  -9  20  -2  751.18   17.61
 -10  20  -2   98.82    7.08
  10  20   2   93.33    6.00
 -10 -20  -2   94.51    4.13
 -10  20  -2   91.43    7.04
  11  20   2    6.46    2.82
 -11 -20  -2    2.28    1.87
 -11  20  -2   -0.13    3.21
 -11  20  -2    7.35    3.40
 -12  20  -2    4.94    3.65
 -12 -20  -2    3.82    2.20
  12  20   2    6.22    2.84
 -12  20  -2    4.59    3.70
  13  20   2   -2.83    2.86
 -13 -20  -2   -0.36    2.32
 -13  20  -2   -0.04    3.69
 -13  20  -2   -3.45    3.79
 -14 -20  -2   84.97    5.33
 -14  20  -2   79.38    7.95
 -15 -21   2   37.28    4.02
 -14  21   2    8.27    5.56
 -14 -21   2    7.35    2.79
 -13 -21   2   94.50    4.91
 -13  21   2   87.39    9.60
 -12 -21   2   94.64    4.47
 -12  21   2  105.91    9.42
  11  21  -2  508.30   13.40
 -11  21   2  499.19   15.32
 -11 -21   2  512.72    9.06
 -11  21   2  505.11   19.10
 -10 -21   2  188.66    5.22
 -10  21   2  190.66    9.71
  10  21  -2  198.72    8.70
 -10  21   2  200.45   12.13
  -9 -21   2   75.19    3.25
  -9  21   2   77.17    6.63
   9  21  -2   70.62    5.73
  -9  21   2   87.99    8.90
  -8  21   2  178.20   11.19
   8  21  -2  165.10    8.61
  -8 -21   2  169.46    4.31
  -8  21   2  172.78    9.14
  -7  21   2  580.84   16.28
  -7 -21   2  587.67    7.07
   7  21  -2  610.49   15.98
  -7  21   2  584.20   19.59
  -6  21   2   72.10    6.30
  -6 -21   2   87.28    2.58
   6  21  -2   86.06    6.69
  -6  21   2   79.76    7.78
  -5  21   2  976.37   24.80
   5  21  -2  916.14   20.77
  -5  21   2  914.26   19.88
  -5 -21   2  942.96    7.55
  -4  21   2  951.77   20.21
  -4  21   2  978.11   26.01
   4  21  -2  923.70   21.02
  -4 -21   2  930.90    6.84
  -3  21   2   51.09    7.48
   3  21  -2   73.29    6.83
  -3 -21   2   57.47    1.71
  -3  21   2   52.81    5.53
  -2  21   2    7.28    4.28
   2  21  -2    4.78    3.36
  -2  21   2    6.65    3.41
  -2 -21   2    7.61    0.89
   1  21  -2  788.00   19.75
   1 -21  -2  743.76    6.96
  -1 -21   2  747.91    5.28
  -1  21   2  687.94   16.82
   0  21  -2  612.04   17.56
   0  21   2  576.09   15.22
   0 -21   2  617.17    4.87
   0 -21  -2  597.93    6.31
  -1 -21  -2  128.01    3.09
  -1  21  -2  113.65    7.32
   1  21   2  104.14    6.99
  -1  21  -2  137.08    8.74
  -2  21  -2  564.52   15.72
  -2 -21  -2  573.42    6.43
   2  21   2  589.04   15.58
  -2  21  -2  578.28   16.29
  -3 -21  -2   55.16    2.29
  -3  21  -2   36.05    4.52
  -3  21  -2   39.32    5.28
   3  21   2   53.23    5.37
  -4  21  -2   82.08    6.34
  -4 -21  -2   84.96    2.78
  -4  21  -2   80.06    6.75
   4  21   2   85.25    6.25
  -5  21  -2 1112.06   21.93
  -5 -21  -2 1095.30    9.72
   5  21   2 1110.78   20.78
  -5  21  -2 1081.65   20.91
  -6 -21  -2  591.41    7.59
   6  21   2  615.39   15.44
  -6  21  -2  607.10   16.39
  -6  21  -2  551.60   15.03
  -7 -21  -2    3.57    1.39
   7  21   2    5.13    3.02
  -7  21  -2   -0.95    3.06
  -7  21  -2    1.69    3.03
   8  21   2  344.77   11.45
  -8 -21  -2  329.50    6.45
  -8  21  -2  320.22   12.09
  -8  21  -2  320.81   12.21
  -9 -21  -2    5.98    1.75
   9  21   2   12.36    3.38
  -9  21  -2    7.71    3.86
  -9  21  -2    2.88    3.40
  10  21   2    7.82    3.14
 -10 -21  -2    7.84    2.11
 -10  21  -2    3.01    3.38
 -10  21  -2    5.21    3.65
 -11 -21  -2   70.42    4.06
  11  21   2   66.49    5.43
 -11  21  -2   64.05    6.33
 -11  21  -2   77.17    6.92
  12  21   2  415.92   12.19
 -12 -21  -2  416.46    9.47
 -12  21  -2  396.84   14.78
 -12  21  -2  419.38   15.11
  13  21   2  144.98    7.62
 -13 -21  -2  138.11    6.18
 -13  21  -2  122.80    9.02
 -13  21  -2  146.71    9.82
 -14  21  -2    7.86    4.75
 -15 -22   2   30.15    3.80
 -14  22   2   24.89    6.71
 -14 -22   2   25.94    3.27
 -13  22   2   32.50    7.21
 -13 -22   2   24.62    3.16
 -12 -22   2  105.40    4.75
 -12  22   2   96.14    9.63
 -11  22   2   11.81    5.27
 -11  22   2    5.44    3.57
 -11 -22   2   13.96    2.23
 -10 -22   2  413.83    7.60
 -10  22   2  442.14   14.87
  10  22  -2  432.94   12.98
 -10  22   2  449.07   18.00
   9  22  -2    2.32    2.78
  -9  22   2    0.67    4.15
  -9  22   2   -2.03    3.76
  -9 -22   2    2.67    1.37
  -8  22   2    3.18    4.31
  -8  22   2    2.63    3.19
  -8 -22   2    1.83    1.25
   8  22  -2    1.20    2.84
  -7  22   2    5.69    4.76
   7  22  -2    6.74    3.00
  -7  22   2    9.21    3.74
  -7 -22   2    4.62    1.21
  -6 -22   2  452.54    5.79
  -6  22   2  486.49   18.30
   6  22  -2  447.00   14.45
  -6  22   2  441.50   14.25
  -5  22   2  183.25   11.88
  -5  22   2  176.73    9.44
  -5 -22   2  178.19    3.40
   5  22  -2  199.53   10.12
  -4  22   2    6.18    4.67
   4  22  -2    5.78    3.60
  -4 -22   2    6.68    0.97
  -4  22   2    6.20    3.09
  -3  22   2  105.60    9.39
   3  22  -2  103.72    7.56
  -3 -22   2   95.45    2.26
  -3  22   2   87.64    6.65
   2  22  -2   64.28    6.76
  -2  22   2   60.49    7.68
  -2 -22   2   62.03    1.73
  -2  22   2   49.65    5.41
   1 -22  -2   10.57    1.28
   1  22  -2   12.99    4.31
  -1 -22   2   12.15    0.94
  -1  22   2    5.86    3.35
   0  22  -2  103.34    8.00
   0 -22   2   90.98    2.00
   0 -22  -2   95.69    2.77
   0  22   2   98.39    7.15
  -1  22  -2  218.15   10.89
  -1  22  -2  231.39   10.45
  -1 -22  -2  219.95    4.07
   1  22   2  200.01    9.57
  -2 -22  -2   12.37    1.36
  -2  22  -2   12.07    4.07
  -2  22  -2   13.70    4.12
   2  22   2   15.72    3.97
  -3  22  -2   28.03    4.33
  -3 -22  -2   26.67    1.76
   3  22   2   28.99    4.42
  -3  22  -2   27.17    4.73
  -4 -22  -2   13.03    1.53
   4  22   2   11.04    3.43
  -4  22  -2   11.68    3.46
  -4  22  -2   15.28    4.13
  -5  22  -2   94.17    7.21
   5  22   2   85.54    6.63
  -5 -22  -2   79.45    2.86
  -5  22  -2   88.67    7.08
   6  22   2   50.10    5.01
  -6 -22  -2   40.75    2.33
  -6  22  -2   37.90    4.92
  -6  22  -2   48.13    5.76
   7  22   2   95.70    6.49
  -7  22  -2   90.56    7.03
  -7 -22  -2   85.96    3.35
  -7  22  -2   93.66    7.14
  -8 -22  -2   12.32    1.87
   8  22   2   20.93    3.89
  -8  22  -2    9.00    3.67
  -8  22  -2   14.01    4.15
  -9 -22  -2   10.51    1.90
   9  22   2   12.47    3.38
  -9  22  -2   10.00    3.79
  -9  22  -2    4.63    3.60
  10  22   2    9.20    3.12
 -10 -22  -2    6.27    1.93
 -10  22  -2    6.47    4.05
 -10  22  -2    0.33    3.67
 -11 -22  -2   32.56    3.15
  11  22   2   37.82    4.61
 -11  22  -2   34.43    5.56
 -11  22  -2   38.47    5.54
 -12  22  -2   -2.41    4.16
  12  22   2    2.01    2.69
 -12 -22  -2    1.71    2.13
 -12  22  -2    2.60    3.97
 -13  22  -2   47.02    6.53
 -13 -22  -2   47.61    4.07
  13  22   2   55.04    5.16
 -13  22  -2   40.25    6.31
 -14  22  -2   44.28    6.94
 -14 -23   2   14.70    3.17
 -13  23   2    8.52    5.32
 -13 -23   2   12.97    2.57
 -12  23   2   16.02    6.54
 -12 -23   2    9.25    2.22
  11  23  -2  250.55   10.08
 -11  23   2  231.81   11.34
 -11 -23   2  240.81    6.46
 -11  23   2  231.59   14.17
 -10  23   2  106.75    7.89
 -10  23   2  100.08    9.88
 -10 -23   2   93.76    3.91
  10  23  -2  104.73    7.01
  -9  23   2   94.48    8.77
   9  23  -2   90.06    6.67
  -9 -23   2   88.28    3.52
  -9  23   2   99.86    7.75
  -8  23   2  104.02    9.73
  -8 -23   2  113.42    3.60
   8  23  -2  113.26    7.60
  -8  23   2  100.38    7.86
  -7  23   2  521.84   19.69
  -7  23   2  527.60   16.12
  -7 -23   2  535.83    6.91
   7  23  -2  535.10   15.91
  -6  23   2   58.03    7.50
  -6 -23   2   59.34    2.32
  -6  23   2   46.17    5.59
   6  23  -2   59.24    5.99
  -5  23   2  181.58   12.43
   5  23  -2  176.58   10.04
  -5  23   2  157.60    9.24
  -5 -23   2  184.47    3.51
  -4  23   2  572.62   20.91
  -4  23   2  521.39   15.97
  -4 -23   2  517.45    5.31
   4  23  -2  531.14   17.00
  -3  23   2   51.13    7.29
  -3 -23   2   60.68    1.84
   3  23  -2   70.06    6.85
  -3  23   2   56.71    5.88
  -2 -23   2    3.24    0.76
  -2  23   2    1.76    4.70
   2  23  -2    4.67    3.44
  -2  23   2    3.70    3.32
   1  23  -2  631.21   18.94
   1 -23  -2  574.75    6.55
  -1 -23   2  581.83    5.05
  -1  23   2  550.12   15.94
   0 -23   2  289.47    3.60
   0  23   2  268.75   11.24
   0 -23  -2  289.31    4.72
   0  23  -2  279.12   12.69
  -1  23  -2   56.98    6.60
  -1 -23  -2   44.65    2.04
   1  23   2   43.83    5.38
  -2  23  -2  601.39   18.16
  -2  23  -2  566.93   16.81
  -2 -23  -2  560.34    6.62
   2  23   2  576.56   15.98
  -3  23  -2    7.82    3.65
  -3  23  -2   12.70    4.04
  -3 -23  -2   14.23    1.66
   3  23   2   11.43    3.36
  -4  23  -2   46.03    5.53
  -4 -23  -2   50.19    2.47
  -4  23  -2   48.04    5.99
   4  23   2   44.44    5.12
  -5  23  -2  223.36   10.77
  -5 -23  -2  227.62    4.68
  -5  23  -2  235.45   11.47
   5  23   2  217.87    9.94
   6  23   2  358.48   12.45
  -6  23  -2  349.41   13.70
  -6 -23  -2  350.12    6.04
  -6  23  -2  354.01   13.38
  -7  23  -2   14.07    4.33
  -7  23  -2    9.09    3.82
   7  23   2   11.31    3.11
  -7 -23  -2    6.16    1.52
  -8 -23  -2  445.05    7.72
   8  23   2  487.15   14.31
  -8  23  -2  421.44   14.72
  -8  23  -2  426.07   15.14
  -9  23  -2   12.96    4.33
  -9 -23  -2   10.06    1.96
   9  23   2    8.94    3.38
  -9  23  -2   12.79    4.15
 -10  23  -2   30.40    5.36
  10  23   2   28.45    4.29
 -10 -23  -2   32.10    2.85
 -10  23  -2   32.36    5.28
 -11 -23  -2   35.67    3.19
  11  23   2   43.47    4.83
 -11  23  -2   48.19    6.54
 -11  23  -2   46.47    6.77
 -12  23  -2  167.83   10.93
 -12 -23  -2  168.16    6.37
 -12  23  -2  181.91   11.46
  12  23   2  193.77    9.07
 -13 -23  -2    1.57    2.44
 -13  23  -2    3.58    4.49
  13  23   2    3.56    3.17
 -13  23  -2    4.89    4.57
 -13  24   2   23.50    7.51
 -13 -24   2   16.86    2.80
 -12 -24   2  206.65    6.50
 -12  24   2  202.28   14.31
  11  24  -2   69.70    5.82
 -11  24   2   58.35    8.62
 -11 -24   2   55.56    3.47
 -10  24   2   66.32    8.38
 -10  24   2   60.87    6.56
 -10 -24   2   51.04    3.06
  10  24  -2   59.23    5.77
  -9  24   2   90.27    9.52
  -9  24   2   83.07    7.36
  -9 -24   2   79.92    3.39
   9  24  -2   88.42    6.69
  -8  24   2    3.76    5.23
  -8  24   2    1.46    3.52
  -8 -24   2    6.20    1.51
   8  24  -2   10.14    3.70
  -7  24   2    3.85    3.33
  -7 -24   2    4.36    1.24
  -7  24   2    9.52    5.86
   7  24  -2    6.15    3.37
  -6  24   2 1179.89   29.54
   6  24  -2 1209.53   24.85
  -6 -24   2 1192.00    9.50
  -6  24   2 1180.38   24.42
  -5  24   2  165.76   12.22
  -5  24   2  143.60    9.11
   5  24  -2  183.09   10.30
  -5 -24   2  169.50    3.43
  -4  24   2   41.24    6.87
  -4  24   2   39.66    5.30
  -4 -24   2   38.16    1.65
   4  24  -2   32.15    5.44
   3  24  -2    3.20    3.73
  -3  24   2    7.38    4.85
  -3 -24   2    5.22    0.89
  -3  24   2    0.30    3.39
   2  24  -2   71.20    7.21
  -2 -24   2   50.43    1.72
  -2  24   2   51.12    6.00
   1  24  -2   34.72    6.26
   1 -24  -2   33.97    1.95
  -1  24   2   43.10    5.65
  -1 -24   2   36.38    1.45
   0  24  -2  511.95   17.40
   0 -24  -2  515.43    6.34
   0  24   2  493.78   15.29
   0 -24   2  533.53    5.03
  -1  24  -2  668.72   19.82
   1 -24   2  651.95    5.57
  -1 -24  -2  649.80    7.08
   1  24   2  621.91   17.27
  -2  24  -2    4.30    4.07
  -2  24  -2    3.24    3.87
  -2 -24  -2    5.94    1.20
   2  24   2   12.88    4.08
  -3  24  -2   59.79    6.24
  -3 -24  -2   62.22    2.52
   3  24   2   68.24    6.31
  -3  24  -2   62.26    6.79
  -4 -24  -2   10.77    1.45
  -4  24  -2    6.51    3.96
  -4  24  -2   16.72    4.62
   4  24   2    7.50    3.08
  -5  24  -2   73.65    7.09
  -5 -24  -2   65.87    2.79
  -5  24  -2   68.83    6.97
   5  24   2   65.68    5.94
  -6  24  -2   62.87    6.71
   6  24   2   64.66    6.11
  -6 -24  -2   65.30    2.83
  -6  24  -2   62.52    6.82
   7  24   2  520.02   15.16
  -7 -24  -2  485.83    7.61
  -7  24  -2  506.19   17.07
  -7  24  -2  510.57   16.43
   8  24   2   60.92    6.03
  -8 -24  -2   61.92    3.18
  -8  24  -2   61.32    6.75
  -8  24  -2   69.11    6.88
  -9  24  -2   95.18    8.30
  -9 -24  -2   98.68    4.08
   9  24   2  105.83    7.29
  -9  24  -2  100.42    8.10
 -10  24  -2    6.93    4.52
  10  24   2    3.15    3.01
 -10 -24  -2    4.84    1.95
 -10  24  -2    3.35    4.22
 -11  24  -2   27.53    5.60
  11  24   2   31.86    4.57
 -11 -24  -2   27.54    2.87
 -11  24  -2   28.89    5.95
 -12  24  -2   38.23    6.74
 -12 -24  -2   34.36    3.54
 -12  24  -2   25.07    6.02
  12  24   2   45.80    5.12
  13  24   2   75.96    6.31
 -13  24  -2   72.67    8.74
 -13  24  -2   52.85    7.45
 -13  25   2   11.77    6.86
 -12  25   2   21.04    7.10
 -12 -25   2   18.28    2.68
 -11  25   2   18.34    6.19
  11  25  -2   17.33    3.90
 -11 -25   2   17.10    2.46
 -10  25   2   43.96    8.21
 -10 -25   2   39.80    2.89
 -10  25   2   33.67    5.35
  10  25  -2   47.05    5.57
  -9  25   2  370.64   18.21
  -9 -25   2  361.72    6.87
  -9  25   2  353.14   14.12
   9  25  -2  355.03   13.16
  -8  25   2  244.22   14.48
  -8  25   2  240.07   11.61
  -8 -25   2  229.06    5.12
   8  25  -2  248.31   11.43
  -7  25   2  103.10    9.91
  -7 -25   2   97.00    3.21
   7  25  -2   94.59    7.75
  -7  25   2   94.51    7.72
  -6  25   2   40.06    5.53
   6  25  -2   23.30    4.83
  -6  25   2   39.95    6.78
  -6 -25   2   27.84    1.80
  -5  25   2   22.90    6.42
  -5 -25   2   21.19    1.50
   5  25  -2   21.51    4.29
  -5  25   2   16.67    4.48
   4  25  -2  138.80    9.58
  -4  25   2  146.58   12.04
  -4 -25   2  134.47    2.95
  -4  25   2  138.03    9.04
  -3  25   2   91.27    9.81
  -3  25   2   84.46    7.28
   3  25  -2  102.32    8.17
  -3 -25   2   93.37    2.35
   2  25  -2  786.70   21.81
  -2 -25   2  763.91    6.25
  -2  25   2  712.87   18.96
   2 -25  -2  764.90    7.78
   1  25  -2   85.77    8.02
   1 -25  -2   71.26    2.56
  -1 -25   2   62.29    1.88
  -1  25   2   63.61    6.32
   0 -25  -2   62.75    2.49
   0  25  -2   74.62    8.10
   0 -25   2   67.21    1.93
   0  25   2   80.78    7.18
  -1  25  -2   53.66    7.05
   1 -25   2   41.25    1.61
  -1 -25  -2   42.52    2.09
   1  25   2   45.28    6.09
  -2  25  -2   67.92    7.41
  -2  25  -2   73.09    7.19
   2  25   2   76.24    6.65
  -2 -25  -2   71.81    2.61
  -3  25  -2  186.01   11.26
  -3  25  -2  182.76   10.67
  -3 -25  -2  184.64    4.12
   3  25   2  181.07    9.66
  -4  25  -2  102.13    8.22
  -4 -25  -2   98.00    3.20
   4  25   2   91.83    7.17
  -4  25  -2  101.13    8.36
  -5 -25  -2   26.83    2.09
  -5  25  -2   32.59    5.43
  -5  25  -2   29.75    5.45
   5  25   2   23.97    4.14
   6  25   2   30.27    4.68
  -6  25  -2   26.85    5.37
  -6  25  -2   29.21    5.46
  -6 -25  -2   26.34    2.07
  -7  25  -2    9.73    4.41
  -7  25  -2   11.04    4.54
  -7 -25  -2    4.59    1.55
   7  25   2    7.13    3.56
  -8  25  -2    3.48    4.06
  -8  25  -2    2.88    4.25
  -8 -25  -2    3.73    1.66
   8  25   2    6.12    3.67
  -9 -25  -2   55.88    3.32
   9  25   2   66.33    6.18
  -9  25  -2   42.84    6.25
  -9  25  -2   46.00    6.23
 -10 -25  -2  198.09    6.06
 -10  25  -2  186.27   11.78
 -10  25  -2  171.67   11.10
 -11  25  -2    8.36    5.01
 -11  25  -2   13.12    5.20
  11  25   2    7.06    3.06
 -11 -25  -2   11.12    2.45
  12  25   2   56.75    5.79
 -12 -25  -2   50.32    3.99
 -12  25  -2   40.51    6.99
 -12  25  -2   52.57    7.39
  13  25   2   27.63    4.42
 -13  25  -2   30.24    6.68
 -12  26   2   38.23    7.78
 -11  26   2    8.19    6.04
  11  26  -2   -0.54    3.18
 -11 -26   2    5.44    2.14
 -10  26   2  114.12   11.53
 -10 -26   2  119.69    4.56
 -10  26   2  121.24    8.92
  10  26  -2  128.25    8.19
   9  26  -2   29.19    4.84
  -9  26   2   33.47    7.50
  -9  26   2   18.56    4.67
  -9 -26   2   31.13    2.56
  -8  26   2  159.24    9.92
  -8  26   2  175.28   13.00
  -8 -26   2  153.23    4.28
   8  26  -2  147.26    9.12
  -7  26   2    7.86    5.28
  -7 -26   2   10.74    1.50
  -7  26   2   12.78    4.58
   7  26  -2   10.06    3.83
  -6 -26   2    7.19    1.35
  -6  26   2    7.63    5.28
   6  26  -2    6.55    4.08
  -6  26   2   -2.59    3.89
  -5  26   2   82.18    9.71
   5  26  -2   91.16    7.93
  -5  26   2   86.24    7.48
  -5 -26   2   79.64    2.57
  -4  26   2   17.46    4.57
   4  26  -2   19.78    4.71
  -4  26   2    5.74    5.72
  -4 -26   2   14.53    1.28
   3  26  -2    5.94    4.19
  -3  26   2    8.35    5.14
  -3 -26   2    8.26    1.02
  -3  26   2    7.35    3.79
   2  26  -2  501.20   17.69
  -2 -26   2  487.55    5.15
   2 -26  -2  473.34    6.28
  -2  26   2  505.67   16.35
   1  26  -2  718.32   21.33
  -1 -26   2  669.23    5.91
   1 -26  -2  660.78    7.40
  -1  26   2  632.44   18.26
   0  26  -2    9.80    4.98
   0 -26   2    3.90    0.85
   0 -26  -2    4.39    1.21
   0  26   2    2.70    3.37
  -1  26  -2   75.43    7.78
   1 -26   2   76.88    2.19
  -1 -26  -2   71.83    2.63
   1  26   2   63.91    6.43
  -2  26  -2  107.20    8.78
  -2  26  -2  112.27    8.65
  -2 -26  -2   86.56    2.89
   2  26   2   91.00    7.35
  -3  26  -2  130.79    9.81
  -3  26  -2  132.59    9.55
  -3 -26  -2  119.37    3.44
   3  26   2  116.57    8.03
  -4  26  -2  191.22   11.36
  -4  26  -2  196.47   11.52
  -4 -26  -2  198.50    4.48
   4  26   2  216.02   10.65
  -5  26  -2  188.75   10.97
  -5 -26  -2  189.54    4.54
   5  26   2  190.10    9.95
  -5  26  -2  177.21   11.24
  -6  26  -2   19.61    5.51
  -6  26  -2   19.53    5.18
  -6 -26  -2   18.74    1.91
   6  26   2   22.45    4.71
  -7  26  -2  110.23    9.00
   7  26   2  103.33    7.69
  -7 -26  -2  100.94    3.83
  -7  26  -2  102.43    8.98
  -8  26  -2    8.87    4.83
  -8 -26  -2    3.59    1.76
   8  26   2    3.21    3.31
  -8  26  -2    4.15    4.18
  -9 -26  -2  215.13    5.91
  -9  26  -2  221.63   12.61
  -9  26  -2  210.15   11.98
   9  26   2  241.34   10.87
 -10  26  -2   30.45    6.23
 -10  26  -2   22.01    5.57
 -10 -26  -2   30.74    2.95
  10  26   2   32.31    4.89
 -11 -26  -2   59.06    3.88
  11  26   2   64.78    6.25
 -11  26  -2   61.79    7.78
 -11  26  -2   56.90    7.77
 -12  26  -2   12.38    5.58
 -12  26  -2   10.62    5.28
  12  26   2   19.19    3.93
 -12 -26  -2   12.11    2.80
 -12  27   2    2.55    6.03
 -11  27   2    6.37    6.36
 -10  27   2   14.03    6.59
  10  27  -2   12.57    3.75
 -10  27   2   10.08    4.69
 -10 -27   2   12.36    2.28
  -9  27   2  116.30   11.42
   9  27  -2  111.29    8.24
  -9  27   2  107.59    8.55
  -9 -27   2  112.41    4.08
  -8 -27   2   41.65    2.58
  -8  27   2   33.19    5.59
   8  27  -2   29.76    5.22
  -8  27   2   44.12    8.26
  -7 -27   2    6.67    1.39
  -7  27   2    9.80    4.37
  -7  27   2    1.35    5.46
   7  27  -2    6.92    3.82
  -6  27   2  192.69   13.95
   6  27  -2  171.48   10.50
  -6  27   2  199.52   11.11
  -6 -27   2  175.41    4.00
  -5  27   2   58.86    8.49
  -5  27   2   60.80    6.83
   5  27  -2   67.09    7.34
  -5 -27   2   60.70    2.33
  -4  27   2   16.67    6.58
  -4  27   2   14.31    4.38
   4  27  -2   12.16    4.53
  -4 -27   2   11.97    1.24
  -3  27   2  155.91   12.54
  -3 -27   2  152.91    3.12
  -3  27   2  153.06    9.75
   3  27  -2  155.31   10.61
   2  27  -2  232.63   13.04
  -2  27   2  263.90   12.23
   2 -27  -2  231.74    4.60
  -2 -27   2  246.18    3.79
   1  27  -2   89.79    8.98
  -1 -27   2   84.23    2.26
   1 -27  -2   80.65    2.82
  -1  27   2  100.69    8.29
   0  27  -2   82.02    8.13
   0 -27   2   65.71    2.02
   0  27   2   63.43    6.45
   0 -27  -2   68.36    2.64
  -1  27  -2   86.98    8.83
  -1 -27  -2   68.71    2.69
   1 -27   2   71.49    2.15
   1  27   2   63.12    6.54
  -2  27  -2   13.07    5.08
  -2 -27  -2    6.14    1.37
   2  27   2   10.76    4.05
  -3  27  -2   47.74    6.93
  -3  27  -2   42.79    6.69
  -3 -27  -2   52.65    2.47
   3  27   2   45.91    5.99
  -4  27  -2  146.47   10.63
  -4  27  -2  135.37   10.10
  -4 -27  -2  155.03    4.11
   4  27   2  155.45    9.38
  -5  27  -2    9.08    4.73
  -5  27  -2    4.45    4.57
   5  27   2    7.93    3.69
  -5 -27  -2    8.56    1.58
  -6  27  -2   39.07    6.13
   6  27   2   38.17    5.39
  -6  27  -2   33.15    6.16
  -6 -27  -2   34.51    2.41
  -7  27  -2    9.61    5.41
  -7  27  -2   13.67    5.33
   7  27   2    0.09    3.13
  -7 -27  -2    1.44    1.51
  -8  27  -2   72.71    7.96
   8  27   2   82.33    7.11
  -8 -27  -2   74.75    3.62
  -8  27  -2   83.26    8.87
  -9  27  -2   26.05    6.23
  -9  27  -2   25.81    5.95
  -9 -27  -2   25.27    2.65
   9  27   2   26.40    4.77
 -10 -27  -2  215.19    6.44
  10  27   2  249.46   11.32
 -10  27  -2  208.91   12.97
 -10  27  -2  220.91   13.07
 -11  27  -2   15.87    6.03
  11  27   2   15.57    4.07
 -11  27  -2   10.76    5.47
 -11 -27  -2   10.95    2.49
  12  27   2    4.64    3.42
 -12  27  -2    1.03    5.33
 -12  27  -2   -8.56    5.62
 -11  28   2   91.64   11.12
 -10  28   2   90.97   10.61
 -10  28   2   77.89    8.02
  10  28  -2   96.16    7.55
  -9  28   2   24.45    7.20
  -9  28   2   18.16    4.87
  -9 -28   2   21.34    2.23
   9  28  -2   19.44    4.85
  -8 -28   2  640.91    8.67
  -8  28   2  719.96   21.14
  -8  28   2  700.72   25.86
   8  28  -2  648.11   19.27
  -7  28   2  125.25   12.17
  -7 -28   2  108.45    3.47
   7  28  -2  120.36    9.27
  -7  28   2  127.82    9.52
  -6  28   2   41.11    7.98
  -6 -28   2   31.74    1.99
  -6  28   2   23.28    5.31
   6  28  -2   38.26    5.96
  -5  28   2   12.74    6.00
   5  28  -2    4.30    3.95
  -5 -28   2   10.45    1.34
  -5  28   2    8.40    4.01
  -4  28   2  188.35   14.11
  -4 -28   2  172.58    3.58
  -4  28   2  188.30   11.01
   4  28  -2  195.12   11.67
  -3 -28   2  141.12    3.11
   3  28  -2  171.13   11.35
  -3  28   2  148.44    9.97
   2  28  -2  148.85   10.82
  -2 -28   2  146.85    3.07
   2 -28  -2  146.40    3.78
  -2  28   2  160.40   10.17
   1 -28  -2  367.18    5.84
   1  28  -2  361.13   16.16
  -1  28   2  365.19   14.67
  -1 -28   2  353.15    4.55
   0 -28  -2    4.69    1.31
   0 -28   2    6.46    1.03
   0  28  -2    6.91    4.56
   0  28   2    8.39    3.94
  -1 -28  -2    3.00    1.22
  -1  28  -2    6.32    4.32
   1 -28   2    3.59    0.92
   1  28   2    3.50    3.75
  -2  28  -2  300.25   15.08
   2 -28   2  269.74    4.11
   2  28   2  281.44   12.64
  -2 -28  -2  271.41    5.12
  -3  28  -2  374.39   16.48
  -3  28  -2  366.84   15.84
  -3 -28  -2  359.99    6.00
   3  28   2  337.81   13.83
  -4  28  -2   19.68    5.63
  -4  28  -2   11.30    4.78
  -4 -28  -2   10.05    1.57
   4  28   2   25.23    5.25
  -5  28  -2  246.24   13.79
  -5 -28  -2  267.85    5.59
  -5  28  -2  255.53   14.12
   5  28   2  291.35   12.57
   6  28   2   29.86    5.31
  -6  28  -2   26.22    6.13
  -6  28  -2   24.70    6.03
  -6 -28  -2   28.10    2.35
  -7  28  -2   39.15    6.94
  -7  28  -2   38.02    6.58
  -7 -28  -2   36.22    2.60
   7  28   2   33.72    5.32
  -8  28  -2  132.19   10.72
  -8  28  -2  127.08   10.52
   8  28   2  153.96    9.30
  -8 -28  -2  131.70    4.72
  -9  28  -2  397.30   17.90
  -9  28  -2  381.26   17.04
  -9 -28  -2  425.70    8.41
   9  28   2  451.63   15.17
 -10  28  -2   40.23    7.35
 -10 -28  -2   44.14    3.37
  10  28   2   52.53    6.17
 -10  28  -2   45.56    7.73
 -11  28  -2  167.90   12.78
  11  28   2  187.28    9.99
 -11 -28  -2  181.49    6.38
 -11  28  -2  153.17   11.96
 -12  28  -2   34.36    7.22
 -12  28  -2   37.94    7.68
  12  28   2   41.35    5.43
 -11  29   2  261.44   17.63
 -10  29   2   69.67   10.13
 -10  29   2   63.80    7.67
  10  29  -2   54.87    6.56
  -9  29   2   11.95    6.81
   9  29  -2    9.92    4.40
  -9  29   2    4.20    4.38
  -8  29   2   97.68    8.84
  -8  29   2  120.41   12.58
   8  29  -2  136.35    9.70
  -7  29   2   53.81    9.43
  -7 -29   2   51.31    2.58
  -7  29   2   44.48    6.45
   7  29  -2   49.37    6.53
  -6  29   2   11.96    6.36
  -6  29   2    3.13    3.81
  -6 -29   2    6.98    1.36
   6  29  -2   13.15    4.63
  -5  29   2  179.15   13.99
  -5  29   2  190.64   11.26
  -5 -29   2  167.39    3.80
   5  29  -2  173.66   11.09
  -4  29   2   25.11    5.47
  -4  29   2   26.04    7.39
  -4 -29   2   21.70    1.57
   4  29  -2   27.50    5.92
  -3 -29   2   32.20    1.73
  -3  29   2   35.34    5.74
   3 -29  -2   27.39    1.99
   3  29  -2   30.62    6.17
  -2 -29   2   68.95    2.23
   2 -29  -2   80.85    3.00
  -2  29   2   64.65    7.14
   2  29  -2   93.86    9.31
  -1 -29   2  352.87    4.73
  -1  29   2  349.71   14.84
   1  29  -2  402.49   17.01
   1 -29  -2  380.86    6.07
   0  29  -2  136.12   10.73
   0  29   2  105.20    8.62
   0 -29  -2  113.29    3.40
   0 -29   2  114.02    2.73
   1 -29   2   58.03    2.08
  -1  29  -2   53.11    7.80
  -1 -29  -2   55.15    2.55
   1  29   2   56.13    6.38
   2 -29   2  163.36    3.30
  -2  29  -2  174.12   12.09
  -2 -29  -2  158.72    4.06
   2  29   2  194.20   11.07
  -3  29  -2   22.71    6.35
  -3  29  -2   23.46    6.60
  -3 -29  -2   22.16    1.95
   3  29   2   28.08    5.57
   4  29   2    4.85    3.78
  -4  29  -2    1.04    4.74
  -4  29  -2    1.46    4.42
  -4 -29  -2    2.00    1.39
  -5  29  -2  159.68   11.77
  -5  29  -2  164.86   11.90
  -5 -29  -2  141.95    4.19
   5  29   2  133.94    9.27
  -6  29  -2  529.48   20.25
   6  29   2  521.93   17.19
  -6  29  -2  496.70   18.88
  -6 -29  -2  503.57    7.99
  -7  29  -2    5.27    5.13
  -7  29  -2    3.90    4.98
   7  29   2    1.38    3.43
  -7 -29  -2    3.14    1.66
  -8  29  -2    9.33    5.45
  -8  29  -2   10.93    5.59
   8  29   2    5.15    3.95
  -8 -29  -2    7.22    2.11
  -9  29  -2   11.33    6.22
  -9  29  -2   13.80    5.67
   9  29   2   26.42    5.06
  -9 -29  -2   23.99    2.64
 -10  29  -2   10.44    5.53
 -10  29  -2    3.46    5.29
  10  29   2    6.30    3.56
 -10 -29  -2    5.59    2.24
  11  29   2    3.23    3.85
 -11  29  -2    0.52    5.39
 -11  29  -2    0.92    5.24
 -11 -29  -2    0.93    2.07
 -11  30   2    1.76    7.06
  10  30  -2   24.41    5.22
 -10  30   2   22.93    5.69
 -10  30   2   21.80    7.93
   9  30  -2   10.73    4.25
  -9  30   2   18.59    6.90
  -9  30   2   12.87    5.06
  -8  30   2   99.06   12.57
   8  30  -2  111.17    9.03
  -8  30   2   98.76    9.00
  -7  30   2   15.51    7.07
  -7  30   2    7.07    4.29
   7  30  -2   12.04    4.72
  -6  30   2  287.40   18.62
   6  30  -2  324.07   14.74
  -6  30   2  301.91   14.19
  -6 -30   2  277.19    5.26
  -5  30   2  248.43   16.64
   5  30  -2  275.84   13.98
  -5  30   2  286.92   13.79
  -5 -30   2  235.55    4.58
  -4  30   2  224.62   15.96
  -4  30   2  215.36   12.31
   4  30  -2  215.45   12.71
  -4 -30   2  198.94    3.97
  -3 -30   2   11.92    1.35
  -3  30   2   10.55    4.40
   3 -30  -2   10.54    1.59
   2 -30  -2   59.28    2.72
   2  30  -2   69.35    8.66
  -2 -30   2   52.27    2.08
  -2  30   2   45.97    6.74
   1  30  -2   92.05    9.42
  -1 -30   2   73.49    2.35
  -1  30   2   88.53    8.09
   1 -30  -2   78.92    3.00
   0  30  -2  326.46   16.36
   0 -30  -2  296.38    5.48
   0 -30   2  295.02    4.37
   0  30   2  322.13   14.26
   1 -30   2  243.00    4.06
  -1  30  -2  259.81   14.61
  -1 -30  -2  230.81    4.87
   1  30   2  255.39   12.67
  -2  30  -2   16.27    6.39
  -2 -30  -2   13.06    1.73
   2 -30   2   14.22    1.37
   2  30   2   16.80    5.15
  -3  30  -2   74.18    9.06
  -3 -30  -2   73.92    3.08
   3  30   2   73.39    7.57
  -4  30  -2   52.62    7.97
  -4  30  -2   47.73    7.65
  -4 -30  -2   44.74    2.60
   4  30   2   39.67    5.91
  -5  30  -2  205.89   13.45
  -5  30  -2  173.49   12.42
  -5 -30  -2  177.52    4.76
   5  30   2  171.35   10.31
  -6  30  -2   18.66    6.52
  -6  30  -2   23.21    6.62
  -6 -30  -2   12.55    1.93
   6  30   2   15.36    4.51
  -7  30  -2  126.91   11.34
  -7  30  -2  129.75   10.78
   7  30   2  138.89    9.60
  -7 -30  -2  132.24    4.54
  -8  30  -2   40.14    7.72
  -8  30  -2   33.23    6.61
  -8 -30  -2   29.34    2.73
   8  30   2   24.49    4.81
  -9  30  -2   22.32    6.48
  -9  30  -2   26.63    6.84
  -9 -30  -2   30.99    2.97
   9  30   2   32.48    5.33
 -10  30  -2   -6.12    5.90
 -10  30  -2    4.85    5.89
 -10 -30  -2    3.88    2.14
  10  30   2    1.63    3.51
 -11  30  -2   29.76    7.24
 -10  31   2   39.28    9.14
  10  31  -2   27.98    5.61
 -10  31   2   33.03    6.47
   9  31  -2   24.56    5.38
  -9  31   2   18.67    7.78
  -9  31   2   12.91    5.17
  -8  31   2   -4.56    7.28
  -8  31   2   -3.49    4.76
   8  31  -2    0.82    4.00
  -7  31   2   69.87   10.24
  -7  31   2   69.50    8.02
   7  31  -2   70.28    7.93
  -6  31   2  117.94   12.21
  -6  31   2  124.05    9.84
   6  31  -2  107.54    9.13
  -5  31   2  142.42   13.63
   5  31  -2  146.28   10.75
  -5  31   2  125.93   10.13
   4  31  -2    2.10    4.45
  -4  31   2    5.68    4.21
  -3 -31   2   43.63    2.06
   3 -31  -2   41.05    2.43
   3  31  -2   54.06    7.79
  -3  31   2   46.14    6.83
   2  31  -2   19.13    5.85
   2 -31  -2   15.34    1.73
  -2 -31   2   11.99    1.33
  -2  31   2   16.50    5.10
   1  31  -2   24.09    6.40
  -1  31   2   22.61    5.29
   1 -31  -2   19.69    1.80
  -1 -31   2   19.08    1.49
   0 -31   2   22.34    1.51
   0 -31  -2   24.17    2.03
   0  31  -2   30.77    6.63
   0  31   2   27.94    5.59
  -1 -31  -2  111.66    3.60
  -1  31  -2  148.78   11.98
   1 -31   2  112.95    2.88
   1  31   2  120.54    9.41
  -2  31  -2  122.61   11.04
  -2 -31  -2  125.95    3.84
   2 -31   2  134.96    3.18
   2  31   2  140.30   10.19
  -3  31  -2    4.69    5.21
  -3 -31  -2    2.90    1.47
   3 -31   2    6.25    1.22
   3  31   2   -1.11    4.18
   4  31   2    3.65    4.01
  -4  31  -2    5.38    5.22
  -4  31  -2   -3.71    5.18
  -4 -31  -2    1.35    1.48
  -5 -31  -2   10.77    1.83
  -5  31  -2   13.45    6.05
   5  31   2    8.36    4.27
  -5  31  -2   16.20    6.17
   6  31   2   41.27    6.03
  -6  31  -2   30.78    6.47
  -6  31  -2   37.45    7.24
  -6 -31  -2   37.05    2.66
  -7  31  -2   10.84    5.57
   7  31   2   12.36    4.56
  -7 -31  -2    9.38    2.06
  -8  31  -2    0.84    5.10
  -8 -31  -2    5.04    2.12
   8  31   2    5.67    4.04
  -9  31  -2    5.33    5.49
   9  31   2    8.99    4.34
  -9 -31  -2    7.26    2.24
 -10  31  -2   11.59    6.09
 -10 -31  -2    7.15    2.37
  10  32  -2   54.41    6.87
   9  32  -2   18.32    5.21
  -9  32   2   11.51    7.35
  -9  32   2   22.31    5.91
  -8  32   2   13.32    8.60
  -8  32   2   14.41    5.25
   8  32  -2    7.23    4.11
  -7  32   2   16.20    7.55
  -7  32   2   22.27    5.86
   7  32  -2   12.12    4.91
  -6  32   2  349.47   20.60
  -6  32   2  374.13   16.64
   6  32  -2  352.46   16.18
   5  32  -2  317.39   15.58
  -5  32   2  275.61   18.22
  -5  32   2  290.03   14.67
   4  32  -2  107.30    9.81
  -4  32   2  107.53    9.33
   4 -32  -2   97.54    3.48
   3  32  -2  121.62   10.56
  -3  32   2  153.73   10.80
   3 -32  -2  120.29    3.85
   2 -32  -2    6.86    1.49
  -2  32   2    7.58    4.42
   1 -32  -2    1.79    1.31
   1  32  -2    5.41    5.32
  -1  32   2    9.17    4.58
   0 -32   2  387.91    5.32
   0  32  -2  426.86   19.18
   0 -32  -2  401.89    6.51
   0  32   2  403.06   16.61
  -1  32  -2  477.26   20.30
   1 -32   2  435.89    5.57
   1  32   2  471.63   17.65
  -1 -32  -2  460.94    7.07
   2 -32   2    1.65    1.06
  -2  32  -2    4.80    5.22
  -2 -32  -2    1.41    1.40
   2  32   2    9.89    5.03
  -3  32  -2   55.52    8.37
  -3 -32  -2   45.92    2.73
   3  32   2   53.87    7.02
   3 -32   2   47.51    2.11
  -4 -32  -2   38.81    2.60
   4  32   2   39.74    6.44
  -4  32  -2   37.40    7.33
  -5  32  -2  200.08   14.30
  -5 -32  -2  170.24    4.96
   5  32   2  182.36   11.18
   6  32   2   61.68    7.41
  -6  32  -2   75.72    9.52
  -6 -32  -2   62.26    3.34
  -7  32  -2  190.63   14.10
   7  32   2  208.73   11.76
  -7 -32  -2  209.69    5.86
   8  32   2   40.51    6.19
  -8 -32  -2   38.38    3.14
  -8  32  -2   29.67    7.20
  -9  32  -2   22.50    7.22
  -9 -32  -2   23.50    2.78
   9  32   2   30.28    5.42
  10  33  -2   14.66    5.14
  -9  33   2   38.19    9.23
  -9  33   2   41.61    7.28
   9  33  -2   51.97    7.58
  -8  33   2   38.74    9.89
  -8  33   2   35.03    6.71
   8  33  -2   36.50    6.30
  -7  33   2   34.46    9.95
  -7  33   2   35.25    6.53
   7  33  -2   38.11    6.55
  -6  33   2   11.74    5.34
   6  33  -2    0.54    4.52
  -5  33   2   77.43   10.64
   5  33  -2   62.87    8.24
  -5  33   2   93.27    8.99
   4 -33  -2   14.46    1.89
  -4  33   2    9.07    4.89
   4  33  -2    9.83    5.43
   3 -33  -2   24.97    2.16
   3  33  -2   23.75    6.30
  -3  33   2   24.29    6.14
  -2  33   2   -2.74    4.28
   2 -33  -2    3.01    1.48
   1  33  -2    3.96    5.19
   1 -33  -2    3.25    1.50
  -1  33   2   -5.69    4.77
   0  33   2   38.67    6.79
   0 -33  -2   29.86    2.31
  -1  33  -2   18.85    7.04
  -1 -33  -2    2.14    1.47
   1  33   2   23.02    5.98
   2  33   2   37.48    6.18
  -2 -33  -2   32.46    2.35
  -2  33  -2   27.21    7.00
  -3  33  -2   65.83    9.14
  -3 -33  -2   63.32    3.05
   3  33   2   66.26    7.56
   4  33   2   25.12    5.68
  -4  33  -2   20.05    7.02
  -4 -33  -2   23.47    2.32
   5  33   2    4.57    4.47
  -5 -33  -2    4.03    1.76
  -5  33  -2   -4.46    5.76
  -6 -33  -2   16.11    2.26
  -6  33  -2   12.23    6.26
   6  33   2   26.50    5.86
   7  33   2   43.57    6.76
  -7  33  -2   31.57    7.97
  -7 -33  -2   29.12    2.77
  -8 -33  -2    0.14    1.95
  -8  33  -2   -4.07    5.83
   8  33   2    8.58    4.61
   9  34  -2    6.16    4.32
  -9  34   2    8.24    5.02
  -8  34   2  103.84   13.34
   8  34  -2   84.86    8.86
  -8  34   2   89.07    9.01
  -7  34   2   48.48   10.19
  -7  34   2   58.79    8.06
   7  34  -2   43.56    7.15
  -6  34   2   80.35   11.57
  -6  34   2   92.80    9.53
   6  34  -2   75.19    8.89
  -5  34   2    1.53    4.33
   5  34  -2   -2.13    5.12
   4 -34  -2  111.44    3.83
   4  34  -2  119.40   10.41
  -4  34   2  113.38    9.98
   3  34  -2  139.37   11.61
  -3  34   2  127.94   10.44
   3 -34  -2  120.72    3.95
   2 -34  -2   34.56    2.43
   2  34  -2   30.77    6.74
  -2  34   2   31.52    6.32
   1  34  -2   22.25    6.66
   1 -34  -2   31.39    2.37
  -1  34   2   40.35    6.99
   0 -34  -2   35.69    2.45
   0  34  -2   37.75    7.51
   0  34   2   30.45    6.04
  -1 -34  -2   54.04    2.84
  -1  34  -2   57.50    8.67
   1  34   2   63.12    7.66
  -2  34  -2   72.08    9.36
  -2 -34  -2   72.18    3.28
   2  34   2   78.43    8.32
  -3  34  -2  147.29   13.00
  -3 -34  -2  135.76    4.33
   3  34   2  150.77   10.99
   4  34   2   24.77    5.62
  -4 -34  -2   19.55    2.22
  -4  34  -2   28.66    7.36
  -5  34  -2  253.23   16.19
   5  34   2  242.14   13.31
  -5 -34  -2  242.90    5.98
   6  34   2   53.88    7.35
  -6 -34  -2   35.59    2.91
  -6  34  -2   38.99    8.40
  -7  34  -2  117.76   11.72
  -7 -34  -2  125.19    4.89
  -8 -34  -2    1.33    1.97
  -9  35   2    4.20    5.37
   8  35  -2    4.46    4.99
  -8  35   2    1.08    4.88
  -7  35   2   -4.15    7.65
  -7  35   2   -2.16    4.87
   7  35  -2    0.64    4.87
  -6  35   2   70.37    8.94
  -6  35   2   60.74   11.14
   6  35  -2   80.16    8.83
   5 -35  -2   99.29    3.81
  -5  35   2   89.88    9.25
   5  35  -2  100.06   10.09
   4  35  -2   11.25    5.31
  -4  35   2   15.72    5.85
   4 -35  -2   15.79    2.07
   3 -35  -2   -0.32    1.49
   3  35  -2    3.23    5.03
  -3  35   2    0.91    4.96
   2 -35  -2    8.26    1.71
   2  35  -2    4.80    5.11
  -2  35   2    7.60    5.29
   1  35  -2    1.04    5.34
   1 -35  -2    4.87    1.63
   0 -35  -2    1.78    1.54
   0  35   2    6.24    5.10
   0  35  -2    1.63    5.42
   1  35   2   29.97    6.16
  -1 -35  -2   23.65    2.26
  -1  35  -2   30.33    7.53
  -2 -35  -2   57.56    3.08
   2  35   2   64.03    8.02
  -2  35  -2   44.35    8.23
  -3  35  -2   94.28   10.77
  -3 -35  -2   77.00    3.43
   3  35   2   83.39    8.87
   4  35   2   17.93    5.55
  -4 -35  -2   10.41    2.01
  -4  35  -2   11.77    6.27
  -5 -35  -2    7.11    1.97
   5  35   2   10.15    4.92
  -5  35  -2    9.44    6.57
  -6  35  -2    1.21    5.73
  -6 -35  -2    5.18    2.04
  -7 -35  -2   10.28    2.32
  -8  36   2  178.98   12.97
  -7  36   2  146.61   15.60
  -7  36   2  172.17   12.64
  -6  36   2    1.68    5.20
   6  36  -2   -0.86    4.95
   5 -36  -2    1.69    1.60
   5  36  -2    8.42    5.42
  -5  36   2    8.45    5.75
   4 -36  -2  143.67    4.56
   4  36  -2  154.43   12.48
  -4  36   2  118.98   10.80
  -3  36   2  140.34   11.06
   3  36  -2  167.58   13.01
   3 -36  -2  155.01    4.66
   2 -36  -2   50.02    2.89
  -2  36   2   50.75    7.56
   2  36  -2   57.35    8.94
   1  36  -2  117.01   11.42
   1 -36  -2  117.45    4.01
  -1  36   2  133.85   10.99
   0  36   2    1.89    4.51
   0  36  -2    2.56    5.71
   0 -36  -2    1.62    1.64
  -1  36  -2   12.07    6.61
  -1 -36  -2    5.42    1.76
   1  36   2   11.14    5.20
  -2 -36  -2  135.86    4.46
  -2  36  -2  157.36   13.51
   2  36   2  134.91   10.74
  -3  36  -2  111.66   12.00
  -3 -36  -2   96.20    3.92
   3  36   2   90.26    9.04
  -4 -36  -2   22.01    2.49
  -4  36  -2   14.86    6.44
  -5 -36  -2   15.94    2.36
  -6 -36  -2    6.39    1.99
  -6  37   2    3.76    5.30
   5 -37  -2    5.01    1.84
  -5  37   2   12.08    6.34
   4 -37  -2   86.70    3.70
   4  37  -2   82.22    9.97
  -4  37   2  110.79   10.62
   3  37  -2   61.66    9.19
  -3  37   2   83.19    9.34
   3 -37  -2   76.09    3.49
   2 -37  -2  137.49    4.42
  -2  37   2  152.29   12.00
   2  37  -2  148.70   12.70
   1  37  -2   15.38    7.05
   1 -37  -2    5.29    1.85
  -1  37   2   18.22    5.99
   0 -37  -2    3.64    1.72
   0  37  -2    5.91    6.07
   0  37   2   -1.21    4.90
  -1 -37  -2    5.57    1.83
   1  37   2    5.44    4.66
  -2 -37  -2    6.30    1.89
  -3 -37  -2   70.23    3.60
  -4 -37  -2   66.36    3.54
  -5 -37  -2   29.15    2.79
   4 -38  -2    5.29    1.98
   3 -38  -2   45.58    2.96
   2 -38  -2  117.75    4.25
   1 -38  -2   15.42    2.21
   0 -38  -2   26.01    2.41
  -1 -38  -2   89.81    3.90
  -2 -38  -2    4.20    1.92
  -3 -38  -2   28.64    2.71
  -4 -38  -2    8.80    2.13
   3 -39  -2   30.06    2.65
   2 -39  -2   33.97    2.69
   1 -39  -2    3.08    1.81
   0 -39  -2    7.12    1.93
  -1 -39  -2   25.89    2.59
  -2 -39  -2   22.33    2.54
 -17   0   3    5.65    3.50
 -16   0   3   -6.03    4.07
 -15   0   3    1.62    3.35
 -14   0   3    1.86    2.89
 -13   0   3   -0.77    2.68
 -12   0   3    1.79    2.34
 -11   0   3    3.17    2.33
 -10   0   3    6.21    2.23
  -9   0   3    8.20    2.49
  -8   0   3    2.91    2.12
  -7   0   3    3.30    1.77
  -6   0   3    2.22    1.58
   6   0  -3    2.73    1.13
   5   0  -3    6.60    1.14
  -5   0   3    9.28    1.85
   5   0  -3    6.19    0.49
   5   0  -3    8.58    0.64
   4   0  -3   10.77    0.77
   4   0  -3   11.40    0.93
   4   0  -3    9.77    1.31
  -4   0   3    9.56    2.11
  -3   0   3    2.13    1.61
   3   0  -3    2.99    0.51
   3   0  -3    1.81    0.73
   3   0  -3    0.35    1.00
   2   0  -3    1.01    0.71
   2   0  -3    4.00    0.80
  -2   0   3   -0.69    1.95
   2   0  -3    2.24    1.21
   1   0  -3   12.39    1.96
   1   0  -3    8.83    0.73
   1   0  -3   15.41    1.32
   1   0  -3   10.56    0.55
   0   0  -3    5.83    0.45
   0   0  -3    7.21    1.14
   1   0   3    5.39    1.09
  -1   0  -3    4.67    1.07
  -1   0  -3    3.52    0.49
   1   0   3    4.14    0.46
   2   0   3    8.25    1.48
   2   0   3   29.58    1.40
  -2   0  -3    8.93    1.47
  -2   0  -3   26.25    1.46
   3   0   3    7.45    0.68
  -3   0  -3    7.41    0.84
  -4   0  -3   22.98    1.61
  -5   0  -3    6.79    1.12
  -5   0  -3    7.17    1.19
  -6   0  -3    4.30    1.17
  -6   0  -3    3.17    1.16
  -7   0  -3   12.83    1.52
  -7   0  -3   10.78    1.50
  -8   0  -3   93.73    3.63
  -8   0  -3   61.09    3.87
  -9   0  -3   22.54    2.22
  -9   0  -3   10.16    2.26
 -10   0  -3    7.32    1.56
 -10   0  -3    4.57    1.69
 -11   0  -3    2.80    1.50
 -11   0  -3    1.17    2.02
 -12   0  -3    3.73    1.68
 -12   0  -3    3.09    2.25
 -13   0  -3    4.06    1.80
 -13   0  -3    4.60    2.67
 -14   0  -3   13.14    2.58
 -14   0  -3   13.21    3.21
 -15   0  -3    8.76    2.63
 -15   0  -3    3.62    3.05
 -17  -1   3   97.19    7.93
 -17   1   3   95.01    7.81
 -16   1   3   72.43    6.54
 -16  -1   3   67.05    6.22
 -15  -1   3  399.02   12.54
 -15   1   3  414.94   13.70
 -14  -1   3  557.60   14.00
 -14   1   3  570.85   14.78
 -13  -1   3    4.15    2.57
 -13   1   3    3.65    2.89
 -12  -1   3    4.79    2.49
 -12   1   3    6.74    2.48
 -11  -1   3  222.13    7.75
 -11   1   3  212.51    7.79
 -10  -1   3   99.22    5.06
 -10   1   3   98.62    5.24
  -9  -1   3  814.27   12.75
  -9   1   3  827.23   14.13
  -8  -1   3 1151.63   14.29
  -8   1   3 1118.15   14.98
  -7  -1   3   62.09    3.49
  -7   1   3   56.25    3.59
   6   1  -3  210.37    4.29
  -6  -1   3  214.37    5.71
  -6   1   3  223.50    6.40
   5   1  -3  132.25    3.24
   5  -1  -3  130.59    3.56
   5   1  -3  140.12    2.01
   5   1  -3  139.00    2.37
  -5  -1   3  111.62    4.08
  -5   1   3  111.09    4.41
   4  -1  -3 2700.35   11.93
   4   1  -3 2699.96   10.34
   4  -1  -3 2758.00    7.36
   4   1  -3 2756.79    9.21
   4   1  -3 2719.92   13.77
   4  -1  -3 2764.63   16.34
  -4  -1   3 2666.45   17.98
  -4   1   3 2677.39   21.02
   3   1  -3   70.84    1.65
   3  -1  -3   69.75    2.95
   3  -1  -3   73.16    2.20
   3   1  -3   74.00    2.50
   3   1  -3   67.20    1.91
  -3  -1   3   66.52    3.46
  -3   1   3   53.04    3.54
  -2  -1   3 2571.78   19.44
   2   1  -3 2643.55   12.49
   2   1  -3 2624.92    9.44
  -2   1   3 2653.27   12.08
   2  -1  -3 2627.68   13.37
   2   1  -3 2736.86   14.95
   2  -1  -3 2747.37   18.39
   1  -1  -3  116.37    3.11
   1   1  -3   95.83    3.64
   1  -1  -3  111.66    4.32
   1   1  -3  102.95    2.75
   1   1  -3  106.05    1.29
   1   1  -3  102.00    2.06
   1  -1  -3   94.03    1.38
  -1   1   3   98.38    2.64
   0   1  -3   28.40    1.25
   0  -1  -3   34.23    1.92
   0   1  -3   32.53    1.80
   0  -1  -3   37.48    3.26
   0   1  -3   32.93    0.81
   0  -1   3   29.85    0.74
   0  -1  -3   32.49    0.91
   0   1   3   29.14    1.71
  -1   1  -3   56.92    2.47
  -1  -1  -3   62.02    1.34
  -1  -1  -3   61.03    2.63
   1   1   3   57.79    1.19
  -1   1  -3   54.30    1.76
   1  -1   3   63.59    1.16
  -1   1  -3   61.32    1.28
   1   1   3   55.00    2.34
  -2  -1  -3 3102.39   18.70
  -2   1  -3 3040.14   10.12
  -2   1  -3 3135.94   12.92
   2  -1   3 3151.62    9.07
  -2  -1  -3 3023.58   10.11
   2   1   3 3024.52    9.15
  -2   1  -3 3070.74   17.52
   3   1   3   14.15    0.88
   3   1   3   12.25    1.54
   3  -1   3   13.72    0.96
  -3  -1  -3   10.69    0.97
  -3   1  -3   11.13    1.25
  -3   1  -3   12.46    1.11
   4  -1   3 1145.79    6.98
  -4   1  -3 1196.67    8.95
  -4  -1  -3 1163.53    8.16
  -4   1  -3 1155.48    8.27
   4   1   3 1138.66   11.62
  -5  -1  -3    8.12    1.17
  -5   1  -3   10.89    1.37
   5   1   3   10.00    1.54
  -5   1  -3    8.02    1.20
  -6   1  -3  200.29    4.04
  -6  -1  -3  204.08    4.29
  -6   1  -3  200.76    4.40
  -7   1  -3  164.24    3.97
  -7  -1  -3  164.87    4.24
  -7   1  -3  156.22    4.18
  -7  -1  -3  159.13    3.77
  -8   1  -3 2398.22   15.04
  -8  -1  -3 2456.64   14.75
  -8  -1  -3 2504.75   17.41
  -8   1  -3 2499.50   17.54
  -9  -1  -3  535.59    7.22
  -9   1  -3  555.09    9.15
  -9   1  -3  561.37    7.76
  -9  -1  -3  556.70    8.97
 -10  -1  -3   85.32    3.34
 -10  -1  -3   83.01    4.14
 -10   1  -3   84.67    4.07
 -10   1  -3   77.44    3.18
 -11   1  -3   55.11    2.96
 -11  -1  -3   57.00    3.63
 -11   1  -3   57.95    3.77
 -11  -1  -3   59.99    3.04
 -12   1  -3  116.06    4.24
 -12  -1  -3  121.77    4.16
 -12  -1  -3  122.12    5.43
 -12   1  -3  110.34    5.25
 -13   1  -3   63.71    4.56
 -13  -1  -3   80.77    3.88
 -13   1  -3   73.73    3.86
 -13  -1  -3   73.71    4.83
 -14  -1  -3  353.16    7.76
 -14   1  -3  348.38    7.84
 -14  -1  -3  370.59   10.39
 -14   1  -3  373.97   10.46
 -15   1  -3  275.86    9.90
 -15  -1  -3  250.97    7.01
 -15  -1  -3  286.91    9.73
 -15   1  -3  247.71    7.13
 -17   2   3  240.11   11.67
 -17  -2   3  235.66   11.00
 -16  -2   3   54.73    5.64
 -16   2   3   47.39    5.50
 -15   2   3  172.69    9.14
 -15  -2   3  187.41    8.69
 -14  -2   3   44.23    4.53
 -14   2   3   42.17    4.97
 -13  -2   3   14.96    3.21
 -13   2   3   -0.13    2.74
 -12   2   3    0.54    2.72
 -12  -2   3    1.83    2.11
 -11  -2   3    7.56    2.32
 -11   2   3   10.69    2.80
 -10  -2   3  933.25   13.94
 -10   2   3  874.31   15.04
  -9   2   3  932.69   14.84
  -9  -2   3  985.11   13.69
  -8  -2   3  547.10    9.57
  -8   2   3  506.00   10.72
  -7  -2   3  256.11    6.49
  -7   2   3  214.89    6.79
   6   2  -3   32.72    1.94
  -6  -2   3   35.96    2.94
   5   2  -3  140.24    3.22
   5   2  -3  150.78    2.15
   5  -2  -3  114.59    1.23
   5   2  -3  148.16    3.02
   5  -2  -3  110.76    2.62
   5  -2  -3  120.52    3.77
  -5  -2   3  143.42    4.38
  -5   2   3  126.50    4.94
   4   2  -3  601.99    4.94
  -4   2   3  644.08    4.64
   4   2  -3  658.30    5.34
   4   2  -3  621.95    6.13
   4  -2  -3  643.59    8.53
   4  -2  -3  694.45    6.63
  -4  -2   3  571.57    7.93
  -4   2   3  648.21   10.70
  -3   2   3 2084.50   19.78
   3  -2  -3 2170.06   12.43
   3   2  -3 2150.18    9.14
   3   2  -3 2169.14   10.28
  -3   2   3 2038.61    9.76
   3   2  -3 2194.19   11.08
   3  -2  -3 2170.78   16.07
  -3  -2   3 2090.79   15.18
   2   2  -3 2859.92   10.77
  -2   2   3 2927.28   13.15
  -2  -2   3 2710.63   18.37
  -2   2   3 2689.78   24.02
   2  -2  -3 2835.94   14.80
   2   2  -3 2773.72   12.59
   2   2  -3 2800.44   13.45
   2  -2  -3 2745.17   19.80
   1   2  -3  332.16    5.92
   1  -2  -3  393.60    8.48
   1   2  -3  353.78    3.86
   1   2  -3  339.09    4.87
   1   2  -3  358.70    2.12
   1  -2  -3  336.28    2.76
   1  -2  -3  384.89    5.74
  -1   2   3  375.74    5.16
   0   2  -3   51.72    2.20
   0  -2  -3   73.60    4.30
   0  -2   3   53.14    0.89
   0  -2  -3   50.49    1.13
   0   2  -3   52.56    0.97
   0   2  -3   49.47    1.74
   0  -2  -3   73.27    2.74
   0   2   3   78.71    2.64
   1   2   3   27.85    1.83
  -1  -2  -3   28.67    1.03
  -1   2  -3   27.45    1.38
  -1   2  -3   28.94    0.93
   1   2   3   22.23    0.84
   1  -2   3   22.81    0.72
  -1   2  -3   28.78    1.79
  -1  -2  -3   34.43    2.17
   2  -2   3  244.54    2.54
  -2   2  -3  236.10    3.78
   2   2   3  253.18    2.86
  -2  -2  -3  266.71    3.16
  -2   2  -3  217.53    4.73
  -2   2  -3  229.85    2.86
  -2  -2  -3  241.85    5.47
   3   2   3  884.58    5.59
  -3   2  -3  906.11    7.65
   3  -2   3  869.68    5.43
  -3  -2  -3  854.21    6.17
   3   2   3  858.71    9.84
  -3   2  -3  892.03    6.56
  -4   2  -3  392.54    5.35
   4  -2   3  373.25    4.03
  -4  -2  -3  412.49    4.89
  -4   2  -3  388.50    4.95
   4   2   3  367.33    6.64
   5   2   3  615.16    8.94
  -5   2  -3  616.34    6.81
  -5  -2  -3  603.36    6.54
  -5   2  -3  591.82    6.74
  -6   2  -3  196.16    4.14
  -6   2  -3  189.95    4.40
   6   2   3  200.36    5.29
  -6  -2  -3  194.77    4.18
  -7   2  -3  399.98    6.13
   7   2   3  399.18    7.80
  -7   2  -3  387.52    6.62
  -7  -2  -3  405.66    6.49
  -8  -2  -3  143.27    4.49
  -8  -2  -3  166.82    4.07
  -8   2  -3  139.00    4.05
  -8   2  -3  131.34    4.55
  -9  -2  -3  115.11    4.37
  -9  -2  -3  116.85    3.57
  -9   2  -3  109.80    4.38
  -9   2  -3  106.61    3.64
 -10   2  -3  261.88    5.76
 -10  -2  -3  283.19    6.98
 -10   2  -3  272.36    7.08
 -10  -2  -3  299.54    5.73
 -11   2  -3  197.93    5.26
 -11  -2  -3  197.91    4.92
 -11  -2  -3  194.07    6.29
 -11   2  -3  198.67    6.53
 -12   2  -3  160.99    5.40
 -12  -2  -3  155.37    4.73
 -12   2  -3  142.67    5.97
 -12  -2  -3  152.56    5.96
 -13  -2  -3  478.10    8.08
 -13  -2  -3  483.72   11.00
 -13   2  -3  473.03    8.82
 -13   2  -3  469.15   11.16
 -14  -2  -3   30.84    3.99
 -14  -2  -3   33.34    2.89
 -14   2  -3   28.17    2.97
 -14   2  -3   32.27    4.03
 -15  -2  -3    4.13    2.12
 -15  -2  -3    5.36    3.04
 -15   2  -3    6.66    3.37
 -17  -3   3    8.40    4.01
 -17   3   3    9.89    4.55
 -16  -3   3    4.15    3.05
 -16   3   3    3.77    3.77
 -15  -3   3   36.46    4.61
 -15   3   3   35.60    4.99
 -14   3   3   63.63    5.72
 -14  -3   3   67.04    5.17
 -13  -3   3  723.05   14.51
 -13   3   3  699.90   16.01
 -12  -3   3  313.79    9.03
 -12   3   3  307.68   10.23
 -11  -3   3    9.45    2.30
 -11   3   3    8.84    2.82
 -10  -3   3   85.73    4.40
 -10   3   3   72.04    4.90
  -9  -3   3  651.35   10.73
  -9   3   3  614.52   12.48
  -8   3   3   18.93    3.02
  -8  -3   3   21.50    2.29
  -7  -3   3 3047.29   20.50
  -7   3   3 3245.79   26.41
  -6  -3   3 2173.55   16.04
   6   3  -3 2154.19   12.04
  -6   3   3 2177.04   20.84
   5  -3  -3 1488.49   10.27
  -5   3   3 1451.44   16.85
  -5  -3   3 1481.61    5.25
   5   3  -3 1544.39    9.48
  -5  -3   3 1547.65   12.98
   5  -3  -3 1410.36   13.16
   5   3  -3 1451.55   10.79
   4  -3  -3  481.27    6.34
  -4   3   3  463.08    4.30
   4   3  -3  483.53    4.95
   4   3  -3  489.04    5.48
  -4  -3   3  491.72    3.37
   4  -3  -3  463.76    7.70
  -4  -3   3  446.16    6.64
  -4   3   3  450.84    9.65
  -3   3   3  753.25   12.87
  -3   3   3  774.03    6.51
   3   3  -3  823.40    6.36
   3   3  -3  842.79    6.00
  -3  -3   3  824.18    4.87
   3  -3  -3  811.64   10.45
  -3  -3   3  851.10    8.96
   3  -3  -3  788.56    8.25
  -2  -3   3 2423.36   15.80
  -2   3   3 2512.62   24.62
   2  -3  -3 2543.21   15.29
   2   3  -3 2458.10   10.94
   2   3  -3 2576.77   10.82
  -2  -3   3 2490.08    9.06
   2  -3  -3 2546.75   20.50
   1  -3  -3  570.09   10.79
   1   3  -3  663.08    6.02
   1   3  -3  591.57    2.45
  -1   3   3  549.64    6.47
   1  -3  -3  563.70    7.47
  -1  -3   3  583.92    4.66
   1   3  -3  649.40    6.88
   0  -3  -3  498.41   11.18
   0  -3   3  483.24    2.44
   0   3  -3  493.90    2.70
   0   3   3  492.00    6.62
   0   3  -3  495.01    5.09
   0  -3  -3  517.35    7.45
   0  -3  -3  478.33    3.53
  -1  -3  -3  148.53    2.16
  -1   3  -3  154.95    3.82
  -1   3  -3  124.79    2.75
   1   3   3  135.40    1.92
   1  -3   3  140.43    1.59
  -1   3  -3  134.11    1.85
   1   3   3  136.93    3.74
  -1  -3  -3  138.97    4.18
  -2   3  -3   27.38    1.98
  -2   3  -3   22.83    1.52
   2   3   3   19.65    0.95
  -2  -3  -3   29.32    1.21
  -2   3  -3   25.47    1.13
  -2  -3  -3   38.14    2.50
   2   3   3   21.80    1.87
   2  -3   3   20.98    0.84
   3  -3   3  102.13    1.92
   3   3   3  110.86    2.11
  -3   3  -3  102.47    2.36
  -3   3  -3   98.96    2.78
  -3  -3  -3  111.38    2.39
   3   3   3   99.40    3.60
   4   3   3 1359.50   13.16
  -4   3  -3 1366.61   10.05
  -4  -3  -3 1327.49    8.56
   4  -3   3 1357.40    7.64
  -4   3  -3 1307.46    9.10
  -5   3  -3   13.85    1.43
  -5  -3  -3   15.45    1.39
   5   3   3   17.41    1.91
  -5   3  -3   10.45    1.28
  -6   3  -3 1082.64    9.70
  -6   3  -3 1084.35   10.23
   6   3   3 1041.74   12.20
  -6  -3  -3 1112.07    9.61
  -7   3  -3  392.74    6.05
   7   3   3  394.59    7.90
  -7   3  -3  406.62    7.03
  -7  -3  -3  444.07    6.72
   8   3   3  128.68    4.76
  -8   3  -3  111.05    3.49
  -8  -3  -3  120.19    3.98
  -8   3  -3  114.11    4.21
  -9  -3  -3   30.75    2.47
  -9   3  -3   29.15    2.18
  -9  -3  -3   36.38    2.14
  -9   3  -3   31.69    2.65
 -10  -3  -3  798.19    9.12
 -10   3  -3  764.47    9.83
 -10   3  -3  769.36   11.75
 -10  -3  -3  774.53   11.06
 -11  -3  -3  140.97    4.15
 -11   3  -3  132.27    4.58
 -11  -3  -3  138.53    5.31
 -11   3  -3  139.53    5.66
 -12  -3  -3  274.86    7.68
 -12  -3  -3  266.57    5.92
 -12   3  -3  261.31    7.94
 -12   3  -3  256.85    6.43
 -13   3  -3  110.14    4.70
 -13  -3  -3  105.58    4.16
 -13  -3  -3  117.54    5.90
 -13   3  -3  104.88    5.85
 -14  -3  -3    9.44    1.87
 -14   3  -3   11.97    3.16
 -14   3  -3   10.09    2.29
 -14  -3  -3    6.90    2.67
 -15  -3  -3   20.19    2.62
 -15  -3  -3   27.85    3.79
 -15   3  -3   21.61    3.73
 -17  -4   3   -0.47    3.63
 -17   4   3   -0.15    3.88
 -16  -4   3   53.50    5.31
 -16   4   3   51.18    6.23
 -15  -4   3    3.72    2.92
 -15   4   3    6.72    4.03
 -14  -4   3   26.03    3.73
 -14   4   3   32.72    4.61
 -13  -4   3   20.19    3.32
 -13   4   3   21.35    3.99
 -12  -4   3    3.65    2.25
 -12   4   3    4.86    2.78
 -11  -4   3   88.01    4.92
 -11   4   3   80.69    5.57
 -10  -4   3  136.39    5.47
 -10   4   3  126.28    6.61
  -9   4   3   16.92    2.93
  -9  -4   3   23.13    2.49
  -8  -4   3   82.72    3.73
  -8   4   3   89.57    4.97
  -7  -4   3  189.94    5.29
  -7   4   3  169.21    6.34
  -7  -4   3  150.18    1.50
   7   4  -3  126.61    2.39
   6   4  -3  124.20    3.31
  -6  -4   3  140.82    1.77
   6   4  -3  137.33    3.02
   6  -4  -3  101.57    1.71
  -6  -4   3  135.56    4.14
  -6   4   3   93.89    1.37
  -6   4   3  128.32    5.57
   5   4  -3 2089.47   14.35
  -5   4   3 1952.06    8.83
   5  -4  -3 2147.46   13.83
  -5  -4   3 2159.41    7.43
   5   4  -3 2134.12   10.47
  -5  -4   3 2102.78   14.14
  -5   4   3 1993.27   21.30
  -4   4   3   14.58    2.64
  -4  -4   3   15.97    0.80
   4   4  -3   20.15    1.09
   4  -4  -3   20.90    1.72
   4   4  -3   23.06    1.56
  -4  -4   3   17.12    1.50
   4  -4  -3   17.74    2.02
  -4   4   3   14.46    1.10
  -3   4   3   27.41    3.22
  -3  -4   3   28.68    1.09
   3  -4  -3   31.66    2.67
   3   4  -3   33.82    1.69
   3   4  -3   30.55    1.10
   3  -4  -3   30.99    1.94
  -3   4   3   29.68    1.56
  -3  -4   3   28.78    1.72
   2  -4  -3   73.83    2.93
  -2   4   3   76.26    5.18
  -2  -4   3   71.87    1.71
   2   4  -3   75.56    2.25
   2   4  -3   75.36    1.48
  -2   4   3   74.28    2.51
   2  -4  -3   75.17    3.99
   1   4  -3  227.67    3.65
   1  -4  -3  215.88    7.16
   1   4  -3  210.86    1.29
   1  -4  -3  216.16    5.02
  -1  -4   3  223.20    3.13
  -1   4   3  220.08    4.42
   1   4  -3  252.49    3.50
   0   4   3  211.40    4.54
   0  -4  -3  244.85    2.66
   0  -4  -3  224.07    8.08
   0  -4   3  232.82    1.52
   0  -4   3  222.84    3.25
   0  -4  -3  219.71    5.29
   0   4  -3  236.64    1.85
   0   4  -3  237.01    3.86
   1   4   3 2805.00   17.39
   1  -4   3 2749.93   11.54
  -1  -4  -3 2804.02    9.40
   1  -4   3 2849.60    6.81
  -1   4  -3 2785.67    8.38
  -1   4  -3 2805.30   13.33
  -1  -4  -3 2733.10   18.60
   1   4   3 2671.98    8.79
   2   4   3 1705.03    7.41
  -2   4  -3 1770.43   11.03
   2  -4   3 1799.36    6.70
  -2  -4  -3 1794.55    8.21
  -2   4  -3 1746.88    8.28
  -2  -4  -3 1689.19   15.44
   3   4   3   16.87    1.95
  -3   4  -3   11.66    1.33
   3  -4   3   14.75    0.90
  -3   4  -3   14.24    1.15
  -3  -4  -3   15.26    1.14
  -4   4  -3   31.60    1.86
   4  -4   3   31.94    1.38
  -4  -4  -3   42.21    1.96
   4   4   3   29.15    2.34
  -4   4  -3   32.47    1.71
   5   4   3  412.24    7.64
  -5   4  -3  377.52    5.74
  -5  -4  -3  410.44    5.30
  -5   4  -3  399.10    5.75
  -6   4  -3   38.60    2.28
   6   4   3   41.42    2.77
  -6  -4  -3   55.69    2.61
  -6   4  -3   42.13    2.37
  -7   4  -3   86.02    3.15
  -7   4  -3   93.12    3.59
  -7  -4  -3   94.70    3.30
   7   4   3   93.65    3.98
  -8   4  -3    2.38    1.23
  -8  -4  -3    6.87    1.72
   8   4   3    5.07    1.59
  -8   4  -3    4.49    1.64
  -9   4  -3    8.35    1.80
   9   4   3    8.02    1.99
  -9  -4  -3    9.19    1.77
  -9   4  -3    7.65    1.57
 -10   4  -3    7.21    2.17
 -10   4  -3   11.86    2.10
 -11  -4  -3   84.60    4.20
 -11  -4  -3   86.24    3.33
 -11   4  -3   77.70    3.57
 -11   4  -3   75.77    4.41
 -12   4  -3   43.68    3.91
 -12  -4  -3   51.08    2.87
 -12   4  -3   38.72    3.04
 -12  -4  -3   41.84    3.49
 -13  -4  -3   16.01    2.21
 -13   4  -3   13.98    2.30
 -13  -4  -3   13.31    2.78
 -13   4  -3   13.27    2.96
 -14   4  -3    1.21    2.59
 -14  -4  -3    3.01    1.72
 -14   4  -3    0.47    1.91
 -14  -4  -3    4.03    2.67
 -15  -4  -3   31.90    2.93
 -15  -4  -3   27.84    3.99
 -15   4  -3   29.70    4.25
 -17  -5   3  186.14    9.61
 -17   5   3  178.46   10.73
 -16  -5   3   11.79    3.37
 -16   5   3    8.50    4.00
 -15  -5   3   49.05    4.91
 -15   5   3   48.73    5.89
 -14  -5   3    7.91    2.79
 -14   5   3    3.29    3.23
 -13  -5   3  615.94   12.99
 -13   5   3  574.69   15.48
 -12  -5   3  217.13    7.41
 -12   5   3  208.60    9.15
 -11  -5   3  387.06    9.10
 -11   5   3  400.61   11.82
 -10  -5   3  468.42    9.15
 -10   5   3  487.32   12.27
  -9  -5   3   83.87    3.91
  -9   5   3   76.75    5.17
  -8  -5   3   77.73    1.40
   8   5  -3   77.40    1.83
  -8  -5   3   83.80    3.65
  -8   5   3   85.82    5.09
  -7  -5   3 1453.62    6.40
   7   5  -3 1404.48    9.94
  -7  -5   3 1400.43   12.83
  -7   5   3 1369.11   18.68
  -6   5   3 1650.86   19.85
   6   5  -3 1663.39   13.42
  -6  -5   3 1695.00    7.38
   6   5  -3 1593.74    9.47
  -6  -5   3 1610.97   12.81
   6  -5  -3 1639.52    8.91
   5  -5  -3   12.20    1.39
  -5  -5   3    9.94    0.75
  -5   5   3   10.39    0.95
  -5  -5   3    8.81    1.21
   5   5  -3    9.29    0.91
   5   5  -3   11.50    1.75
  -5   5   3    9.44    2.40
   4  -5  -3  187.92    4.81
  -4  -5   3  173.35    2.65
  -4   5   3  188.64    3.55
   4   5  -3  170.16    2.44
   4   5  -3  170.27    4.20
  -4  -5   3  173.12    3.64
   4  -5  -3  161.37    5.24
  -4   5   3  176.37    6.74
  -3   5   3  771.03   14.49
  -3  -5   3  833.01    5.90
  -3   5   3  799.60    7.90
   3   5  -3  846.07    4.49
   3  -5  -3  811.78    9.92
   3   5  -3  828.08    8.24
  -3  -5   3  824.72    6.93
   3  -5  -3  787.69   11.63
  -2  -5   3 1018.29    6.60
  -2   5   3  978.20   16.91
  -2   5   3 1042.18    9.55
   2   5  -3 1026.62    8.32
   2  -5  -3 1080.57   11.38
   2  -5  -3  997.28   14.18
   1  -5  -3  198.56    5.20
   1  -5  -3  207.88    7.35
  -1   5   3  183.19    7.78
   1   5  -3  208.40    3.74
  -1   5   3  199.95    4.50
  -1  -5   3  201.90    3.12
   0  -5  -3 4887.25   25.58
   0  -5  -3 4863.26   37.50
   0  -5  -3 4771.99   12.16
   0  -5   3 4757.30   15.21
   0   5   3 4751.53   22.47
   0   5  -3 4826.36   18.18
   0   5  -3 4718.20    8.59
  -1  -5  -3   34.91    1.20
  -1  -5  -3   39.17    2.71
   1  -5   3   30.02    1.41
   1  -5   3   34.82    0.80
  -1   5  -3   27.83    0.99
   1   5   3   28.49    1.02
  -1   5  -3   35.03    1.77
   1   5   3   40.25    2.45
   2   5   3  129.98    2.11
   2   5   3  133.24    4.16
  -2  -5  -3  136.70    2.39
  -2   5  -3  134.83    3.38
  -2   5  -3  127.89    2.35
   2  -5   3  135.22    1.90
  -3   5  -3 2115.46   10.68
  -3  -5  -3 2198.85   10.21
   3   5   3 2217.75   17.12
   3  -5   3 2235.62    8.96
   4  -5   3 2431.16   10.51
  -4   5  -3 2478.95   14.67
  -4  -5  -3 2391.16   11.69
   4   5   3 2420.15   18.41
  -4   5  -3 2433.19   13.17
  -5   5  -3   53.25    2.45
  -5  -5  -3   63.24    2.35
  -5   5  -3   55.10    2.41
   5   5   3   64.70    3.28
  -6  -5  -3 1203.49    9.86
  -6   5  -3 1217.96   11.15
  -6   5  -3 1220.83   11.43
   6   5   3 1185.22   13.49
  -7   5  -3  217.98    5.23
   7   5   3  211.10    5.80
  -7  -5  -3  211.36    4.70
  -7   5  -3  196.81    5.07
  -8  -5  -3   21.33    2.12
  -8   5  -3   16.34    1.81
  -8   5  -3   16.74    2.10
   8   5   3   11.65    1.97
   9   5   3    5.48    1.88
  -9   5  -3    5.42    1.48
  -9  -5  -3    7.23    1.77
  -9   5  -3    3.82    1.66
 -10   5  -3  587.82    9.15
 -10  -5  -3  597.07    9.60
 -10   5  -3  571.82   10.52
  10   5   3  590.49   10.74
 -11  -5  -3  145.19    4.24
 -11  -5  -3  147.76    5.39
 -11   5  -3  125.63    4.53
 -11   5  -3  130.10    5.56
 -12  -5  -3   50.20    2.87
 -12  -5  -3   53.45    3.82
 -12   5  -3   46.18    3.21
 -12   5  -3   50.04    4.11
 -13   5  -3   67.29    4.88
 -13  -5  -3   64.93    3.30
 -13   5  -3   66.22    3.90
 -13  -5  -3   67.68    4.43
 -14  -5  -3   35.02    2.82
 -14   5  -3   30.51    3.04
 -14  -5  -3   34.69    3.88
 -14   5  -3   30.52    4.04
 -15  -5  -3    0.78    1.74
 -15  -5  -3    0.51    2.63
 -15   5  -3   -1.61    2.97
 -17  -6   3   66.88    6.28
 -17   6   3   58.62    7.03
 -16  -6   3   28.45    4.33
 -16   6   3   34.97    5.62
 -15  -6   3   54.00    4.89
 -15   6   3   53.95    6.07
 -14  -6   3  241.04    8.75
 -14   6   3  241.90   11.01
 -13  -6   3   52.59    4.27
 -13   6   3   52.34    5.34
 -12  -6   3  123.47    5.42
 -12   6   3  124.03    7.42
 -11  -6   3  226.94    6.84
 -11   6   3  220.47    9.08
 -10  -6   3    6.64    0.48
 -10  -6   3   12.70    2.17
  10   6  -3    4.99    0.49
 -10   6   3   10.43    2.83
  -9  -6   3  206.32    2.61
  -9  -6   3  202.94    5.61
  -9   6   3  209.45    8.16
   9   6  -3  166.75    2.77
   8   6  -3 1582.97   10.35
  -8  -6   3 1640.22    7.90
  -8   6   3 1583.19   20.87
  -8  -6   3 1631.20   14.42
   7  -6  -3 1517.23    6.47
  -7  -6   3 1692.74    8.26
   7   6  -3 1765.71   13.01
  -7  -6   3 1655.14   13.42
  -7   6   3 1595.34   20.64
  -6   6   3   43.82    1.72
   6   6  -3   38.35    2.50
  -6  -6   3   44.98    1.51
   6   6  -3   41.80    1.59
  -6  -6   3   37.61    2.05
   6  -6  -3   41.55    1.85
  -6   6   3   43.27    4.06
   5   6  -3  441.50    8.13
  -5  -6   3  457.52    4.62
   5  -6  -3  470.09    7.69
  -5  -6   3  450.77    5.92
  -5   6   3  464.17    5.82
   5   6  -3  452.27    4.29
  -5   6   3  463.27   11.27
  -4   6   3   11.39    2.62
   4  -6  -3   13.60    1.84
  -4   6   3   14.58    1.36
  -4  -6   3   10.78    0.90
   4   6  -3   11.00    0.72
  -4  -6   3   10.38    1.08
   4   6  -3    8.69    1.46
  -3   6   3 1192.57   18.36
  -3   6   3 1251.01   10.75
  -3  -6   3 1285.18    7.95
   3  -6  -3 1324.34   13.37
   3   6  -3 1268.58   11.16
  -3  -6   3 1183.69    7.80
   3   6  -3 1230.55    4.70
   3  -6  -3 1189.17   15.11
  -2   6   3 1534.06   21.92
  -2   6   3 1608.93   13.06
   2   6  -3 1582.50   11.70
   2  -6  -3 1662.09   15.12
   2  -6  -3 1578.12   18.38
   1  -6  -3 3544.47   30.28
  -1  -6   3 3591.03   13.86
  -1   6   3 3619.50   19.93
   1   6  -3 3646.82   16.98
   1  -6  -3 3638.51   22.46
   0  -6  -3   87.38    5.94
   0  -6   3   76.36    0.77
   0  -6   3   78.41    2.19
   0  -6  -3   74.75    1.70
   0   6  -3   74.51    2.57
   0   6  -3   58.66    1.07
   0  -6  -3   93.79    3.94
  -1  -6  -3   86.53    3.95
   1  -6   3   75.18    2.26
  -1   6  -3   80.33    2.69
   1   6   3   76.95    3.33
  -1   6  -3   84.91    1.71
   1   6   3   75.93    1.62
  -1  -6  -3   85.38    1.85
   1  -6   3   83.43    1.19
   2   6   3   32.33    2.44
  -2  -6  -3   30.91    1.31
  -2   6  -3   29.37    1.35
  -2   6  -3   28.42    1.81
   2  -6   3   30.96    1.02
  -3  -6  -3   43.28    1.58
   3   6   3   60.45    3.22
   3  -6   3   46.01    1.39
  -3   6  -3   47.06    2.26
  -3   6  -3   41.69    1.78
   4   6   3  910.98   11.72
  -4   6  -3  864.98    8.99
   4  -6   3  847.52    6.31
  -4   6  -3  831.50    8.03
  -4  -6  -3  842.13    6.99
   5   6   3 1212.61   13.63
  -5   6  -3 1185.07   10.85
  -5  -6  -3 1180.10    9.08
  -5   6  -3 1173.82   10.37
  -6   6  -3  506.93    7.45
  -6  -6  -3  534.92    6.61
  -6   6  -3  534.43    7.74
   6   6   3  501.48    8.95
  -7   6  -3   36.14    2.55
  -7  -6  -3   47.80    2.65
  -7   6  -3   32.43    2.25
   7   6   3   34.84    2.73
   8   6   3  110.62    4.59
  -8   6  -3  117.12    3.97
  -8  -6  -3  131.94    4.27
  -8   6  -3  121.56    4.49
  -9   6  -3    4.07    1.63
  -9   6  -3    5.51    1.55
   9   6   3    3.03    1.58
 -10   6  -3   26.16    2.42
 -10  -6  -3   32.06    2.96
  10   6   3   30.34    2.84
 -10   6  -3   26.38    2.88
 -11   6  -3  448.11    8.54
 -11  -6  -3  465.65    9.17
 -11   6  -3  462.97   10.28
 -12   6  -3  187.06    5.97
 -12  -6  -3  186.55    6.35
 -12  -6  -3  200.01    5.13
 -12   6  -3  187.28    7.12
 -13   6  -3   54.71    3.80
 -13   6  -3   50.69    4.40
 -13  -6  -3   57.20    4.23
 -13  -6  -3   58.78    3.10
 -14  -6  -3    5.56    1.94
 -14  -6  -3    4.82    2.75
 -14   6  -3    2.65    2.20
 -14   6  -3    2.44    2.67
 -15  -6  -3   23.02    2.64
 -15   6  -3   26.59    4.11
 -15  -6  -3   31.84    3.91
 -17  -7   3  219.33   10.04
 -17   7   3  189.40   11.34
 -16  -7   3    3.12    2.97
 -16   7   3    5.76    4.64
 -15  -7   3  233.81    9.11
 -15   7   3  225.75   11.13
 -14  -7   3  130.83    6.51
 -14   7   3  148.90    8.79
 -13  -7   3    4.41    2.35
 -13   7   3   -0.17    3.08
 -12  -7   3    1.42    1.99
 -12   7   3    2.63    2.88
 -11  -7   3  486.77    9.59
 -11   7   3  473.39   13.33
  10   7  -3  267.74    3.77
 -10  -7   3  297.45    3.71
 -10  -7   3  320.62    7.32
 -10   7   3  330.74   10.75
  -9  -7   3  166.04    3.03
   9   7  -3  175.86    3.60
  -9  -7   3  173.27    5.10
  -9   7   3  177.42    7.78
  -8  -7   3  968.96    7.29
  -8  -7   3  904.93   10.44
  -8   7   3  930.80   16.41
   8   7  -3  934.44    9.22
   7   7  -3  370.96    6.77
  -7  -7   3  379.63    4.63
  -7  -7   3  328.39    5.83
  -7   7   3  364.66   10.39
   7  -7  -3  352.31    3.96
  -7   7   3  394.45    5.29
  -6   7   3   29.18    3.78
   6   7  -3   25.77    1.27
  -6  -7   3   32.63    1.46
   6   7  -3   22.50    2.45
   6  -7  -3   34.28    1.97
  -6  -7   3   24.30    1.66
  -6   7   3   32.16    1.82
   5   7  -3 1710.47   17.00
   5  -7  -3 1805.10   16.04
  -5   7   3 1797.86   12.92
  -5  -7   3 1798.23   11.04
   5   7  -3 1824.90    8.02
  -5  -7   3 1815.54   10.03
  -5   7   3 1726.11   22.37
   4   7  -3  845.30    4.48
  -4   7   3  827.16    9.19
   4  -7  -3  881.56   11.88
  -4  -7   3  814.89    6.85
  -4  -7   3  814.43    6.70
   4   7  -3  817.46   10.85
  -4   7   3  766.13   15.29
  -3   7   3  144.60    7.14
  -3   7   3  155.07    4.29
   3   7  -3  146.13    1.42
   3  -7  -3  172.96    5.36
  -3  -7   3  151.81    3.08
   3   7  -3  164.40    4.57
   3  -7  -3  148.61    5.92
  -2   7   3 1433.09   22.41
  -2  -7   3 1469.43    9.43
   2  -7  -3 1502.59   15.34
   2   7  -3 1459.47   12.49
  -2   7   3 1543.74   13.58
   2  -7  -3 1397.46   18.21
   1  -7  -3   75.91    5.18
  -1   7   3   82.28    6.07
  -1   7   3   82.55    3.42
  -1  -7   3   60.43    2.12
   1   7  -3   61.29    2.67
   1  -7  -3   91.71    4.02
   0   7   3  785.87   10.30
   0  -7  -3  739.89   15.53
   0  -7   3  711.68    6.68
   0   7  -3  737.65    8.20
   0  -7  -3  697.79    5.13
   0  -7  -3  750.88   11.03
   1  -7   3 2114.88    5.98
  -1   7  -3 2129.76   14.19
  -1  -7  -3 2043.37    8.92
   1   7   3 2069.20   17.01
  -1   7  -3 2077.11    8.64
  -2  -7  -3 5756.51   15.76
  -2   7  -3 4976.84   21.67
   2  -7   3 5928.57   12.93
  -2   7  -3 5637.87   16.85
   2   7   3 4999.29   27.00
  -3   7  -3  858.13    9.25
  -3  -7  -3  870.91    6.66
   3   7   3  889.59   11.66
   3  -7   3  822.39    5.65
  -3   7  -3  861.47    7.53
   4   7   3  985.00   12.44
  -4  -7  -3  982.86    7.61
  -4   7  -3  993.34   10.14
   4  -7   3  976.44    7.03
  -4   7  -3  968.15    8.91
   5   7   3  241.40    6.38
  -5  -7  -3  220.45    4.05
  -5   7  -3  215.54    4.92
  -5   7  -3  210.40    4.65
  -6   7  -3  311.09    6.15
  -6   7  -3  319.23    6.19
   6   7   3  327.66    7.54
  -6  -7  -3  321.70    5.25
  -7  -7  -3   85.47    3.04
  -7   7  -3   78.46    3.33
  -7   7  -3   83.34    3.57
   7   7   3   84.77    4.01
   8   7   3  755.13   11.75
  -8   7  -3  727.42   10.84
  -8   7  -3  734.63    9.93
  -8  -7  -3  778.05    9.39
  -9   7  -3  416.70    7.87
  -9  -7  -3  429.07    7.56
   9   7   3  454.39    9.32
  -9   7  -3  422.74    8.83
 -10   7  -3    3.97    1.66
 -10  -7  -3    6.02    1.80
 -10   7  -3    4.07    1.86
  10   7   3    0.51    1.62
 -11   7  -3    7.56    1.99
 -11  -7  -3    8.29    2.17
 -11   7  -3    7.54    2.34
  11   7   3    7.11    2.00
 -12   7  -3    3.94    1.98
 -12  -7  -3    6.34    1.69
 -12   7  -3    4.75    2.51
 -12  -7  -3    3.37    1.99
 -13  -7  -3   76.60    3.44
 -13   7  -3   66.08    4.03
 -13  -7  -3   69.42    4.55
 -13   7  -3   74.83    5.24
 -14  -7  -3   58.29    3.27
 -14   7  -3   60.82    4.18
 -14  -7  -3   60.61    4.40
 -14   7  -3   64.12    5.21
 -15  -7  -3    5.49    1.92
 -15   7  -3    4.59    3.26
 -15  -7  -3    5.68    3.06
 -17  -8   3    0.59    3.20
 -16  -8   3  120.89    6.99
 -16   8   3  126.91    9.13
 -15  -8   3    4.36    2.90
 -15   8   3   -5.52    4.23
 -14  -8   3   89.62    5.47
 -14   8   3   86.46    7.24
 -13  -8   3   52.35    3.99
 -13   8   3   49.56    5.52
 -12  -8   3  155.53    6.01
 -12   8   3  159.41    8.26
 -11  -8   3   96.22    4.40
 -11   8   3   87.82    6.28
 -10  -8   3   47.32    1.97
 -10  -8   3   54.53    3.24
  10   8  -3   54.05    2.11
 -10   8   3   60.13    5.26
   9   8  -3  210.69    4.51
  -9  -8   3  186.90    3.77
  -9  -8   3  180.58    5.10
  -9   8   3  196.28    8.31
   8  -8  -3  103.19    2.00
   8   8  -3  126.83    3.96
  -8  -8   3  116.31    3.02
  -8  -8   3  119.42    3.92
  -8   8   3  105.57    3.01
  -8   8   3  113.12    6.33
   7   8  -3  334.24    7.17
  -7  -8   3  318.22    4.85
   7  -8  -3  309.02    4.45
  -7  -8   3  305.45    5.48
  -7   8   3  315.55    5.39
  -7   8   3  289.45    9.79
   6   8  -3  522.87    4.73
  -6  -8   3  524.91    6.09
  -6  -8   3  526.40    6.46
   6  -8  -3  515.98    7.52
  -6   8   3  531.21    7.34
   6   8  -3  487.71    9.56
  -6   8   3  508.70   12.59
   5  -8  -3  796.56   11.44
   5   8  -3  740.68   12.04
  -5  -8   3  794.90    7.37
   5   8  -3  796.09    5.08
  -5  -8   3  772.87    6.94
  -5   8   3  755.22    9.14
  -5   8   3  752.93   15.44
  -4   8   3  227.22    8.82
   4  -8  -3  245.68    6.85
  -4  -8   3  229.56    4.07
   4   8  -3  239.98    2.30
  -4  -8   3  228.43    3.32
   4   8  -3  219.97    6.15
  -4   8   3  234.10    5.39
  -3   8   3   98.22    6.23
  -3   8   3  107.96    3.92
   3   8  -3  103.58    1.05
   3  -8  -3  113.52    4.72
  -3  -8   3  101.16    2.74
   3   8  -3  111.52    4.14
  -2   8   3    8.03    1.60
  -2   8   3    8.67    3.63
  -2  -8   3    5.85    0.94
   2  -8  -3    9.14    1.92
   2   8  -3    7.10    1.50
   1  -8  -3  104.05    5.89
  -1   8   3  103.86    7.01
  -1   8   3  116.31    4.32
   1   8  -3  108.93    3.73
  -1  -8   3  105.92    2.81
   1  -8  -3  116.08    4.88
   0  -8  -3 1002.33   18.88
   0  -8   3 1163.25    9.51
   0   8  -3 1064.67   10.60
   0   8   3 1111.21   13.00
   0  -8  -3 1017.14    6.38
   0  -8  -3 1040.07   13.90
   1  -8   3  241.75    2.14
  -1  -8  -3  234.20    3.19
   1   8   3  233.21    6.23
  -1   8  -3  229.65    5.22
  -1   8  -3  258.06    3.54
  -2  -8  -3 1524.56    8.36
   2   8   3 1628.32   16.13
   2  -8   3 1537.46    6.82
  -2   8  -3 1599.73   12.85
  -2   8  -3 1499.93    9.37
  -3   8  -3 2949.25   17.67
  -3  -8  -3 2855.39   12.11
   3  -8   3 2950.47   11.01
  -3   8  -3 2929.27   14.50
   3   8   3 2928.29   21.84
  -4  -8  -3  417.23    5.01
  -4   8  -3  401.28    6.84
   4  -8   3  375.37    4.44
   4   8   3  384.19    8.27
  -4   8  -3  414.71    6.21
   5   8   3  626.56   10.36
  -5   8  -3  636.71    8.79
  -5  -8  -3  651.51    6.84
  -5   8  -3  643.50    8.37
   6   8   3   21.58    2.38
  -6  -8  -3   23.22    1.76
  -6   8  -3   23.21    1.98
  -6   8  -3   25.65    2.21
  -7   8  -3  237.67    5.76
   7   8   3  256.72    7.03
  -7  -8  -3  251.81    5.04
  -7   8  -3  249.09    6.11
  -8   8  -3    9.16    2.02
  -8   8  -3    9.15    1.80
  -8  -8  -3    9.73    1.63
   8   8   3   10.95    1.99
   9   8   3  255.82    7.29
  -9   8  -3  240.83    6.24
  -9  -8  -3  267.64    6.02
  -9   8  -3  240.65    6.83
 -10   8  -3   59.29    3.93
 -10   8  -3   57.09    3.43
 -10  -8  -3   60.29    3.40
  10   8   3   50.16    3.44
  11   8   3   58.54    3.99
 -11   8  -3   44.98    3.26
 -11  -8  -3   47.03    3.23
 -11   8  -3   43.41    3.82
  12   8   3   53.78    3.97
 -12   8  -3   43.81    4.13
 -12   8  -3   46.68    3.56
 -12  -8  -3   50.58    3.66
 -13  -8  -3   65.18    3.26
 -13  -8  -3   57.40    4.08
 -13   8  -3   67.66    5.21
 -13   8  -3   58.20    4.21
 -14  -8  -3   18.59    2.40
 -14   8  -3   11.64    2.72
 -14  -8  -3   17.61    3.25
 -14   8  -3   15.16    3.64
 -15  -8  -3   12.53    2.47
 -15  -8  -3    3.05    2.78
 -15   8  -3    8.22    3.42
 -17  -9   3   48.94    5.38
 -16  -9   3   11.30    3.44
 -16   9   3   20.08    5.37
 -15   9   3   73.78    7.07
 -15  -9   3   70.70    5.26
 -14  -9   3  130.77    6.21
 -14   9   3  122.47    8.25
 -13  -9   3   15.31    2.80
 -13   9   3   18.82    4.21
 -12  -9   3    9.85    2.30
 -12   9   3    2.25    2.94
 -11  -9   3  401.24    8.49
 -11   9   3  405.42   12.84
  10   9  -3   71.65    2.75
 -10  -9   3   75.49    3.71
 -10   9   3   80.31    5.80
   9   9  -3  757.60    9.46
  -9  -9   3  686.80    8.20
  -9   9   3  696.38    8.06
  -9  -9   3  728.68    9.86
  -9   9   3  689.53   15.78
   8  -9  -3  678.96    5.84
  -8  -9   3  659.98    7.97
  -8  -9   3  678.56    8.74
   8   9  -3  689.61    9.94
  -8   9   3  740.75    8.86
  -8   9   3  679.98   15.20
   7   9  -3   67.24    3.68
  -7  -9   3   61.32    2.50
   7  -9  -3   66.76    2.44
  -7  -9   3   55.26    2.42
  -7   9   3   70.75    3.02
  -7   9   3   63.41    5.16
  -6   9   3   13.87    3.41
   6   9  -3   16.98    2.54
   6   9  -3   14.78    0.94
  -6  -9   3   12.23    1.36
  -6  -9   3   14.47    1.30
  -6   9   3   12.53    1.66
   6  -9  -3   11.27    1.67
   5   9  -3 1588.41   18.64
   5   9  -3 1691.60    7.09
  -5  -9   3 1644.69   11.58
  -5  -9   3 1674.05    9.84
  -5   9   3 1608.58   14.65
  -5   9   3 1618.38   23.31
   5  -9  -3 1679.52   17.51
  -4   9   3 1248.67   21.12
  -4   9   3 1292.48   13.39
   4  -9  -3 1321.59   16.28
   4   9  -3 1286.92    4.92
  -4  -9   3 1225.79    9.84
  -4  -9   3 1237.55    7.24
   4   9  -3 1225.27   15.52
  -3   9   3  165.72    8.11
   3   9  -3  154.49    1.23
  -3  -9   3  147.93    3.47
   3  -9  -3  174.88    6.16
   3   9  -3  159.89    5.34
  -3   9   3  171.39    5.14
  -2   9   3  332.74    7.27
  -2   9   3  308.09   11.38
   2  -9  -3  321.28    8.13
  -2  -9   3  285.81    4.81
   2   9  -3  285.87    6.65
  -1   9   3  756.08   11.08
  -1   9   3  695.30   16.99
  -1  -9   3  720.79    7.60
   1  -9  -3  747.08   12.34
   1   9  -3  788.19   10.48
   0   9  -3  293.16    3.87
   0   9   3  297.80    7.21
   0  -9  -3  311.19    3.63
   0  -9   3  246.98    1.46
   0   9  -3  302.52    6.34
   1   9   3 1226.55   14.40
  -1  -9  -3 1136.19    7.08
   1  -9   3 1219.87    5.05
  -1   9  -3 1219.19   12.02
  -1   9  -3 1246.64    8.63
  -2  -9  -3 1930.17    9.65
   2   9   3 1935.06   18.67
  -2   9  -3 1929.61   15.04
  -2   9  -3 1942.22   11.91
   2  -9   3 1999.20    8.16
  -3  -9  -3  597.46    5.74
  -3   9  -3  600.45    8.59
   3  -9   3  580.78    5.12
   3   9   3  608.02   10.51
  -3   9  -3  548.94    6.97
  -4   9  -3   42.95    2.56
  -4  -9  -3   43.24    1.84
  -4   9  -3   39.69    2.22
   4  -9   3   36.74    1.56
   4   9   3   43.05    3.11
  -5  -9  -3  231.32    4.15
  -5   9  -3  232.04    5.75
  -5   9  -3  220.11    5.16
   5   9   3  259.55    6.98
  -6   9  -3    6.16    1.49
  -6  -9  -3    6.93    1.18
  -6   9  -3    7.22    1.54
   6   9   3    5.91    1.79
   7   9   3    6.07    1.87
  -7  -9  -3    8.94    1.45
  -7   9  -3    8.44    1.74
  -7   9  -3    8.16    1.76
  -8   9  -3  415.47    8.17
   8   9   3  428.26    9.41
  -8   9  -3  399.58    8.45
  -8  -9  -3  410.63    6.83
  -9   9  -3  383.51    8.04
  -9  -9  -3  380.70    7.17
  -9   9  -3  368.21    8.60
   9   9   3  420.74    9.26
  10   9   3    3.65    1.98
 -10  -9  -3    4.01    1.72
 -10   9  -3    1.57    1.65
 -10   9  -3    2.52    1.96
 -11  -9  -3    1.58    1.79
 -11   9  -3    1.67    1.90
 -11   9  -3   -1.09    2.32
  11   9   3   -0.32    1.93
 -12   9  -3  250.33    7.42
 -12  -9  -3  276.38    7.63
  12   9   3  279.21    8.18
 -12   9  -3  253.95    8.88
 -13   9  -3   46.63    3.84
 -13  -9  -3   43.48    3.87
 -13   9  -3   47.43    4.80
 -14  -9  -3  202.73    5.64
 -14   9  -3  181.93    7.12
 -14  -9  -3  201.53    7.78
 -14   9  -3  194.03    8.89
 -15  -9  -3  249.88    6.56
 -15  -9  -3  252.41    9.15
 -15   9  -3  247.22   10.72
 -17 -10   3    2.43    3.22
 -16 -10   3  411.42   12.26
 -16  10   3  398.53   16.13
 -15 -10   3  119.93    6.36
 -15  10   3  129.93    9.57
 -14 -10   3   12.14    2.73
 -14  10   3   18.41    5.04
 -13 -10   3   57.18    4.16
 -13  10   3   63.53    6.14
 -12  10   3   20.85    4.38
 -12 -10   3   21.82    2.72
 -11 -10   3    7.73    2.01
 -11  10   3   11.66    3.22
 -10 -10   3 1236.73   13.64
 -10  10   3 1181.86   11.02
 -10  10   3 1209.93   21.84
  10  10  -3 1263.13   12.02
   9 -10  -3 2073.82    9.90
   9  10  -3 2393.05   18.33
  -9  10   3 2262.32   16.49
  -9 -10   3 2285.47   16.97
  -9 -10   3 2035.00   15.52
  -9  10   3 2248.22   28.98
  -8 -10   3  317.89    5.91
   8  10  -3  343.38    7.70
  -8 -10   3  303.10    6.03
   8 -10  -3  322.50    4.65
  -8  10   3  327.39    6.60
  -8  10   3  313.19   11.11
   7  10  -3   43.58    3.34
  -7 -10   3   34.26    2.20
  -7 -10   3   35.33    2.01
   7 -10  -3   34.84    2.10
  -7  10   3   43.03    2.74
  -7  10   3   38.93    4.41
   6 -10  -3   46.41    2.90
   6  10  -3   54.79    1.54
  -6 -10   3   44.19    2.38
   6  10  -3   50.33    3.88
  -6 -10   3   53.03    2.13
  -6  10   3   43.92    2.87
  -6  10   3   43.10    4.73
  -5  10   3   14.61    3.68
   5 -10  -3   10.82    2.15
   5  10  -3    8.61    2.28
   5  10  -3   13.53    0.77
  -5 -10   3   12.49    1.48
  -5 -10   3   13.14    1.11
  -5  10   3   20.32    2.17
  -4  10   3 1152.74   21.28
   4 -10  -3 1166.39   16.13
   4  10  -3 1164.90    4.61
  -4 -10   3 1120.25   10.16
  -4 -10   3 1150.03    6.69
  -4  10   3 1172.65   13.68
   4  10  -3 1093.31   15.49
  -3  10   3 4383.85   40.80
   3  10  -3 4176.12    6.38
   3 -10  -3 4444.08   31.31
  -3 -10   3 4280.29   19.40
   3  10  -3 4397.93   28.69
  -3  10   3 4325.07   26.60
  -2  10   3 1855.95   27.92
   2 -10  -3 1948.83   20.93
  -2 -10   3 1961.30   13.18
   2  10  -3 2016.86   18.18
  -2  10   3 1895.56   17.94
  -1  10   3  132.61    5.11
   1  10  -3  131.07    4.70
   0  10  -3  582.04    6.29
   0  10   3  547.61   10.07
   0 -10  -3  589.35    5.19
   0  10  -3  548.37    9.02
  -1 -10  -3  526.20    4.93
   1  10   3  531.07   10.08
   1 -10   3  556.72    3.72
  -1  10  -3  535.39    8.73
  -1  10  -3  598.31    6.59
   2 -10   3  440.41    4.04
  -2  10  -3  406.65    7.55
  -2 -10  -3  426.27    4.68
  -2  10  -3  417.04    6.09
  -3  10  -3 2365.14   17.66
   3 -10   3 2366.81   10.63
  -3 -10  -3 2356.78   11.58
  -3  10  -3 2279.88   14.97
  -4 -10  -3  572.76    6.02
   4 -10   3  540.92    5.68
  -4  10  -3  556.84    8.85
   4  10   3  571.55   10.66
  -4  10  -3  567.16    8.17
  -5  10  -3   50.03    2.80
  -5  10  -3   45.68    2.87
  -5 -10  -3   47.66    2.04
   5  10   3   43.16    3.24
  -6 -10  -3  123.51    3.38
  -6  10  -3  123.51    4.41
  -6  10  -3  108.16    4.06
   6  10   3  143.95    5.54
   7  10   3  465.98   10.24
  -7 -10  -3  427.06    6.55
  -7  10  -3  401.32    8.02
  -7  10  -3  404.08    8.27
   8  10   3   49.20    3.63
  -8 -10  -3   44.04    2.50
  -8  10  -3   45.51    3.08
  -8  10  -3   41.64    3.23
  -9 -10  -3  170.94    5.02
   9  10   3  168.65    6.11
  -9  10  -3  169.85    6.11
  -9  10  -3  155.63    5.51
  10  10   3  266.10    7.82
 -10 -10  -3  269.30    6.62
 -10  10  -3  267.02    7.36
 -10  10  -3  280.74    8.48
 -11  10  -3    2.99    1.78
  11  10   3    4.80    2.18
 -11 -10  -3    4.88    2.01
 -11  10  -3    2.64    2.31
  12  10   3   34.58    3.41
 -12 -10  -3   29.63    3.03
 -12  10  -3   24.76    3.08
 -12  10  -3   30.54    4.09
  13  10   3  150.99    6.47
 -13 -10  -3  140.09    6.07
 -13  10  -3  142.93    7.37
 -13  10  -3  123.78    5.86
 -14 -10  -3  133.42    6.36
 -14  10  -3  122.55    6.27
 -14  10  -3  137.46    7.80
 -14 -10  -3  127.89    4.52
 -15 -10  -3  229.06    8.51
 -15  10  -3  291.24   11.70
 -17 -11   3   15.78    4.04
 -16 -11   3   14.20    3.48
 -16  11   3   18.82    5.43
 -15 -11   3    9.15    2.96
 -15  11   3    6.19    4.49
 -14  11   3  107.41    8.29
 -14 -11   3   98.84    5.43
 -13 -11   3  624.87   11.90
 -13  11   3  646.14   17.83
 -12 -11   3  322.68    8.10
 -12  11   3  342.98   12.77
 -11 -11   3    4.17    1.82
 -11  11   3    1.18    2.84
 -10  11   3   20.04    1.98
 -10 -11   3   28.23    2.52
 -10  11   3   23.88    4.53
  -9 -11   3   90.84    3.57
  -9  11   3   79.76    6.35
  -9  11   3   75.11    3.51
  -9 -11   3   68.72    3.33
   9  11  -3   98.78    4.27
  -8 -11   3  175.30    4.97
   8  11  -3  217.38    6.59
  -8 -11   3  200.44    4.70
  -8  11   3  219.71    9.81
   8 -11  -3  184.24    3.89
  -8  11   3  212.02    5.83
   7  11  -3  325.31    8.68
  -7  11   3  352.06    7.66
  -7 -11   3  334.29    5.42
  -7 -11   3  301.24    6.43
   7 -11  -3  308.62    6.09
  -7  11   3  343.16   11.89
  -6 -11   3  636.35    6.65
   6  11  -3  627.60    4.78
  -6 -11   3  570.11    8.38
  -6  11   3  650.59   10.55
   6  11  -3  590.08   12.26
   6 -11  -3  606.43    9.90
  -6  11   3  635.33   15.71
  -5  11   3  960.00   19.58
   5  11  -3  901.00   15.46
  -5  11   3  985.39   13.15
   5  11  -3  991.29    5.14
  -5 -11   3 1042.06    7.42
  -5 -11   3  879.06    9.88
   5 -11  -3  943.11   14.29
  -4  11   3   67.85    5.65
   4 -11  -3   64.24    4.31
  -4 -11   3   49.40    2.46
   4  11  -3   60.01    1.08
  -4 -11   3   49.52    1.44
  -4  11   3   64.01    3.64
   4  11  -3   48.71    3.87
  -3  11   3  241.41   10.99
   3 -11  -3  229.15    7.70
  -3  11   3  232.20    6.79
   3  11  -3  264.14    7.71
  -2  11   3   44.35    5.58
   2  11  -3   40.43    3.28
  -2  11   3   41.93    3.12
  -1  11   3   29.32    2.89
   1  11  -3   30.71    2.71
   0  11  -3 1039.84    9.99
   0 -11  -3 1066.49    7.01
   0  11  -3 1115.27   13.55
   1  11   3  113.63    5.07
  -1 -11  -3   81.81    2.11
   1 -11   3   86.46    1.67
  -1  11  -3   86.12    3.95
  -1  11  -3   90.18    3.08
   2  11   3  433.35    9.59
   2 -11   3  399.33    4.07
  -2 -11  -3  381.13    4.51
  -2  11  -3  379.68    7.76
  -2  11  -3  382.72    6.37
   3  11   3  127.30    5.53
  -3 -11  -3  130.56    2.86
   3 -11   3  121.70    2.59
  -3  11  -3  126.68    4.62
  -3  11  -3  141.24    4.13
  -4 -11  -3  432.89    5.35
  -4  11  -3  419.83    8.12
   4  11   3  440.80    9.80
   4 -11   3  399.74    5.08
  -4  11  -3  432.34    7.48
   5  11   3    9.31    2.05
  -5 -11  -3    4.34    1.06
  -5  11  -3    4.89    1.55
  -5  11  -3    4.46    1.44
   6  11   3  419.63    9.53
  -6  11  -3  411.21    8.20
  -6 -11  -3  434.78    6.16
  -6  11  -3  412.47    8.09
   7  11   3  133.02    5.60
  -7 -11  -3  129.92    3.76
  -7  11  -3  125.66    4.88
  -7  11  -3  129.18    5.09
  -8 -11  -3    4.54    1.42
  -8  11  -3    5.79    1.89
  -8  11  -3    5.15    1.96
   8  11   3    2.96    1.89
   9  11   3  106.12    5.21
  -9 -11  -3  115.31    4.18
  -9  11  -3  118.38    5.48
  -9  11  -3  109.83    4.94
 -10 -11  -3  116.92    4.52
 -10  11  -3  116.03    5.13
 -10  11  -3  116.16    5.76
  10  11   3  117.23    5.41
  11  11   3   53.78    3.94
 -11 -11  -3   47.95    3.37
 -11  11  -3   45.70    3.65
 -11  11  -3   48.51    4.28
 -12 -11  -3   39.84    3.44
 -12  11  -3   59.79    4.40
 -12  11  -3   53.45    4.98
  12  11   3   62.28    4.37
 -13 -11  -3  126.07    5.70
 -13  11  -3  120.05    6.18
  13  11   3  141.21    6.33
 -13  11  -3  125.84    7.32
 -14 -11  -3    3.89    2.42
 -14  11  -3    4.67    2.75
 -14  11  -3    8.79    3.44
 -15  11  -3    9.72    4.09
 -17 -12   3    3.61    3.24
 -16 -12   3   34.44    4.33
 -16  12   3   23.69    5.77
 -15 -12   3   13.16    3.05
 -15  12   3    8.78    4.31
 -14  12   3  157.14    9.99
 -14 -12   3  147.42    6.40
 -13 -12   3   24.82    2.91
 -13  12   3   24.13    4.85
 -12 -12   3  340.80    8.32
 -12  12   3  367.63   13.93
 -11 -12   3  125.66    4.83
 -11  12   3  128.04    8.25
  10  12  -3  181.26    5.52
 -10  12   3  158.22    5.22
 -10 -12   3  173.65    5.22
 -10  12   3  166.13    8.93
   9  12  -3   11.11    2.10
  -9 -12   3    7.96    1.51
  -9  12   3    9.14    1.88
  -9  12   3   11.08    3.62
  -8  12   3  143.55    5.27
   8 -12  -3  116.26    3.55
  -8 -12   3  144.27    4.00
   8  12  -3  142.05    5.76
  -8  12   3  146.45    8.18
   7  12  -3  262.87    8.22
  -7  12   3  259.26    7.00
  -7 -12   3  275.59    4.89
   7 -12  -3  241.72    5.79
  -7  12   3  241.20   10.10
   6  12  -3   51.45    1.46
   6  12  -3   53.92    4.24
  -6 -12   3   46.53    1.98
  -6  12   3   49.45    3.40
   6 -12  -3   41.28    3.15
  -6  12   3   54.03    5.47
  -5  12   3   61.24    5.86
   5  12  -3   55.33    4.64
   5  12  -3   62.44    1.37
  -5 -12   3   53.61    1.78
  -5  12   3   62.11    3.81
   5 -12  -3   54.31    3.88
   4  12  -3   86.10    5.25
  -4  12   3   85.95    6.81
   4 -12  -3   87.11    5.09
   4  12  -3   90.62    1.35
  -4  12   3   91.76    4.56
  -4 -12   3   74.97    1.73
  -3  12   3  177.83    9.69
  -3 -12   3  174.99    4.71
  -3 -12   3  161.21    1.96
  -3  12   3  172.65    6.13
   3  12  -3  152.45    6.40
  -2  12   3  506.99   16.10
   2  12  -3  488.60   10.48
  -2  12   3  485.60   10.09
   1  12  -3 1391.30   16.59
  -1  12   3 1514.71   17.76
   0  12  -3   55.30    2.75
   0 -12  -3   57.11    1.77
   0 -12   3   45.64    1.13
   0  12  -3   57.84    3.69
   1  12   3  212.94    7.10
  -1 -12  -3  208.55    3.37
   1 -12   3  210.59    2.75
  -1  12  -3  223.24    6.60
  -1  12  -3  254.73    5.40
  -2 -12  -3   52.59    1.84
   2  12   3   65.64    4.11
   2 -12   3   53.89    1.67
  -2  12  -3   54.33    3.43
  -2  12  -3   46.96    2.51
  -3  12  -3 1228.31   14.66
   3  12   3 1321.41   17.24
   3 -12   3 1183.85    8.27
  -3  12  -3 1231.21   12.86
  -3 -12  -3 1193.14    8.52
  -4 -12  -3   19.17    1.45
   4  12   3   19.11    2.67
  -4  12  -3   16.80    2.34
   4 -12   3   17.47    1.37
  -4  12  -3   24.04    2.36
  -5  12  -3  576.54   10.24
  -5 -12  -3  611.67    6.97
   5  12   3  587.76   11.62
  -5  12  -3  610.87    9.85
  -6 -12  -3  107.62    3.23
  -6  12  -3  100.96    4.50
  -6  12  -3  116.38    4.68
   6  12   3   96.23    4.88
  -7 -12  -3  320.19    5.77
  -7  12  -3  312.49    7.98
   7  12   3  345.20    8.97
  -7  12  -3  308.72    7.68
  -8  12  -3   76.66    4.25
   8  12   3   81.25    4.77
  -8 -12  -3   85.26    3.38
  -8  12  -3   77.40    4.49
   9  12   3  465.35   10.65
  -9  12  -3  457.97   10.00
  -9  12  -3  468.09   10.79
 -10  12  -3  299.76    8.38
 -10 -12  -3  307.43    6.93
  10  12   3  305.81    8.71
 -10  12  -3  307.49    9.34
  11  12   3  143.21    6.29
 -11 -12  -3  133.82    5.19
 -11  12  -3  144.30    7.00
 -11  12  -3  132.82    6.03
  12  12   3    4.40    2.34
 -12  12  -3    7.10    3.05
 -12 -12  -3    4.09    2.11
 -12  12  -3    6.79    2.62
  13  12   3   71.28    4.95
 -13 -12  -3   62.24    4.46
 -13  12  -3   57.98    4.83
 -13  12  -3   62.54    5.72
  14  12   3   53.79    4.47
 -14 -12  -3   49.01    4.27
 -14  12  -3   46.24    4.63
 -14  12  -3   48.66    5.48
 -15  12  -3  118.48    8.25
 -17 -13   3    0.16    3.21
 -16 -13   3   15.06    3.43
 -16  13   3   22.99    5.52
 -15 -13   3    1.98    2.41
 -15  13   3   -2.59    4.19
 -14 -13   3   23.75    3.25
 -14  13   3   19.64    4.92
 -13 -13   3  167.95    6.38
 -13  13   3  173.46   10.08
 -12 -13   3  350.38    8.39
 -12  13   3  344.79   13.81
 -11 -13   3   88.27    4.12
 -11  13   3   89.67    7.58
  10  13  -3   14.94    2.27
 -10 -13   3   23.62    2.37
 -10  13   3   25.48    4.81
   9  13  -3    1.89    1.90
  -9 -13   3    1.86    1.34
  -9  13   3    2.47    1.82
  -9  13   3    1.31    2.96
  -8  13   3  193.21    6.42
   8  13  -3  165.77    6.63
  -8 -13   3  179.04    4.47
  -8  13   3  203.98   10.05
  -7  13   3   85.92    4.56
   7  13  -3   96.71    5.41
  -7 -13   3   92.28    2.86
   7 -13  -3   86.01    3.99
  -7  13   3   87.95    6.84
   6  13  -3  646.21    4.84
   6  13  -3  593.67   13.40
  -6 -13   3  653.47    6.59
  -6  13   3  647.11   11.69
   6 -13  -3  582.10   10.83
  -6  13   3  661.91   17.66
  -5  13   3  128.51    8.23
   5  13  -3  126.95    6.66
   5  13  -3  139.44    2.00
  -5 -13   3  135.40    2.67
  -5  13   3  126.18    5.55
   4  13  -3  341.95   10.37
  -4  13   3  317.52   12.48
   4  13  -3  351.00    2.63
  -4 -13   3  332.37    3.41
  -4  13   3  299.39    8.26
  -3 -13   3 1094.81   11.76
  -3  13   3 1013.86   22.75
  -3 -13   3 1013.65    4.86
  -3  13   3 1046.80   15.44
   3  13  -3 1079.15   17.47
  -2  13   3   95.24    7.74
   2  13  -3  113.19    5.66
  -2 -13   3  105.46    2.49
  -1  13   3  970.08   15.05
   1 -13  -3  934.77    6.95
   1  13  -3 1011.23   15.40
   0  13  -3  570.92    9.06
   0 -13  -3  635.14    5.72
   0 -13   3  606.46    4.40
   0  13  -3  636.43   11.93
   0  13   3  682.78   12.84
  -1  13  -3  128.20    4.37
   1  13   3  171.76    6.67
  -1 -13  -3  140.57    2.83
   1 -13   3  141.76    2.47
  -1  13  -3  147.12    5.69
  -2 -13  -3   13.39    1.14
   2  13   3   11.41    2.49
   2 -13   3   11.93    1.01
  -2  13  -3   11.66    2.13
  -2  13  -3   11.15    1.79
  -3 -13  -3   79.00    2.33
   3  13   3   76.21    4.56
   3 -13   3   72.34    2.25
  -3  13  -3   78.84    4.26
  -3  13  -3   83.14    3.67
  -4  13  -3  116.74    5.16
  -4 -13  -3  118.67    2.97
   4  13   3  122.82    5.71
  -4  13  -3  113.72    4.51
  -5 -13  -3   75.92    2.60
   5  13   3   70.95    4.44
  -5  13  -3   74.18    4.12
  -5  13  -3   80.39    4.01
  -6  13  -3  355.38    8.54
   6  13   3  364.35    9.60
  -6  13  -3  347.18    8.27
  -7  13  -3   90.17    4.68
  -7 -13  -3   99.04    3.37
  -7  13  -3   94.47    4.83
   7  13   3  116.39    5.58
   8  13   3   51.98    4.00
  -8  13  -3   55.04    3.91
  -8  13  -3   56.50    4.01
  -8 -13  -3   51.73    2.76
   9  13   3   20.54    3.04
  -9  13  -3   15.56    2.72
  -9  13  -3   20.00    3.07
  -9 -13  -3   19.91    2.16
  10  13   3    9.04    2.54
 -10 -13  -3    7.91    1.88
 -10  13  -3    9.79    2.49
 -10  13  -3    9.90    2.74
 -11 -13  -3    6.73    2.16
 -11  13  -3    4.42    2.44
  11  13   3    7.97    2.43
 -11  13  -3    3.85    2.67
  12  13   3   68.49    4.65
 -12 -13  -3   66.72    4.11
 -12  13  -3   63.02    4.83
 -12  13  -3   66.52    5.50
  13  13   3    1.59    2.20
 -13 -13  -3    3.83    2.33
 -13  13  -3    1.52    2.58
 -13  13  -3    4.79    3.32
 -14 -13  -3   29.70    3.68
 -14  13  -3   29.23    4.36
  14  13   3   38.81    3.95
 -14  13  -3   30.35    4.89
 -15  13  -3    7.55    3.98
 -17 -14   3   87.68    6.38
 -16 -14   3    2.67    2.88
 -15 -14   3   47.24    4.24
 -15  14   3   44.84    6.79
 -14 -14   3  348.05    9.44
 -14  14   3  365.28   15.42
 -13 -14   3   78.33    4.54
 -13  14   3   87.44    8.14
 -12 -14   3  183.89    6.09
 -12  14   3  198.64   11.21
 -11 -14   3  330.87    7.49
 -11  14   3  339.12   13.82
 -10  14   3   53.65    3.78
 -10 -14   3   55.07    3.09
 -10  14   3   52.59    6.18
  10  14  -3   60.58    3.87
   9  14  -3   42.60    3.69
  -9  14   3   36.74    3.37
  -9 -14   3   46.41    2.73
  -9  14   3   40.15    5.39
   8  14  -3 1849.13   22.15
  -8  14   3 1785.90   20.01
  -8  14   3 1803.17   29.56
  -7 -14   3  952.47    8.80
  -7  14   3  988.71   15.18
  -7  14   3 1045.02   22.42
  -6  14   3  244.77   11.11
   6  14  -3  218.72    2.86
  -6  14   3  226.41    7.41
  -6 -14   3  216.47    3.81
   6  14  -3  211.17    8.42
   5  14  -3 1165.03   20.00
   5  14  -3 1232.74    5.87
  -5 -14   3 1220.34    7.78
  -5  14   3 1278.74   17.43
  -4  14   3    3.32    3.35
   4  14  -3    9.21    2.84
  -4 -14   3    8.77    0.78
   4  14  -3   10.28    0.61
  -4  14   3    9.47    2.53
  -3 -14   3   54.12    2.81
  -3  14   3   41.03    5.59
  -3 -14   3   35.83    0.98
  -3  14   3   44.16    3.78
   3  14  -3   41.76    4.10
  -2  14   3 4348.68   48.45
  -2  14   3 4464.23   32.99
   2  14  -3 4275.82   34.10
   1  14  -3 1088.89   16.73
  -1  14   3 1073.06   16.31
   1 -14  -3 1026.06    7.47
   0 -14  -3   67.44    2.04
   0 -14   3   63.90    1.68
   0  14  -3   61.39    4.28
   0  14   3   68.89    4.43
  -1  14  -3  524.92    9.34
   1  14   3  532.98   11.93
  -1 -14  -3  490.41    5.38
   1 -14   3  510.62    4.96
  -1  14  -3  504.57   10.90
  -2 -14  -3   13.51    1.17
   2  14   3   14.57    2.75
   2 -14   3   12.42    1.10
  -2  14  -3    9.85    2.22
  -2  14  -3   13.33    2.13
   3  14   3  100.43    5.34
  -3 -14  -3   80.89    2.39
   3 -14   3   85.00    2.49
  -3  14  -3   97.46    4.97
  -3  14  -3  104.28    4.29
   4  14   3  740.72   13.81
  -4 -14  -3  740.86    7.30
  -4  14  -3  741.35   11.49
  -4  14  -3  744.93   12.87
  -5 -14  -3 3448.36   16.66
   5  14   3 3636.40   30.73
  -5  14  -3 3465.64   27.60
  -5  14  -3 3537.23   26.08
  -6 -14  -3  761.20    8.30
   6  14   3  739.01   13.89
  -6  14  -3  721.84   12.73
  -6  14  -3  733.06   12.37
  -7 -14  -3  198.87    4.70
  -7  14  -3  184.54    6.77
   7  14   3  206.58    7.28
  -7  14  -3  205.74    7.33
  -8 -14  -3   63.50    2.98
  -8  14  -3   60.73    4.38
  -8  14  -3   63.76    4.45
   8  14   3   70.14    4.64
   9  14   3  152.66    6.74
  -9 -14  -3  133.82    4.46
  -9  14  -3  130.71    6.00
  -9  14  -3  137.40    6.52
  10  14   3   19.15    2.94
 -10 -14  -3   17.77    2.31
 -10  14  -3   20.03    3.21
 -10  14  -3   14.95    3.10
 -11  14  -3  421.94   11.27
  11  14   3  458.98   11.13
 -11 -14  -3  440.91    9.10
 -11  14  -3  443.97   12.40
  12  14   3  394.62   10.60
 -12 -14  -3  364.01    8.74
 -12  14  -3  355.73   10.87
 -12  14  -3  377.88   12.19
  13  14   3    5.49    2.53
 -13 -14  -3    5.33    2.42
 -13  14  -3    1.81    2.78
 -13  14  -3    2.95    3.12
  14  14   3   62.58    4.86
 -14 -14  -3   64.14    4.86
 -14  14  -3   50.87    5.07
 -14  14  -3   62.97    6.44
 -15  14  -3  180.79   10.39
 -17 -15   3    1.27    2.99
 -16 -15   3    4.01    2.89
 -15 -15   3   42.07    4.05
 -15  15   3   51.36    7.50
 -14 -15   3   70.25    4.73
 -14  15   3   88.52    8.63
 -13 -15   3    5.79    2.06
 -13  15   3   12.29    4.60
 -12 -15   3   29.72    2.88
 -12  15   3   39.59    6.48
 -11 -15   3   73.26    3.78
 -11  15   3   70.13    7.40
 -10  15   3   27.34    3.10
 -10 -15   3   32.13    2.58
  10  15  -3   27.30    3.04
 -10  15   3   28.27    5.29
  -9  15   3   22.59    4.76
  -9  15   3   25.04    3.16
  -9 -15   3   22.78    2.03
   9  15  -3   20.25    3.15
  -8  15   3  418.87   10.31
   8  15  -3  350.42   10.28
  -8 -15   3  371.87    6.07
  -8  15   3  405.99   14.30
  -7  15   3  134.91    6.02
  -7 -15   3  126.91    3.32
   7  15  -3  122.07    6.67
  -7  15   3  128.68    8.66
  -6  15   3  381.06   14.24
   6  15  -3  389.41    3.81
  -6  15   3  375.88    9.94
  -6 -15   3  413.88    5.22
   6  15  -3  408.65   11.85
  -5  15   3  331.30   13.39
   5  15  -3  330.51   11.11
   5  15  -3  349.33    3.28
  -5 -15   3  337.02    4.07
  -5  15   3  325.53    9.31
   4  15  -3  246.13    9.64
  -4  15   3  261.75   11.93
  -4 -15   3  250.86    7.34
  -4 -15   3  255.45    3.05
  -4  15   3  258.60    8.41
  -3 -15   3   12.23    0.68
   3  15  -3   11.96    3.10
  -3 -15   3    9.63    1.62
  -3  15   3   13.82    5.09
  -3  15   3   12.34    2.73
  -2  15   3   43.95    5.94
  -2 -15   3   27.66    0.78
  -2  15   3   43.82    3.83
  -2 -15   3   28.51    1.79
   2  15  -3   36.64    4.06
  -1  15   3   68.79    4.57
   1 -15  -3   49.03    1.86
  -1 -15   3   47.28    1.75
  -1 -15   3   49.69    0.91
   1  15  -3   47.79    4.20
   0 -15  -3   93.38    2.40
   0 -15   3  120.35    2.52
   0  15  -3  123.45    6.14
   0  15   3  125.40    6.06
   1  15   3  256.93    8.64
  -1  15  -3  287.85    7.48
  -1 -15  -3  275.42    4.12
   1 -15   3  270.86    3.89
  -1  15  -3  260.63    8.41
   2  15   3   91.33    5.37
  -2 -15  -3   81.14    2.39
   2 -15   3   82.04    2.42
  -2  15  -3   87.38    5.04
  -2  15  -3   86.01    4.19
   3  15   3  155.48    6.75
  -3 -15  -3  138.75    3.17
   3 -15   3  137.87    3.28
  -3  15  -3  140.95    6.14
  -3  15  -3  145.16    5.46
  -4 -15  -3  258.02    4.46
  -4  15  -3  245.34    7.76
  -4  15  -3  278.42    7.39
   4  15   3  270.03    8.79
  -5 -15  -3  129.72    3.43
   5  15   3  127.27    6.38
  -5  15  -3  125.01    5.87
  -5  15  -3  141.31    5.61
  -6 -15  -3    4.09    1.23
  -6  15  -3    4.55    2.19
  -6  15  -3    4.37    2.12
   6  15   3    3.76    2.27
  -7 -15  -3   75.15    3.09
  -7  15  -3   75.13    4.85
   7  15   3   71.22    4.67
  -7  15  -3   82.09    4.80
  -8  15  -3  167.74    6.94
  -8 -15  -3  162.61    4.51
  -8  15  -3  161.27    6.90
   8  15   3  159.35    6.74
  -9 -15  -3   13.21    1.97
   9  15   3   16.09    2.76
  -9  15  -3   14.29    2.98
  -9  15  -3   12.80    2.74
 -10 -15  -3   16.33    2.21
 -10  15  -3   17.13    3.24
 -10  15  -3   11.10    2.94
  10  15   3   17.06    2.90
 -11 -15  -3   28.80    2.85
  11  15   3   35.23    3.64
 -11  15  -3   33.90    4.19
 -11  15  -3   37.94    4.45
 -12 -15  -3   29.82    3.19
 -12  15  -3   27.65    3.85
 -12  15  -3   32.00    4.37
  12  15   3   31.72    3.62
  13  15   3   20.97    3.28
 -13 -15  -3   20.97    3.13
 -13  15  -3   18.55    3.83
 -13  15  -3   20.87    4.34
 -14 -15  -3   67.66    4.87
 -14  15  -3   60.02    5.65
 -14  15  -3   62.13    6.31
  14  15   3   63.41    4.97
 -16 -16   3  103.72    6.36
 -15 -16   3   63.86    4.79
 -15  16   3   68.24    8.23
 -14 -16   3  270.44    8.41
 -14  16   3  318.69   15.94
 -13 -16   3   37.18    3.35
 -13  16   3   46.57    7.13
 -12 -16   3  100.22    4.69
 -12  16   3   94.12    8.60
 -11 -16   3   16.76    2.16
 -11  16   3   24.26    5.30
 -10  16   3  255.08    8.38
  10  16  -3  278.67    8.71
 -10 -16   3  276.38    6.33
 -10  16   3  239.51   11.91
  -9  16   3  110.78    5.81
  -9 -16   3  109.85    3.86
   9  16  -3  118.59    6.03
  -9  16   3  102.93    8.06
   8  16  -3  444.62   11.76
  -8  16   3  421.27   10.89
  -8 -16   3  466.57    6.82
  -8  16   3  470.57   16.03
  -7  16   3  704.67   19.69
   7  16  -3  676.25   15.22
  -7  16   3  662.08   13.55
  -7 -16   3  697.27    7.46
  -6  16   3  232.50   11.97
   6  16  -3  225.31    2.98
   6  16  -3  231.64    9.32
  -6 -16   3  239.66    3.90
  -6  16   3  211.29    7.83
  -5  16   3  760.51   20.42
  -5  16   3  727.27   14.35
   5  16  -3  769.22   17.11
   5  16  -3  804.39    5.03
  -5 -16   3  774.38    6.15
  -4 -16   3    6.44    0.71
  -4  16   3   10.50    4.62
  -4 -16   3   10.19    2.51
   4  16  -3    5.89    2.73
  -4  16   3    2.90    2.05
   3  16  -3 1788.53   25.65
  -3 -16   3 1808.83   16.50
  -3  16   3 1770.88   32.46
  -3 -16   3 1686.28    6.59
  -3  16   3 1747.11   22.36
   2  16  -3   17.63    3.32
  -2  16   3    5.01    3.87
  -2 -16   3   11.14    0.59
  -2 -16   3   11.18    1.34
  -2  16   3   11.32    2.38
   1 -16  -3  839.14    7.22
  -1 -16   3  847.01    3.82
  -1 -16   3  800.32    7.51
  -1  16   3  886.17   16.09
   1  16  -3  824.97   16.15
   0  16   3    4.59    2.25
   0 -16  -3    3.48    0.88
   0 -16   3    3.25    0.40
   0 -16   3    3.62    0.89
   0  16  -3    3.94    2.37
  -1  16  -3  813.75   13.79
  -1 -16  -3  796.35    7.05
   1 -16   3  802.09    7.12
  -1  16  -3  802.74   15.54
   1  16   3  831.57   15.47
   2  16   3   31.91    3.90
  -2 -16  -3   26.10    1.53
   2 -16   3   26.98    1.59
  -2  16  -3   28.13    3.51
  -2  16  -3   26.72    2.72
  -3  16  -3  675.06   13.54
   3  16   3  667.18   13.92
  -3 -16  -3  670.70    6.87
   3 -16   3  623.28    7.12
  -3  16  -3  693.67   12.04
  -4 -16  -3    3.95    1.10
   4  16   3    3.53    2.43
  -4  16  -3    4.63    2.30
  -4  16  -3    5.60    1.93
   5  16   3  301.73    9.43
  -5 -16  -3  286.60    4.98
  -5  16  -3  285.02    8.83
  -5  16  -3  283.72    8.11
  -6 -16  -3    2.42    1.28
  -6  16  -3    5.00    2.32
   6  16   3    6.89    2.49
  -6  16  -3    7.47    2.33
  -7 -16  -3  429.18    6.81
   7  16   3  433.39   11.29
  -7  16  -3  413.40   10.70
  -7  16  -3  437.35   10.86
   8  16   3    5.51    2.33
  -8 -16  -3    5.96    1.62
  -8  16  -3    6.03    2.54
  -8  16  -3    6.02    2.59
  -9 -16  -3  277.47    6.34
  -9  16  -3  270.99    9.11
  -9  16  -3  288.01    9.64
   9  16   3  285.71    9.42
 -10 -16  -3    1.64    1.78
 -10  16  -3    4.72    2.70
  10  16   3    3.65    2.33
 -10  16  -3    1.89    2.54
  11  16   3  107.00    6.05
 -11 -16  -3  103.87    4.71
 -11  16  -3   98.72    6.15
 -11  16  -3  106.27    6.88
  12  16   3   31.68    3.77
 -12  16  -3   32.76    4.38
 -12 -16  -3   33.23    3.17
 -12  16  -3   20.60    4.12
  13  16   3  150.62    7.26
 -13 -16  -3  132.10    5.88
 -13  16  -3  132.44    7.95
 -13  16  -3  137.62    8.60
 -14 -16  -3   14.30    3.20
  14  16   3   12.81    3.15
 -14  16  -3   12.83    3.93
 -14  16  -3   20.90    4.82
 -16 -17   3    4.61    3.05
 -15 -17   3   17.99    3.22
 -15  17   3   22.42    6.43
 -14 -17   3   17.90    3.07
 -14  17   3   17.92    5.51
 -13 -17   3   44.98    3.73
 -13  17   3   37.84    6.85
 -12 -17   3   73.75    4.07
 -12  17   3   73.68    8.12
 -11 -17   3   42.61    3.03
 -11  17   3   35.18    5.96
 -10  17   3   42.31    4.06
 -10 -17   3   49.27    3.00
  10  17  -3   43.24    4.01
 -10  17   3   50.10    6.25
  -9  17   3   30.89    5.42
  -9 -17   3   29.00    2.19
  -9  17   3   27.51    3.62
   9  17  -3   31.85    3.80
  -8  17   3    8.08    4.10
  -8 -17   3   13.12    1.56
  -8  17   3   11.24    2.75
   8  17  -3   18.11    3.20
   7  17  -3    1.94    2.47
  -7 -17   3    5.15    1.16
  -7  17   3    7.19    2.40
  -6  17   3  145.98    9.97
   6  17  -3  158.00    8.06
  -6 -17   3  148.51    3.16
  -6  17   3  133.60    6.53
  -5  17   3   78.47    7.65
   5  17  -3   82.44    6.39
   5  17  -3   83.18    1.74
  -5 -17   3   86.56    2.19
  -5  17   3   72.48    5.15
   4  17  -3    8.98    3.33
  -4  17   3    7.92    3.96
  -4 -17   3    4.65    0.70
  -4 -17   3    9.85    2.68
  -4  17   3    8.95    2.75
  -3 -17   3  231.45    6.26
   3  17  -3  230.18    9.89
  -3  17   3  246.48   12.63
  -3 -17   3  249.46    2.69
  -3  17   3  249.22    9.09
  -2  17   3  123.32    9.40
  -2 -17   3  133.17    1.74
  -2  17   3  139.50    6.90
  -2 -17   3  125.23    3.76
   2  17  -3  126.94    7.27
  -1 -17   3   48.57    1.02
   1 -17  -3   46.95    1.89
  -1  17   3   59.98    4.65
  -1 -17   3   39.75    2.02
   1  17  -3   45.33    4.60
   0 -17   3   74.99    1.30
   0 -17   3   76.40    2.47
   0  17  -3   77.38    5.59
   0  17   3   76.22    5.23
   0 -17  -3   78.21    2.40
  -1  17  -3  107.35    5.63
  -1 -17  -3  103.73    2.71
   1 -17   3   97.11    2.69
  -1  17  -3   96.62    6.15
   1  17   3   95.31    5.79
  -2  17  -3   46.99    3.96
   2  17   3   57.66    4.83
  -2 -17  -3   46.76    1.96
  -2  17  -3   53.63    4.51
   2 -17   3   41.57    2.00
   3  17   3   30.22    3.80
  -3 -17  -3   25.61    1.70
   3 -17   3   22.37    1.95
  -3  17  -3   22.85    3.59
  -3  17  -3   21.94    3.02
   4  17   3   27.33    3.63
  -4 -17  -3   25.19    1.77
  -4  17  -3   22.85    3.47
  -4  17  -3   27.12    3.08
  -5  17  -3  127.93    6.55
  -5 -17  -3  130.21    3.54
  -5  17  -3  129.39    6.02
   6  17   3  561.74   13.15
  -6 -17  -3  538.46    7.28
  -6  17  -3  527.00   12.79
  -6  17  -3  551.33   12.10
  -7 -17  -3  199.71    4.79
   7  17   3  206.72    8.20
  -7  17  -3  189.87    7.96
  -7  17  -3  188.22    7.70
   8  17   3    9.15    2.46
  -8  17  -3   12.39    2.97
  -8 -17  -3   12.07    1.83
  -8  17  -3    7.89    2.78
  -9 -17  -3   26.00    2.35
  -9  17  -3   23.76    3.63
  -9  17  -3   23.88    3.75
   9  17   3   29.54    3.54
 -10  17  -3    8.66    3.30
 -10 -17  -3    5.30    1.78
  10  17   3   11.43    2.86
 -10  17  -3   10.60    3.13
  11  17   3   10.84    2.80
 -11 -17  -3    8.43    2.31
 -11  17  -3    7.96    3.19
 -11  17  -3   11.68    3.70
 -12 -17  -3   13.78    2.69
  12  17   3   18.05    3.18
 -12  17  -3   14.24    3.56
 -12  17  -3   20.39    4.25
 -13  17  -3   16.86    4.58
  13  17   3   11.63    3.18
 -13 -17  -3   10.47    2.73
 -13  17  -3   11.02    3.84
  14  17   3  125.89    6.75
 -14  17  -3  101.21    7.53
 -14  17  -3  101.03    7.89
 -16 -18   3   95.16    6.10
 -15 -18   3   93.24    5.70
 -15  18   3  102.79   10.52
 -14  18   3   21.84    6.31
 -14 -18   3   14.54    2.82
 -13 -18   3   38.55    3.46
 -13  18   3   43.82    7.33
 -12  18   3   26.72    6.34
 -12 -18   3   18.99    2.59
 -11  18   3   18.23    4.84
 -11 -18   3   19.09    2.31
 -10 -18   3  536.66    8.74
  10  18  -3  509.85   12.41
 -10  18   3  507.50   17.93
  -9  18   3  307.05   10.08
  -9 -18   3  347.89    6.48
   9  18  -3  358.24   11.00
  -9  18   3  359.11   15.34
  -8  18   3  282.74   13.36
   8  18  -3  280.39   10.15
  -8  18   3  243.94    9.13
  -8 -18   3  303.85    5.54
  -7  18   3  324.88   14.49
   7  18  -3  311.44   11.25
  -7  18   3  274.36    9.67
  -7 -18   3  306.23    5.02
  -6  18   3  252.73   13.01
  -6 -18   3  274.74    4.29
   6  18  -3  285.10   11.17
  -5  18   3   47.37    6.61
  -5 -18   3   55.73    4.71
   5  18  -3   54.51    5.54
  -5 -18   3   43.75    1.66
  -5  18   3   39.14    4.12
  -4 -18   3 1550.39   19.75
  -4  18   3 1517.93   31.29
   4  18  -3 1521.36   25.99
  -4 -18   3 1569.15    7.78
  -4  18   3 1451.31   21.79
   3  18  -3 2319.88   31.28
  -3 -18   3 2349.89    8.30
  -3  18   3 2388.51   39.79
  -3  18   3 2286.96   27.37
  -3 -18   3 2405.70   20.11
  -2  18   3  326.52   14.84
  -2 -18   3  350.58    2.94
  -2  18   3  360.38   10.96
  -2 -18   3  324.08    6.23
   2  18  -3  345.23   12.18
  -1 -18   3  151.24    1.84
   1 -18  -3  159.10    3.37
  -1  18   3  168.77    7.76
  -1 -18   3  142.84    3.76
   1  18  -3  164.75    8.38
   0 -18   3  115.04    1.69
   0 -18  -3  115.82    2.98
   0 -18   3  118.71    3.26
   0  18   3  109.37    6.19
   0  18  -3  116.01    6.78
  -1  18  -3  614.06   13.34
  -1 -18  -3  615.88    6.43
   1 -18   3  599.74    6.99
  -1  18  -3  608.88   14.67
   1  18   3  624.58   14.41
   2  18   3   61.96    5.07
  -2  18  -3   70.17    4.83
  -2 -18  -3   60.78    2.24
   2 -18   3   60.30    2.43
  -2  18  -3   67.79    5.38
   3  18   3 1303.00   20.98
  -3 -18  -3 1261.37    9.76
  -3  18  -3 1293.97   20.66
  -3  18  -3 1302.70   18.87
   4  18   3 1203.66   19.77
  -4 -18  -3 1126.78    9.68
  -4  18  -3 1112.62   18.80
  -4  18  -3 1146.23   17.67
   5  18   3  199.48    8.38
  -5 -18  -3  186.89    4.22
  -5  18  -3  193.97    8.18
  -5  18  -3  188.39    7.49
  -6 -18  -3  212.90    4.72
  -6  18  -3  216.20    8.57
   6  18   3  223.32    8.73
  -6  18  -3  209.80    8.00
  -7 -18  -3  492.98    7.44
   7  18   3  510.96   12.95
  -7  18  -3  478.54   12.77
  -7  18  -3  528.85   12.78
  -8 -18  -3   79.76    3.45
   8  18   3   78.29    5.51
  -8  18  -3   80.77    5.58
  -8  18  -3   81.36    5.66
  -9 -18  -3  398.02    7.65
  -9  18  -3  388.26   11.77
  -9  18  -3  400.74   12.20
   9  18   3  437.44   12.06
  10  18   3  343.54   10.64
 -10 -18  -3  329.69    7.41
 -10  18  -3  308.30   11.03
 -10  18  -3  310.09   11.24
 -11 -18  -3    1.47    2.06
 -11  18  -3   -1.87    2.89
 -11  18  -3    1.25    3.16
  11  18   3    0.57    2.67
  12  18   3   13.23    2.97
 -12  18  -3   11.95    3.98
 -12  18  -3   16.11    4.12
 -12 -18  -3   11.46    2.51
  13  18   3  258.52    9.41
 -13  18  -3  232.27   11.28
 -13  18  -3  233.93   10.83
 -13 -18  -3  235.71    7.84
  14  18   3    7.96    2.96
 -14  18  -3   13.64    4.38
 -14  18  -3   12.67    4.72
 -15 -19   3   48.96    4.39
 -14 -19   3   67.11    4.60
 -14  19   3   85.88    9.49
 -13 -19   3   92.21    4.82
 -13  19   3   90.66    9.59
 -12 -19   3  111.17    4.80
 -12  19   3  113.16   10.27
 -11 -19   3  140.66    5.02
 -11  19   3  138.23   10.42
 -10  19   3   17.56    5.15
 -10 -19   3   13.29    1.91
 -10  19   3    9.86    2.95
  10  19  -3   22.60    3.50
  -9 -19   3   27.26    2.17
  -9  19   3   20.88    3.55
   9  19  -3   23.75    3.71
  -9  19   3   30.58    6.35
  -8  19   3   -0.38    4.58
  -8 -19   3    3.62    1.27
  -8  19   3    4.02    2.63
   8  19  -3    5.50    3.01
   7  19  -3   36.07    4.64
  -7  19   3   51.01    7.07
  -7  19   3   38.97    4.30
  -7 -19   3   43.10    2.09
  -6  19   3   55.71    7.17
  -6 -19   3   52.13    2.02
  -6  19   3   53.56    4.79
   6  19  -3   52.82    5.67
  -5  19   3  352.29   15.43
  -5 -19   3  357.29   11.20
   5  19  -3  352.56   12.67
  -5  19   3  309.66   10.64
  -5 -19   3  362.31    4.38
  -4 -19   3  776.37   13.79
  -4  19   3  663.20   21.46
   4  19  -3  748.25   18.53
  -4 -19   3  694.05    5.26
  -4  19   3  608.65   14.67
   3  19  -3   17.91    3.94
  -3  19   3   13.85    5.20
  -3 -19   3   11.65    0.78
  -3  19   3   16.74    3.12
  -3 -19   3   18.39    2.43
   2  19  -3    3.12    3.06
  -2  19   3    7.35    4.29
  -2 -19   3    3.68    0.56
  -2  19   3    2.43    2.33
  -2 -19   3    3.35    1.41
   1 -19  -3   38.77    1.88
  -1 -19   3   38.93    1.06
  -1  19   3   42.72    4.47
  -1 -19   3   38.31    2.50
   1  19  -3   39.54    4.99
   0  19  -3    5.00    3.09
   0  19   3   13.26    3.07
   0 -19   3    9.32    0.66
   0 -19  -3    9.77    1.23
   0 -19   3    7.36    1.27
  -1  19  -3  119.83    6.37
  -1 -19  -3  136.95    3.36
   1 -19   3  137.23    3.71
  -1  19  -3  138.21    7.87
   1  19   3  150.95    7.46
  -2  19  -3  100.52    5.94
  -2 -19  -3   81.46    2.65
   2 -19   3   81.85    2.93
  -2  19  -3   84.59    6.15
   2  19   3   80.55    5.83
  -3  19  -3   65.31    5.07
   3  19   3   44.94    4.66
  -3 -19  -3   54.16    2.33
   4  19   3  106.83    6.39
  -4 -19  -3  113.97    3.27
  -4  19  -3  121.71    6.83
  -4  19  -3  122.11    6.39
  -5 -19  -3    4.54    1.29
   5  19   3    6.25    2.82
  -5  19  -3    1.98    2.48
  -5  19  -3    0.77    2.44
  -6 -19  -3   19.83    1.86
  -6  19  -3   18.86    3.63
   6  19   3   25.34    3.74
  -6  19  -3   16.54    3.35
  -7  19  -3   73.04    5.35
  -7 -19  -3   78.28    3.22
   7  19   3   99.67    6.31
  -7  19  -3   80.94    5.91
  -8 -19  -3  200.76    5.24
   8  19   3  228.06    8.98
  -8  19  -3  204.72    9.08
  -8  19  -3  212.02    8.99
  -9 -19  -3   83.82    3.74
  -9  19  -3   84.27    6.27
   9  19   3   86.76    5.82
  -9  19  -3   89.80    6.41
 -10 -19  -3  152.06    5.25
 -10  19  -3  149.75    8.28
 -10  19  -3  159.48    8.31
  10  19   3  162.73    7.77
 -11 -19  -3    9.62    2.38
  11  19   3    5.93    2.97
 -11  19  -3    5.91    3.46
 -11  19  -3    4.95    3.14
  12  19   3   14.22    3.42
 -12 -19  -3   13.92    2.80
 -12  19  -3    6.41    3.28
 -12  19  -3    7.74    3.83
 -13 -19  -3   14.19    2.92
  13  19   3   17.08    3.34
 -13  19  -3   10.06    4.14
 -13  19  -3   13.68    4.62
  14  19   3   75.31    5.74
 -14  19  -3   57.76    6.67
 -14  19  -3   79.91    7.89
 -14 -20   3   35.65    3.59
 -14  20   3   44.01    8.01
 -13  20   3   12.24    5.80
 -13 -20   3    5.44    2.32
 -12 -20   3  129.47    5.18
 -12  20   3  143.35   11.30
 -11 -20   3   76.25    3.89
 -11  20   3   93.16    9.15
 -10  20   3   80.18    5.86
 -10 -20   3  113.65    4.22
  10  20  -3  112.55    6.61
 -10  20   3   90.24    9.26
  -9  20   3   84.73    8.61
  -9  20   3   78.82    6.06
  -9 -20   3   81.45    3.30
   9  20  -3   85.75    6.47
  -8  20   3  238.85   13.53
   8  20  -3  233.05    9.85
  -8  20   3  203.10    8.99
  -8 -20   3  240.72    5.06
  -7  20   3  147.36   10.72
   7  20  -3  133.12    8.17
  -7  20   3  140.33    7.44
  -7 -20   3  139.67    3.48
  -6  20   3   86.72    8.38
   6  20  -3  105.80    7.44
  -6  20   3   75.10    5.75
  -6 -20   3  105.63    2.80
  -5  20   3  303.62   15.04
  -5 -20   3  262.96    3.80
   5  20  -3  273.91   11.36
  -5  20   3  246.84    9.74
  -4 -20   3  335.19    9.41
  -4  20   3  306.70   15.43
   4  20  -3  330.90   13.14
  -4 -20   3  326.21    3.72
  -4  20   3  282.30   10.40
   3  20  -3  149.09    8.95
  -3 -20   3  146.53    2.29
  -3  20   3  150.93   11.34
  -3  20   3  150.74    7.82
  -3 -20   3  139.48    5.30
   2  20  -3   50.51    5.74
  -2  20   3   36.72    6.25
  -2 -20   3   45.04    1.23
  -2  20   3   45.80    4.71
  -2 -20   3   49.52    2.96
   1 -20  -3  883.44    8.03
  -1 -20   3  849.90    4.79
  -1  20   3  827.36   17.65
  -1 -20   3  809.57   10.07
   1  20  -3  896.78   20.20
   0  20  -3    5.95    3.24
   0  20   3    7.73    2.87
   0 -20   3    5.86    0.62
   0 -20  -3    8.42    1.21
   0 -20   3    5.42    1.23
  -1 -20  -3  197.49    3.87
  -1  20  -3  183.82    8.21
   1 -20   3  177.46    4.31
   1  20   3  221.79    9.12
  -1  20  -3  190.30    9.32
  -2  20  -3   21.47    3.74
   2  20   3   14.64    3.11
   2 -20   3   15.06    1.65
  -2 -20  -3   25.23    1.73
  -2  20  -3   17.59    3.71
  -3  20  -3  246.54    9.62
   3  20   3  240.49    9.73
  -3 -20  -3  244.25    4.54
  -3  20  -3  237.79   10.10
   4  20   3   22.48    3.69
  -4 -20  -3   26.69    2.05
  -4  20  -3   23.13    3.78
  -4  20  -3   27.26    3.85
  -5 -20  -3  767.43    8.55
   5  20   3  813.38   17.22
  -5  20  -3  796.52   17.66
  -5  20  -3  779.17   16.22
  -6 -20  -3    5.20    1.46
   6  20   3    4.09    2.43
  -6  20  -3    5.77    3.13
  -6  20  -3    1.64    2.71
   7  20   3  389.57   11.92
  -7 -20  -3  369.89    6.65
  -7  20  -3  360.28   11.58
  -7  20  -3  356.07   11.96
  -8 -20  -3   23.94    2.28
   8  20   3   24.29    3.84
  -8  20  -3   22.00    3.81
  -8  20  -3   23.22    4.00
  -9 -20  -3  246.03    6.12
   9  20   3  251.74    9.59
  -9  20  -3  226.67    9.80
  -9  20  -3  235.97    9.80
 -10 -20  -3   43.90    3.15
 -10  20  -3   39.64    4.95
 -10  20  -3   41.46    5.13
  10  20   3   50.90    4.72
  11  20   3  109.54    6.89
 -11 -20  -3  108.29    4.95
 -11  20  -3  110.85    7.75
 -11  20  -3  115.11    7.94
  12  20   3  182.56    8.37
 -12 -20  -3  173.26    6.57
 -12  20  -3  163.39    9.66
 -12  20  -3  176.24    9.84
 -13 -20  -3   96.87    5.34
  13  20   3  100.45    6.35
 -13  20  -3   82.58    7.53
 -13  20  -3   93.21    8.02
  14  20   3   75.50    5.82
 -14  20  -3   58.54    7.03
 -14  21   3   29.74    7.12
 -13  21   3    2.55    5.13
 -13 -21   3   10.32    2.46
 -12  21   3   28.35    6.84
 -12 -21   3   23.52    2.79
 -11 -21   3   76.54    3.91
 -11  21   3   64.35    8.18
 -10  21   3   28.34    6.74
 -10  21   3   26.84    4.07
 -10 -21   3   32.49    2.56
  10  21  -3   40.42    4.53
  -9  21   3   11.94    5.90
  -9 -21   3   11.43    1.68
  -9  21   3    7.70    2.95
   9  21  -3    8.53    3.20
  -8  21   3  234.89   13.87
  -8  21   3  191.61    9.01
   8  21  -3  245.81   10.42
  -8 -21   3  227.62    4.82
  -7  21   3    6.40    4.21
  -7 -21   3    8.51    1.29
   7  21  -3    7.96    3.50
  -7  21   3    6.55    3.20
  -6  21   3   21.45    5.50
   6  21  -3   14.13    3.80
  -6 -21   3   20.38    1.47
  -6  21   3   15.96    3.31
  -5  21   3  220.80   13.42
   5  21  -3  208.18   10.39
  -5 -21   3  210.19    3.46
  -5  21   3  184.18    8.74
  -4  21   3  115.64   10.00
   4  21  -3  131.67    8.67
  -4 -21   3  116.62    2.37
  -4  21   3   99.75    6.60
   3  21  -3   96.42    7.72
  -3  21   3   83.10    8.86
  -3 -21   3   86.74    1.86
  -3  21   3   75.99    5.87
  -3 -21   3   92.31    4.50
   2  21  -3   76.19    6.94
  -2 -21   3   76.11    1.65
  -2  21   3   66.37    5.66
  -2 -21   3   73.37    3.62
   1 -21  -3   80.27    2.66
  -1 -21   3   71.83    1.54
  -1  21   3   65.53    5.69
  -1 -21   3   59.14    3.12
   1  21  -3   77.86    6.67
   0  21   3    9.55    3.15
   0  21  -3   11.45    3.87
   0 -21  -3   11.82    1.38
   0 -21   3   12.10    0.79
   0 -21   3    9.29    1.52
  -1  21  -3  155.98    7.71
  -1 -21  -3  170.54    3.75
   1 -21   3  143.22    4.14
   1  21   3  175.75    8.53
  -1  21  -3  164.90    8.94
  -2  21  -3  192.29    8.88
  -2 -21  -3  217.47    4.28
  -2  21  -3  188.39    9.47
   2  21   3  193.45    8.88
  -3  21  -3   19.08    3.59
  -3 -21  -3   18.49    1.67
   3  21   3   13.51    3.36
  -3  21  -3   18.03    4.00
  -4  21  -3   17.95    3.65
   4  21   3   20.90    3.91
  -4 -21  -3   15.61    1.63
  -4  21  -3   18.92    3.87
  -5  21  -3   12.94    3.54
  -5 -21  -3   15.44    1.81
   5  21   3   15.09    3.47
  -5  21  -3   13.80    3.74
   6  21   3   65.01    5.50
  -6 -21  -3   53.32    2.69
  -6  21  -3   56.14    5.73
  -6  21  -3   62.26    5.53
   7  21   3   10.85    3.13
  -7 -21  -3    5.95    1.56
  -7  21  -3    9.50    3.75
  -7  21  -3   16.55    3.95
   8  21   3  123.73    7.16
  -8 -21  -3  105.26    4.04
  -8  21  -3  115.58    7.62
  -8  21  -3  106.10    7.03
  -9 -21  -3   35.76    2.79
   9  21   3   38.10    4.46
  -9  21  -3   34.07    5.05
  -9  21  -3   38.77    5.11
  10  21   3    7.37    3.11
 -10 -21  -3    8.47    2.27
 -10  21  -3    5.48    3.56
 -10  21  -3    2.78    3.23
 -11 -21  -3    5.74    2.14
  11  21   3    4.78    2.89
 -11  21  -3    3.57    3.82
 -11  21  -3   12.73    4.00
  12  21   3   73.82    5.83
 -12 -21  -3   57.05    4.19
 -12  21  -3   62.27    6.69
 -12  21  -3   61.89    6.63
  13  21   3   17.04    3.65
 -13  21  -3   14.54    4.72
 -13  21  -3   16.86    4.70
 -13  22   3   86.73    9.85
 -12 -22   3  128.83    5.29
 -12  22   3  138.14   11.81
 -11  22   3  370.17   17.89
 -11 -22   3  310.88    7.18
  10  22  -3    2.98    2.69
 -10  22   3   -4.20    4.74
 -10 -22   3    0.33    1.55
 -10  22   3    1.52    3.03
  -9  22   3   56.86    8.17
  -9  22   3   50.79    5.30
   9  22  -3   55.28    5.36
  -9 -22   3   57.56    2.88
  -8  22   3  245.16   14.32
  -8  22   3  221.37    9.85
  -8 -22   3  264.31    5.20
   8  22  -3  262.41   11.17
  -7  22   3  198.11   12.88
  -7  22   3  186.21    9.00
  -7 -22   3  194.01    4.15
   7  22  -3  204.61   10.33
  -6  22   3    9.31    5.50
   6  22  -3    9.95    3.83
  -6 -22   3   11.52    1.29
  -6  22   3    7.31    3.18
  -5  22   3  335.55   16.62
   5  22  -3  318.09   13.37
  -5 -22   3  291.43    4.07
  -5  22   3  300.12   11.41
  -4  22   3    5.24    4.88
   4  22  -3    0.99    3.40
  -4 -22   3    4.23    0.83
  -4  22   3    3.75    3.15
   3  22  -3  105.62    8.21
  -3  22   3  100.45   10.04
  -3 -22   3  106.51    2.12
  -3  22   3  100.90    6.92
   2  22  -3   16.11    4.66
  -2 -22   3   11.41    0.85
   2 -22  -3   12.40    1.35
  -2  22   3    8.89    3.01
  -2 -22   3    9.96    1.98
   1  22  -3 1569.42   28.86
  -1 -22   3 1485.29    6.91
   1 -22  -3 1529.41   10.89
  -1  22   3 1372.76   23.81
  -1 -22   3 1369.65   14.41
   0  22   3    8.94    3.24
   0  22  -3    9.01    3.69
   0 -22   3    5.53    0.68
   0 -22  -3    4.84    1.16
  -1 -22  -3  418.94    5.81
   1  22   3  444.73   13.56
  -1  22  -3  414.68   14.62
  -2 -22  -3   19.55    1.96
  -2  22  -3   18.01    4.35
  -2  22  -3   13.32    3.54
   2  22   3   26.49    4.08
   3  22   3  165.60    8.52
  -3  22  -3  177.34    8.62
  -3 -22  -3  161.39    3.90
  -3  22  -3  169.92    9.17
  -4  22  -3  237.19    9.98
   4  22   3  264.35   10.44
  -4 -22  -3  232.00    4.74
  -4  22  -3  228.64   10.51
   5  22   3  740.99   17.16
  -5 -22  -3  704.82    8.39
  -5  22  -3  714.64   18.02
  -5  22  -3  693.70   16.99
   6  22   3   61.95    5.47
  -6 -22  -3   50.77    2.64
  -6  22  -3   50.41    5.46
  -6  22  -3   40.86    4.88
  -7 -22  -3  114.73    4.01
  -7  22  -3  110.92    7.74
   7  22   3  126.92    7.45
  -7  22  -3  108.74    7.26
  -8 -22  -3    9.26    1.96
   8  22   3   10.44    3.25
  -8  22  -3    7.78    3.60
  -8  22  -3    9.81    3.69
  -9 -22  -3   51.46    3.16
   9  22   3   54.08    5.26
  -9  22  -3   56.40    6.30
  -9  22  -3   53.14    5.93
  10  22   3    5.24    2.88
 -10  22  -3   -2.31    3.41
 -10  22  -3    2.14    3.34
 -10 -22  -3    5.05    2.10
  11  22   3  466.23   13.56
 -11 -22  -3  423.61    9.28
 -11  22  -3  421.52   15.21
 -11  22  -3  419.31   15.28
  12  22   3  235.43    9.87
 -12 -22  -3  222.79    7.29
 -12  22  -3  195.60   10.90
 -12  22  -3  222.50   11.62
  13  22   3   15.51    3.62
 -13  22  -3   22.02    5.51
 -13  22  -3   21.43    5.48
 -13  23   3   80.71   10.46
 -12  23   3  108.95   10.98
 -11  23   3    4.50    5.14
 -11 -23   3    0.75    1.72
  10  23  -3    2.77    2.81
 -10  23   3    0.63    5.13
 -10 -23   3    0.31    1.48
 -10  23   3    3.63    2.92
  -9  23   3   21.97    6.64
  -9 -23   3   21.42    2.14
  -9  23   3   13.81    3.63
   9  23  -3   23.70    4.34
  -8  23   3    2.64    4.62
  -8 -23   3    6.01    1.41
  -8  23   3    8.51    3.48
   8  23  -3   10.04    3.72
  -7  23   3  216.73   13.53
  -7  23   3  202.19    9.69
   7  23  -3  214.51   10.92
  -7 -23   3  214.43    4.40
  -6  23   3  300.88   16.59
  -6 -23   3  290.94    4.64
  -6  23   3  260.10   10.87
   6  23  -3  303.31   13.01
  -5  23   3   74.32    9.31
  -5 -23   3   73.07    2.21
  -5  23   3   63.91    6.05
   5  23  -3   90.01    7.52
  -4  23   3    1.25    5.24
  -4 -23   3    2.29    0.77
   4  23  -3    1.88    3.85
  -4  23   3   -0.30    3.08
  -3  23   3    8.13    5.52
  -3 -23   3   10.63    0.94
   3  23  -3   14.74    4.47
  -3  23   3    9.19    3.38
   2  23  -3    6.84    3.73
   2 -23  -3    2.88    1.17
  -2 -23   3    3.42    0.69
  -2  23   3    5.79    3.48
   1  23  -3  211.93   11.12
  -1 -23   3  212.73    2.75
   1 -23  -3  211.62    4.27
  -1  23   3  226.84   10.22
   0 -23   3  546.50    4.38
   0 -23  -3  532.48    6.53
   0  23   3  533.01   15.24
   0  23  -3  550.86   17.32
  -1  23  -3    9.58    4.17
   1  23   3   10.72    3.83
  -1 -23  -3    8.23    1.30
   1 -23   3    8.64    0.81
  -2  23  -3   57.64    5.77
  -2 -23  -3   54.40    2.39
   2  23   3   59.37    5.69
  -2  23  -3   58.13    6.38
   3  23   3   76.18    6.41
  -3  23  -3   72.43    6.39
  -3 -23  -3   64.90    2.62
  -3  23  -3   64.70    6.41
  -4  23  -3  339.03   12.24
   4  23   3  339.60   12.29
  -4 -23  -3  310.60    5.51
  -4  23  -3  329.00   13.04
  -5  23  -3    7.13    3.49
   5  23   3    4.04    2.91
  -5 -23  -3    6.05    1.49
  -5  23  -3    2.84    3.52
   6  23   3  219.60    9.95
  -6 -23  -3  192.32    4.85
  -6  23  -3  193.79   10.25
  -6  23  -3  195.48    9.64
  -7 -23  -3  111.60    3.98
  -7  23  -3  114.50    8.18
   7  23   3  103.70    6.96
  -7  23  -3  112.17    7.59
  -8 -23  -3    3.89    1.74
   8  23   3    5.82    3.16
  -8  23  -3    4.16    3.70
  -8  23  -3    1.76    3.25
   9  23   3    2.58    2.80
  -9 -23  -3    3.44    1.83
  -9  23  -3   11.67    4.67
  -9  23  -3    4.71    3.76
 -10 -23  -3  363.12    8.17
  10  23   3  375.76   12.47
 -10  23  -3  354.46   14.41
 -10  23  -3  357.50   14.39
 -11 -23  -3   82.78    4.49
 -11  23  -3   72.02    7.38
 -11  23  -3   92.32    8.03
  11  23   3   87.76    6.53
 -12 -23  -3   21.48    3.18
  12  23   3   22.46    4.17
 -12  23  -3   19.36    5.45
 -12  23  -3   26.27    5.47
  13  23   3   50.18    5.25
 -13  23  -3   41.64    6.66
 -13  23  -3   37.89    6.28
 -13  24   3    5.91    5.99
 -12  24   3   53.02    8.87
 -11  24   3   31.49    7.93
 -10  24   3   70.98    9.39
 -10  24   3   73.17    6.35
 -10 -24   3   75.74    3.61
  10  24  -3   69.96    6.25
  -9  24   3  189.66   13.63
   9  24  -3  185.67    9.63
  -9  24   3  181.03    9.45
  -9 -24   3  169.04    4.75
  -8  24   3   11.91    5.65
  -8 -24   3    6.40    1.42
  -8  24   3    5.90    3.53
   8  24  -3   14.73    4.22
  -7  24   3   16.90    6.10
  -7 -24   3   22.16    1.75
   7  24  -3   19.00    4.44
  -7  24   3   24.28    4.46
  -6  24   3   38.67    7.54
   6  24  -3   33.99    5.24
  -6  24   3   35.02    4.95
  -6 -24   3   38.07    1.89
  -5  24   3  249.55   15.25
   5  24  -3  280.83   13.10
  -5 -24   3  249.57    3.95
  -5  24   3  225.15   10.46
  -4  24   3  311.42   16.91
   4  24  -3  309.37   13.56
  -4 -24   3  294.58    3.99
  -4  24   3  285.65   11.60
   3  24  -3   88.73    8.24
  -3  24   3  108.19   10.86
  -3 -24   3   91.69    2.09
  -3  24   3   96.61    7.12
   2  24  -3  142.18    9.70
  -2 -24   3  132.85    2.38
   2 -24  -3  131.89    3.43
  -2  24   3  119.29    7.76
   1  24  -3   67.38    7.18
  -1 -24   3   61.87    1.62
   1 -24  -3   63.54    2.53
  -1  24   3   52.88    5.58
   0  24   3    4.13    3.06
   0 -24   3    4.08    0.71
   0  24  -3    0.12    3.75
   0 -24  -3    4.90    1.26
  -1 -24  -3   81.76    2.82
   1 -24   3   84.09    1.93
   1  24   3   74.71    6.21
  -1  24  -3   86.83    7.66
  -2  24  -3    3.93    3.46
   2  24   3    4.51    3.00
  -2  24  -3    7.61    3.89
  -2 -24  -3    2.64    1.26
  -3  24  -3  224.19   10.66
  -3 -24  -3  238.40    4.82
  -3  24  -3  245.48   12.06
   3  24   3  246.54   10.86
  -4  24  -3   86.95    6.97
   4  24   3   93.68    7.02
  -4 -24  -3   87.59    3.15
  -4  24  -3   84.36    7.41
  -5  24  -3   69.70    6.62
   5  24   3   81.18    6.55
  -5 -24  -3   75.16    3.10
  -5  24  -3   77.53    7.15
  -6  24  -3   12.40    4.22
  -6 -24  -3    7.96    1.64
   6  24   3   14.19    3.85
  -6  24  -3   10.97    4.08
  -7 -24  -3   96.12    3.79
   7  24   3   99.44    7.19
  -7  24  -3  101.42    8.14
  -7  24  -3  108.69    7.96
  -8  24  -3   -1.30    3.48
  -8 -24  -3    3.85    1.82
   8  24   3    5.32    3.15
  -8  24  -3    1.99    3.75
  -9 -24  -3  166.19    5.40
   9  24   3  165.86    8.72
  -9  24  -3  152.90    9.86
  -9  24  -3  152.56    9.46
 -10 -24  -3   33.53    3.00
  10  24   3   37.98    4.84
 -10  24  -3   26.31    5.38
 -10  24  -3   26.36    5.07
  11  24   3   18.68    3.89
 -11 -24  -3   12.72    2.54
 -11  24  -3   18.67    5.31
 -11  24  -3   11.03    4.93
  12  24   3    6.17    3.48
 -12  24  -3    5.50    4.85
 -12  24  -3   -2.47    4.45
 -13  24  -3    5.16    4.89
  13  24   3    5.39    2.95
 -13  24  -3    4.39    4.82
 -12  25   3   43.08    8.79
 -11  25   3    5.84    5.83
  10  25  -3    5.60    3.29
 -10  25   3    0.57    5.09
 -10  25   3   -4.03    3.32
  -9  25   3  109.30   11.11
  -9  25   3  100.26    7.36
   9  25  -3  105.26    7.81
  -8  25   3    0.93    5.28
  -8 -25   3    2.77    1.33
  -8  25   3    3.64    3.32
   8  25  -3    2.06    3.28
  -7  25   3  207.14   14.64
   7  25  -3  216.60   11.24
  -7 -25   3  212.93    4.53
  -7  25   3  193.07   10.10
  -6  25   3  285.06   16.67
   6  25  -3  325.06   13.84
  -6 -25   3  281.24    4.66
  -6  25   3  278.19   11.89
  -5  25   3   11.79    5.61
   5  25  -3    1.99    3.81
  -5 -25   3    5.78    1.06
  -5  25   3    7.26    3.51
  -4  25   3    6.83    5.28
   4  25  -3   -1.12    3.87
  -4 -25   3    4.15    0.88
  -4  25   3    2.20    3.14
   3  25  -3   70.94    7.73
  -3  25   3   59.81    7.92
  -3 -25   3   62.57    1.82
  -3  25   3   63.02    6.18
   2 -25  -3  338.17    5.52
  -2 -25   3  314.23    3.70
  -2  25   3  298.36   12.20
   1  25  -3  123.02    9.34
   1 -25  -3  129.89    3.48
  -1 -25   3  127.15    2.33
  -1  25   3  135.44    8.46
   0  25  -3  223.97   12.02
   0 -25   3  220.83    3.07
   0 -25  -3  221.30    4.48
   0  25   3  213.93   10.21
  -1  25  -3   49.39    6.54
   1 -25   3   52.49    1.65
  -1 -25  -3   50.69    2.41
   1  25   3   49.60    5.52
  -2  25  -3   39.98    5.55
  -2 -25  -3   46.95    2.30
   2  25   3   48.77    5.49
  -2  25  -3   49.31    6.48
  -3  25  -3   10.27    4.29
  -3  25  -3    9.49    4.11
  -3 -25  -3   10.40    1.56
   3  25   3   15.55    4.02
  -4  25  -3  309.86   12.62
   4  25   3  326.22   12.60
  -4 -25  -3  311.30    5.69
  -4  25  -3  330.98   14.05
  -5  25  -3   12.32    4.73
  -5  25  -3    4.48    3.46
   5  25   3    7.29    3.40
  -5 -25  -3    7.81    1.60
  -6  25  -3  144.49    9.23
   6  25   3  173.18    9.15
  -6 -25  -3  159.22    4.51
  -6  25  -3  147.03    9.98
   7  25   3  175.75    9.41
  -7 -25  -3  157.86    4.78
  -7  25  -3  157.78   10.25
  -7  25  -3  150.74    9.74
  -8  25  -3    5.90    4.31
  -8  25  -3    4.05    3.71
  -8 -25  -3   12.57    2.17
   8  25   3   10.38    3.63
  -9  25  -3   12.65    4.85
   9  25   3   19.64    4.37
  -9 -25  -3   11.80    2.30
 -10 -25  -3   74.46    4.08
  10  25   3   87.46    6.87
 -10  25  -3   70.89    7.95
 -10  25  -3   71.32    7.57
 -11  25  -3    9.92    4.51
 -11 -25  -3    9.29    2.43
  11  25   3   12.90    3.89
 -11  25  -3    5.90    4.76
 -12  25  -3   17.32    5.81
  12  25   3   22.67    4.45
 -12  25  -3   15.57    5.29
 -12  26   3   13.71    7.25
 -11  26   3   10.53    6.72
 -10  26   3  293.76   17.34
 -10  26   3  253.41   11.59
  10  26  -3  281.04   11.89
  -9  26   3  363.74   18.86
  -9  26   3  326.72   13.07
   9  26  -3  317.62   13.25
  -8  26   3   54.73    9.07
  -8  26   3   44.93    5.78
   8  26  -3   55.53    6.40
  -7  26   3   18.71    6.79
   7  26  -3    8.36    4.39
  -7  26   3   12.07    3.80
  -6  26   3   25.31    7.42
  -6 -26   3   15.08    1.46
   6  26  -3   16.30    5.11
  -6  26   3   12.72    3.88
  -5  26   3    3.99    5.60
   5  26  -3    6.26    4.49
  -5 -26   3    0.61    0.88
  -5  26   3    1.90    3.22
   4  26  -3  144.42   10.19
  -4  26   3  138.28   12.51
  -4 -26   3  126.77    2.79
  -4  26   3  127.12    8.52
   3  26  -3  376.78   15.94
  -3 -26   3  330.67    4.06
  -3  26   3  331.75   13.12
   2  26  -3   16.60    5.26
  -2 -26   3   22.96    1.22
  -2  26   3   26.73    4.79
   2 -26  -3   20.85    1.85
   1  26  -3  116.46    9.45
   1 -26  -3  110.67    3.38
  -1  26   3   92.26    7.24
  -1 -26   3  107.80    2.26
   0  26  -3  328.00   14.81
   0 -26  -3  302.94    5.31
   0 -26   3  289.98    3.60
   0  26   3  264.40   11.61
  -1  26  -3  134.95    9.96
   1 -26   3  137.72    2.56
  -1 -26  -3  137.90    3.73
   1  26   3  128.54    8.35
  -2 -26  -3   73.40    2.85
   2  26   3   72.34    6.62
  -2  26  -3   68.03    7.61
  -3  26  -3  336.07   13.83
  -3 -26  -3  353.06    6.09
  -3  26  -3  334.61   15.03
   3  26   3  355.76   13.41
   4  26   3  107.39    7.81
  -4  26  -3   98.63    8.53
  -4 -26  -3   99.19    3.55
  -4  26  -3   86.82    8.39
  -5  26  -3    8.48    4.18
  -5  26  -3   16.26    4.49
  -5 -26  -3   10.32    1.72
   5  26   3   10.34    3.86
  -6  26  -3   80.39    7.85
  -6 -26  -3   74.61    3.36
   6  26   3   66.18    6.33
  -6  26  -3   78.31    7.91
  -7  26  -3  236.23   11.82
   7  26   3  245.76   11.26
  -7 -26  -3  234.42    5.79
  -7  26  -3  254.99   13.26
  -8  26  -3   11.51    4.67
  -8  26  -3    8.04    4.74
  -8 -26  -3   13.95    2.19
   8  26   3   12.08    4.06
  -9 -26  -3  160.82    5.48
  -9  26  -3  132.92   10.11
  -9  26  -3  134.36    9.77
 -10 -26  -3   88.74    4.46
  10  26   3  102.65    7.51
 -10  26  -3   82.00    8.81
 -10  26  -3   71.12    7.86
 -11  26  -3    2.30    4.76
 -11  26  -3    6.11    4.94
  11  26   3    0.41    3.07
 -11 -26  -3    1.80    2.29
 -12  26  -3    1.64    5.12
  12  26   3    5.34    3.41
 -11  27   3  166.28   14.67
 -10  27   3   93.02   11.08
  10  27  -3   92.35    7.44
  -9  27   3  101.24   11.26
  -9  27   3   87.38    7.49
   9  27  -3   80.37    7.54
  -8  27   3  267.25   17.67
  -8  27   3  253.25   11.96
   8  27  -3  234.49   12.11
  -7  27   3   65.45    9.65
   7  27  -3   58.28    6.76
  -7  27   3   61.44    6.51
  -6  27   3    9.38    5.94
   6  27  -3   18.79    4.80
  -6  27   3   15.91    3.95
  -5  27   3  145.72   13.30
  -5  27   3  129.55    8.71
   5  27  -3  149.06   10.58
  -4  27   3  275.57   16.94
  -4 -27   3  244.57    3.89
  -4  27   3  246.26   11.57
   4  27  -3  297.19   14.48
   3  27  -3   14.30    4.92
  -3 -27   3   12.63    1.09
   3 -27  -3   13.76    1.64
  -3  27   3   13.05    3.96
   2  27  -3  344.30   15.70
  -2 -27   3  333.24    4.07
  -2  27   3  345.39   13.54
   2 -27  -3  353.46    5.97
   1  27  -3   45.22    6.81
   1 -27  -3   47.44    2.47
  -1 -27   3   44.24    1.59
  -1  27   3   52.38    6.07
   0  27  -3   40.87    6.57
   0 -27  -3   42.63    2.35
   0 -27   3   46.08    1.61
   0  27   3   50.37    5.91
  -1  27  -3  185.04   11.89
   1 -27   3  196.99    3.17
  -1 -27  -3  180.17    4.26
   1  27   3  184.26   10.02
  -2  27  -3  629.23   20.72
  -2 -27  -3  606.90    7.80
   2 -27   3  608.36    5.60
   2  27   3  583.26   17.42
  -3  27  -3   80.68    7.83
  -3 -27  -3   82.17    3.12
   3  27   3   79.59    7.25
  -3  27  -3   92.74    9.04
   4  27   3  188.54   10.28
  -4  27  -3  164.96   10.35
  -4 -27  -3  175.92    4.60
  -4  27  -3  168.32   11.33
  -5  27  -3   31.68    5.75
   5  27   3   40.61    5.26
  -5  27  -3   30.60    5.42
  -5 -27  -3   38.24    2.59
  -6  27  -3   23.78    5.76
  -6  27  -3   24.00    5.15
  -6 -27  -3   20.48    2.16
   6  27   3   23.64    4.82
  -7  27  -3   11.02    5.10
  -7  27  -3    9.63    4.25
  -7 -27  -3   11.35    2.00
   7  27   3   17.93    4.35
  -8  27  -3  191.10   11.33
   8  27   3  215.37   10.92
  -8 -27  -3  187.05    5.66
  -8  27  -3  208.12   12.66
   9  27   3  147.77    9.06
  -9 -27  -3  150.00    5.44
  -9  27  -3  151.05   11.18
 -10  27  -3    3.00    4.85
  10  27   3   -0.64    3.32
 -10 -27  -3    5.15    2.31
 -11  27  -3   24.40    6.42
  11  27   3   32.01    5.00
 -12  27  -3    0.79    5.20
 -11  28   3   33.36    8.42
  10  28  -3    2.24    3.65
 -10  28   3   -1.14    6.23
  -9  28   3   10.20    6.28
  -9  28   3    5.03    3.64
   9  28  -3    3.35    3.68
  -8  28   3   56.48    9.65
  -8  28   3   64.68    6.83
   8  28  -3   80.75    7.82
  -7  28   3  118.23   12.60
   7  28  -3  124.57    9.21
  -7  28   3  119.78    8.73
  -6  28   3   28.81    7.76
   6  28  -3   38.57    6.23
  -6  28   3   31.71    5.31
   5  28  -3   -2.45    4.70
  -5  28   3    4.26    5.84
  -5  28   3    5.59    3.91
  -4  28   3    6.02    5.83
   4  28  -3    1.16    4.36
  -4  28   3    6.38    3.77
   3  28  -3   77.34    8.25
   3 -28  -3   79.14    3.04
  -3  28   3   74.86    7.22
   2 -28  -3   79.85    3.06
  -2  28   3   66.25    6.68
   1  28  -3  285.23   14.81
   1 -28  -3  272.74    5.30
  -1 -28   3  246.64    3.56
  -1  28   3  248.92   11.79
   0  28   3    2.70    3.47
   0  28  -3    9.67    4.82
   0 -28  -3    4.79    1.41
   0 -28   3    4.00    0.85
  -1  28  -3  146.28   10.96
  -1 -28  -3  146.50    3.98
   1 -28   3  153.68    2.88
   1  28   3  151.35    9.41
  -2  28  -3   61.97    8.42
  -2 -28  -3   46.82    2.56
   2 -28   3   40.35    1.69
   2  28   3   46.01    6.43
  -3  28  -3   52.94    7.46
  -3 -28  -3   52.85    2.69
   3  28   3   54.80    6.22
  -4  28  -3    9.49    5.15
   4  28   3    2.80    3.66
  -4 -28  -3    3.85    1.49
   5  28   3   36.28    5.49
  -5 -28  -3   33.50    2.47
  -5  28  -3   36.81    6.79
  -6  28  -3    0.35    4.45
   6  28   3    4.89    3.80
  -6 -28  -3   -0.10    1.52
  -7  28  -3    6.74    5.04
  -7 -28  -3   12.01    2.03
   7  28   3   16.88    4.39
  -8 -28  -3    4.29    1.91
   8  28   3    6.15    3.79
  -9  28  -3   10.03    5.77
  -9 -28  -3   10.04    2.39
   9  28   3    6.37    3.55
 -10  28  -3    2.08    4.72
  10  28   3    5.08    3.71
 -10 -28  -3    3.60    2.09
 -11  28  -3   67.78    8.72
 -10  29   3  134.20   13.59
  10  29  -3  168.90   10.22
  -9  29   3   60.64   10.38
  -9  29   3   56.44    6.83
   9  29  -3   52.83    6.68
  -8  29   3  191.79   15.51
   8  29  -3  193.14   11.60
  -8  29   3  176.69   10.65
  -7  29   3    7.37    6.74
   7  29  -3    6.47    4.55
  -7  29   3    3.56    3.66
  -6  29   3   15.47    6.69
   6  29  -3   14.57    5.16
  -6  29   3   10.58    4.12
   5  29  -3  193.90   12.16
  -5  29   3  192.02   15.13
  -5  29   3  185.59   10.68
   4  29  -3  235.21   13.57
  -4  29   3  210.47   11.41
   3 -29  -3  190.08    4.57
   3  29  -3  193.52   12.69
  -3  29   3  188.10   10.68
   2  29  -3  174.76   12.03
   2 -29  -3  160.83    4.18
  -2  29   3  147.66    9.47
   1  29  -3   79.88    8.83
   1 -29  -3   65.24    2.87
  -1  29   3   75.25    7.29
   0  29  -3  106.89   10.16
   0 -29  -3  100.17    3.40
   0  29   3   94.28    7.79
  -1  29  -3  124.74   10.35
  -1 -29  -3  109.93    3.63
   1  29   3   98.42    7.93
  -2  29  -3  481.78   19.18
  -2 -29  -3  455.59    7.08
   2  29   3  434.24   15.67
  -3  29  -3   11.50    5.62
   3  29   3    9.62    4.06
  -3 -29  -3   11.70    1.72
  -4  29  -3  143.86   11.24
   4  29   3  133.85    9.15
  -4 -29  -3  140.70    4.32
   5  29   3   36.43    5.75
  -5  29  -3   31.02    6.58
  -5 -29  -3   40.68    2.73
   6  29   3   87.22    7.76
  -6 -29  -3   79.50    3.63
  -6  29  -3   86.26    9.20
  -7  29  -3   15.70    5.78
  -7 -29  -3   17.03    2.31
   7  29   3   17.21    4.62
   8  29   3  108.73    8.39
  -8 -29  -3   95.29    4.30
  -8  29  -3  109.52   10.30
  -9 -29  -3   62.26    3.88
   9  29   3   65.00    6.88
  -9  29  -3   58.99    8.63
 -10  29  -3   31.85    7.09
  10  29   3   33.50    5.34
 -10  30   3   62.24   11.29
  -9  30   3   14.20    7.45
  -9  30   3   17.34    4.81
   9  30  -3   20.49    5.16
  -8  30   3   99.17   12.40
  -8  30   3   90.91    8.15
   8  30  -3  110.56    9.24
  -7  30   3  134.73   14.12
   7  30  -3  131.14   10.39
  -7  30   3  115.78    9.06
  -6  30   3    5.16    6.85
   6  30  -3    5.31    4.64
  -6  30   3    5.58    4.08
  -5  30   3   19.82    7.21
   5  30  -3    7.43    4.87
  -5  30   3    5.28    3.70
   4 -30  -3   39.94    2.45
   4  30  -3   37.24    6.73
  -4  30   3   48.82    6.46
   3 -30  -3   16.00    1.95
   3  30  -3    9.24    4.81
  -3  30   3    3.79    4.00
   2  30  -3  296.30   15.58
   2 -30  -3  276.56    5.44
  -2  30   3  265.23   12.87
   1  30  -3  246.37   14.59
   1 -30  -3  243.76    5.15
  -1  30   3  231.60   11.97
   0  30  -3  247.96   14.43
   0 -30  -3  241.21    5.15
   0  30   3  242.12   12.27
  -1  30  -3   27.36    6.45
  -1 -30  -3   26.49    2.17
   1  30   3   30.48    5.58
  -2  30  -3   44.16    7.77
  -2 -30  -3   37.65    2.51
   2  30   3   57.28    7.08
  -3  30  -3    5.69    5.39
   3  30   3    7.21    3.80
  -3 -30  -3    5.03    1.63
  -4  30  -3   20.00    6.21
   4  30   3   19.69    4.92
  -4 -30  -3   19.33    2.19
  -5  30  -3  148.99   12.03
   5  30   3  127.78    8.99
  -5 -30  -3  145.44    4.55
  -6  30  -3   22.56    6.91
  -6 -30  -3   21.16    2.35
   6  30   3   24.03    5.06
  -7  30  -3    5.01    5.38
  -7 -30  -3   -1.10    1.81
   7  30   3    3.33    3.84
  -8  30  -3    0.94    5.13
  -8 -30  -3    2.28    1.94
   8  30   3    5.48    4.25
  -9  30  -3   19.52    6.54
  -9 -30  -3    9.79    2.44
   9  30   3    8.95    4.24
  -9  31   3   46.37   10.09
  -9  31   3   40.74    6.12
   9  31  -3   53.25    7.35
  -8  31   3    4.21    7.01
  -8  31   3    4.52    4.15
   8  31  -3   18.92    4.96
  -7  31   3  369.34   21.72
   7  31  -3  354.24   16.02
  -7  31   3  361.50   15.27
  -6  31   3  295.45   19.71
  -6  31   3  279.72   13.43
   6  31  -3  282.33   14.57
  -5  31   3   15.81    7.56
   5  31  -3    5.91    4.51
  -5  31   3   13.18    4.63
   4  31  -3    8.99    5.27
   4 -31  -3    3.32    1.53
  -4  31   3    1.05    3.88
   3 -31  -3   63.34    3.05
   3  31  -3   69.06    8.59
  -3  31   3   57.77    7.00
   2 -31  -3  218.67    5.08
   2  31  -3  252.69   14.52
  -2  31   3  219.80   12.17
   1  31  -3   75.42    9.07
   1 -31  -3   67.28    3.00
  -1  31   3   69.70    7.39
   0  31  -3  787.46   25.88
   0 -31  -3  785.88    9.30
   0  31   3  786.32   21.95
  -1  31  -3   59.38    8.41
  -1 -31  -3   56.12    2.87
   1  31   3   57.40    6.71
   2  31   3   25.28    5.41
  -2  31  -3   33.57    7.15
  -2 -31  -3   18.95    2.06
  -3  31  -3   83.13    9.54
  -3 -31  -3   73.30    3.33
   3  31   3   54.40    6.88
   4  31   3  270.02   13.25
  -4  31  -3  299.31   16.42
  -4 -31  -3  304.12    6.45
  -5  31  -3    1.84    5.56
   5  31   3    0.32    4.22
  -5 -31  -3    1.41    1.67
  -6  31  -3  203.35   14.39
   6  31   3  212.21   11.61
  -6 -31  -3  207.07    5.69
  -7  31  -3   15.41    5.89
  -7 -31  -3   15.16    2.41
   7  31   3   19.10    4.86
  -8  31  -3   23.76    6.94
  -8 -31  -3   16.98    2.65
   8  31   3   18.63    4.91
  -9  31  -3   13.88    6.77
  -9  32   3    9.13    8.79
  -9  32   3   10.34    4.90
   9  32  -3    3.08    4.63
  -8  32   3    5.97    7.04
  -8  32   3   -2.58    4.09
   8  32  -3    0.92    4.31
  -7  32   3    1.05    7.60
   7  32  -3    8.53    4.58
  -7  32   3    7.35    4.74
  -6  32   3   -0.53    7.57
   6  32  -3    4.21    4.75
  -6  32   3   -2.71    4.78
   5  32  -3   16.91    5.50
  -5  32   3   28.97    6.01
   4  32  -3    0.67    5.24
   4 -32  -3   -1.35    1.57
  -4  32   3    4.08    4.33
   3  32  -3    7.33    5.48
   3 -32  -3    7.76    1.79
  -3  32   3    3.14    3.84
   2 -32  -3   -1.09    1.50
   2  32  -3   -4.45    5.04
  -2  32   3   -3.64    4.26
   1 -32  -3    8.74    1.79
   1  32  -3   11.97    6.18
  -1  32   3    8.54    4.64
   0  32  -3   47.05    8.63
   0 -32  -3   28.29    2.35
   0  32   3   33.94    6.80
   1  32   3    3.33    3.98
  -1  32  -3    2.26    5.06
  -1 -32  -3    3.44    1.55
   2  32   3    0.29    4.13
  -2 -32  -3    1.69    1.52
  -2  32  -3    8.19    5.86
   3  32   3    7.85    4.32
  -3  32  -3   17.98    6.47
  -3 -32  -3    9.32    1.94
  -4  32  -3    7.27    5.65
   4  32   3   13.79    5.07
  -4 -32  -3    7.72    1.86
  -5  32  -3    9.41    5.77
   5  32   3   15.98    4.98
  -5 -32  -3   11.39    2.12
  -6  32  -3    0.93    5.14
  -6 -32  -3   -0.48    1.86
   6  32   3    3.05    3.95
  -7  32  -3    6.39    6.30
  -7 -32  -3    3.03    2.02
   7  32   3    5.02    4.11
  -8  32  -3   -3.86    5.86
  -8 -32  -3    3.67    2.05
   9  33  -3   20.94    5.54
  -8  33   3   20.21    8.96
  -8  33   3   24.53    5.98
   8  33  -3   20.75    5.92
  -7  33   3  170.81   16.37
   7  33  -3  179.49   12.35
  -7  33   3  168.32   11.26
  -6  33   3  174.35   16.42
   6  33  -3  160.43   11.90
  -6  33   3  154.57   10.73
   5 -33  -3    1.29    1.56
   5  33  -3    6.84    5.54
  -5  33   3    5.86    4.67
   4 -33  -3   82.42    3.45
   4  33  -3   92.52    9.89
  -4  33   3   97.18    9.10
   3 -33  -3   10.07    1.90
  -3  33   3    9.19    4.59
   2 -33  -3   24.05    2.22
   2  33  -3   35.12    7.23
  -2  33   3   23.97    5.64
  -1  33   3    5.54    4.41
   1  33  -3   11.88    6.12
   1 -33  -3    7.19    1.72
   0  33  -3  411.42   20.00
   0 -33  -3  404.56    7.05
   0  33   3  384.31   16.22
   1  33   3    6.50    4.09
  -1  33  -3    8.87    5.51
  -1 -33  -3   11.08    1.91
  -2  33  -3   63.62    9.24
  -2 -33  -3   50.17    2.95
   2  33   3   52.63    6.93
  -3  33  -3    4.95    5.78
   3  33   3    0.72    4.11
  -3 -33  -3    2.04    1.62
   4  33   3   40.39    6.26
  -4  33  -3   54.54    8.88
  -4 -33  -3   53.14    3.17
  -5  33  -3    6.85    6.32
  -5 -33  -3    1.01    1.82
   5  33   3   -0.02    3.89
  -6  33  -3   76.60   10.07
   6  33   3   71.51    7.79
  -6 -33  -3   78.46    3.91
  -7  33  -3   38.24    8.57
  -7 -33  -3   32.27    2.98
   9  34  -3   45.38    7.51
  -8  34   3   42.84    7.24
   8  34  -3   45.78    7.37
   7  34  -3    3.40    4.83
  -7  34   3   -2.85    4.72
   6  34  -3   15.86    5.95
  -6  34   3   36.17    6.73
   5 -34  -3   -0.15    1.63
   5  34  -3   -0.59    5.50
  -5  34   3    1.96    4.57
   4 -34  -3   69.22    3.35
   4  34  -3   75.35    9.34
  -4  34   3   67.58    8.19
   3  34  -3   78.59    9.52
   3 -34  -3   73.16    3.36
  -3  34   3   73.67    8.42
   2 -34  -3   59.29    3.03
   2  34  -3   65.52    9.36
  -2  34   3   65.50    7.90
  -1  34   3   19.67    5.57
   1 -34  -3   22.10    2.23
   1  34  -3   27.67    6.97
   0  34   3   15.32    5.33
   0 -34  -3    7.44    1.80
   1  34   3   27.80    5.83
  -1  34  -3   27.07    7.35
  -1 -34  -3   15.93    2.07
   2  34   3   22.50    5.35
  -2  34  -3   25.06    7.26
  -2 -34  -3   21.08    2.26
  -3  34  -3   99.44   11.12
  -3 -34  -3  106.51    4.12
   3  34   3  120.73    9.85
   4  34   3   82.18    8.15
  -4  34  -3   54.83    9.16
  -4 -34  -3   69.69    3.54
  -5 -34  -3   23.96    2.59
  -5  34  -3   22.32    7.08
   5  34   3   26.04    5.90
  -6 -34  -3   23.59    2.65
  -8  35   3   78.24    8.71
   8  35  -3   77.41    8.96
   7  35  -3   14.35    6.03
  -7  35   3   15.30    5.15
   6  35  -3    4.09    5.13
   6 -35  -3   10.90    2.09
  -6  35   3    8.12    5.16
   5 -35  -3  124.47    4.36
   5  35  -3  117.77   10.92
  -5  35   3  113.82   10.15
   4 -35  -3  199.71    5.35
   4  35  -3  211.21   14.36
  -4  35   3  194.96   12.50
   3  35  -3   26.83    7.10
   3 -35  -3   16.51    2.20
  -3  35   3   24.93    5.81
   2 -35  -3   93.43    3.77
   2  35  -3   93.72   10.33
  -2  35   3  108.83    9.68
  -1  35   3   -0.93    4.40
   1 -35  -3    1.93    1.65
   1  35  -3   -4.35    5.33
   0  35   3   22.41    5.88
   0 -35  -3   24.66    2.44
   0  35  -3   30.04    7.36
  -1  35  -3   40.73    8.92
  -1 -35  -3   34.67    2.65
   1  35   3   33.05    6.61
  -2 -35  -3  220.02    5.72
  -2  35  -3  217.54   15.26
   2  35   3  215.53   12.84
  -3 -35  -3   31.71    2.70
  -3  35  -3   23.96    7.62
   3  35   3   37.53    6.73
  -4  35  -3   59.02    9.52
  -4 -35  -3   59.17    3.49
  -5 -35  -3    3.25    1.97
  -7  36   3    6.22    5.09
   6  36  -3    5.87    5.28
  -6  36   3   -0.76    5.00
   5 -36  -3   44.19    3.07
   5  36  -3   39.39    7.51
  -5  36   3   46.30    7.38
   4 -36  -3   14.20    2.27
   4  36  -3    2.11    5.60
  -4  36   3   -0.66    4.66
   3 -36  -3   73.48    3.52
   3  36  -3   68.12    9.45
  -3  36   3   73.78    8.71
  -2  36   3   12.03    5.44
   2 -36  -3   13.13    2.08
  -1  36   3   -2.14    4.75
   1 -36  -3    1.78    1.68
   1  36  -3    1.99    6.16
   0  36   3    9.82    4.87
   0 -36  -3    3.72    1.74
   0  36  -3    5.93    6.37
  -1  36  -3   47.65    8.63
  -1 -36  -3   46.60    2.98
   1  36   3   49.91    7.30
   2  36   3   10.05    5.76
  -2 -36  -3    1.30    1.78
  -3 -36  -3    2.45    1.85
  -4 -36  -3    4.16    2.01
   4 -37  -3  119.42    4.37
  -4  37   3  111.11   10.24
   3 -37  -3   42.13    2.93
  -3  37   3   41.14    6.97
   2 -37  -3  144.27    4.72
  -2  37   3  128.82   10.82
   1 -37  -3    1.72    1.80
   0 -37  -3   12.52    2.14
  -1 -37  -3   39.49    2.94
  -2 -37  -3   89.86    3.96
  -3 -37  -3    0.20    1.85
   0 -38  -3    3.67    1.91
 -17   0   4  217.35   11.52
 -16   0   4   86.64    7.28
 -15   0   4   57.33    5.97
 -14   0   4   32.38    4.58
 -13   0   4   73.35    5.62
 -12   0   4  859.07   16.78
 -11   0   4 2041.78   24.95
 -10   0   4   71.45    4.95
  -9   0   4  319.92    9.24
  -8   0   4   27.54    3.05
  -7   0   4    7.65    2.16
   6   0  -4  217.04    2.92
   6   0  -4  209.49    3.46
  -6   0   4  236.65    7.13
   5   0  -4 2822.87   10.10
   5   0  -4 2735.37   16.97
  -5   0   4 2752.10   23.75
  -4   0   4  356.94    8.81
   4   0  -4  360.39    3.73
   4   0  -4  350.49    5.12
   4   0  -4  373.89    6.46
   3   0  -4  730.86    7.79
  -3   0   4  699.32   12.82
   3   0  -4  730.24    5.53
   3   0  -4  714.06    9.41
   2   0  -4   29.91    1.91
  -2   0   4   27.92    3.25
   2   0  -4   29.00    1.33
   2   0  -4   28.85    2.55
   1   0  -4  703.29   11.88
   1   0  -4  667.82    8.42
   1   0  -4  707.77    5.98
   1   0  -4  687.02    4.08
   0   0  -4  515.37   11.72
   0   0  -4  575.32    5.70
   0   0  -4  566.32    3.94
   0   0  -4  490.05    7.63
  -1   0  -4 3668.69   14.94
   1   0   4 3828.94   10.16
  -2   0  -4  238.13    4.13
  -2   0  -4  248.99    3.23
   2   0   4  246.58    2.83
  -3   0  -4   65.60    1.91
  -3   0  -4   65.51    2.34
  -4   0  -4   60.28    2.37
  -4   0  -4   58.04    2.06
  -5   0  -4 1132.28    9.42
  -5   0  -4 1163.48   10.08
  -6   0  -4   15.27    1.54
  -6   0  -4   15.26    1.60
  -7   0  -4 1291.78   11.90
  -7   0  -4 1303.79   11.40
  -8   0  -4 1905.98   14.69
  -8   0  -4 1947.89   16.06
  -9   0  -4   82.33    3.38
  -9   0  -4   79.84    3.69
 -10   0  -4    6.18    1.88
 -10   0  -4    7.20    2.00
 -11   0  -4  175.41    6.21
 -11   0  -4  166.19    5.03
 -12   0  -4  450.85    8.51
 -12   0  -4  464.67   10.50
 -13   0  -4    7.65    2.15
 -13   0  -4    6.24    2.69
 -14   0  -4  207.64    8.27
 -14   0  -4  193.76    6.48
 -15   0  -4   38.33    3.58
 -15   0  -4   45.33    4.84
 -17  -1   4  478.19   16.48
 -17   1   4  490.52   17.15
 -16  -1   4  230.25   10.89
 -16   1   4  221.81   10.96
 -15  -1   4    8.00    3.72
 -15   1   4    5.56    3.29
 -14  -1   4   57.79    5.65
 -14   1   4   57.45    5.76
 -13  -1   4    2.64    2.93
 -13   1   4   -0.96    2.76
 -12  -1   4    9.91    2.93
 -12   1   4   11.37    3.20
 -11  -1   4  225.40    8.24
 -11   1   4  230.46    8.82
 -10  -1   4  445.70   10.94
 -10   1   4  453.40   11.57
  -9  -1   4  795.03   14.06
  -9   1   4  780.68   14.58
  -8  -1   4  495.72   10.50
  -8   1   4  526.61   11.35
  -7  -1   4  304.66    7.93
  -7   1   4  319.75    8.59
   6   1  -4   34.73    1.38
   6  -1  -4   20.30    0.84
   6  -1  -4   15.56    1.23
   6   1  -4   23.22    1.77
   6   1  -4   24.46    1.22
  -6  -1   4   27.50    2.67
  -6   1   4   17.27    2.76
   5  -1  -4   13.76    1.37
   5  -1  -4   25.95    1.23
   5   1  -4   22.50    1.39
   5   1  -4   15.67    1.87
   5  -1  -4   12.95    2.52
   5   1  -4    8.32    1.06
  -5  -1   4    8.62    2.25
  -5   1   4    9.79    2.76
  -4  -1   4    6.55    1.96
  -4   1   4    7.71    2.56
   4   1  -4    9.76    1.10
   4  -1  -4    8.36    0.75
   4   1  -4    7.43    0.82
   4  -1  -4   12.66    1.29
   4   1  -4    8.57    1.30
   4  -1  -4    9.16    1.65
   3   1  -4  215.19    4.19
  -3  -1   4  205.31    6.84
  -3   1   4  157.90    6.69
   3   1  -4  206.96    3.14
   3  -1  -4  211.93    2.91
   3  -1  -4  162.68    3.94
   3   1  -4  211.31    4.98
   3  -1  -4  169.95    5.05
  -2   1   4  283.25    8.78
   2   1  -4  295.16    3.88
   2   1  -4  278.73    5.03
   2  -1  -4  299.25    5.55
   2   1  -4  294.58    6.18
   2  -1  -4  289.07    7.14
   1   1  -4   23.88    2.61
   1  -1  -4   36.62    3.32
  -1   1   4   32.78    1.92
   1  -1  -4   31.05    1.06
   1   1  -4   36.05    1.78
   1   1  -4   34.30    1.02
   1   1  -4   22.81    1.78
   1  -1  -4   34.95    2.25
   0   1   4 1731.56   13.22
   0  -1  -4 1711.14   14.47
   0  -1  -4 1674.92   21.39
   0   1  -4 1742.81   19.95
   0   1  -4 1784.82   10.07
   0   1  -4 1749.55    6.54
   0   1  -4 1726.71   13.70
   0  -1  -4 1822.96    7.23
   1  -1   4  357.86    3.10
  -1   1  -4  337.39    4.88
   1   1   4  396.72    3.54
  -1  -1  -4  419.50    3.85
  -1   1  -4  371.49    3.48
   1   1   4  291.64    5.91
   2   1   4  225.87    5.34
   2   1   4  221.44    2.72
  -2  -1  -4  220.44    3.08
   2  -1   4  219.02    2.59
  -2   1  -4  219.03    4.06
  -2   1  -4  220.07    3.04
  -3   1  -4    8.97    1.39
   3  -1   4    4.45    0.72
  -3  -1  -4    5.88    0.91
  -3   1  -4    7.70    1.01
   3   1   4    3.31    1.30
  -4   1  -4    4.92    1.20
  -4  -1  -4    2.54    0.87
  -4   1  -4    3.25    0.94
  -5  -1  -4   64.19    2.71
  -5  -1  -4   58.38    2.47
  -5   1  -4   51.30    2.40
  -5   1  -4   59.44    2.78
  -6   1  -4    7.52    1.45
  -6  -1  -4    8.93    1.49
  -6   1  -4    6.27    1.38
  -6  -1  -4    8.14    1.45
  -7  -1  -4  453.64    6.90
  -7   1  -4  422.87    6.82
  -7   1  -4  424.86    6.96
  -7  -1  -4  436.16    7.05
  -8   1  -4  322.52    6.36
  -8  -1  -4  341.16    6.28
  -8  -1  -4  304.23    6.42
  -8   1  -4  300.56    6.52
  -9   1  -4   10.37    1.85
  -9   1  -4   10.99    2.12
  -9  -1  -4   10.49    2.06
  -9  -1  -4   14.07    1.99
 -10  -1  -4   64.47    3.24
 -10   1  -4   59.18    3.10
 -10  -1  -4   64.78    3.70
 -10   1  -4   60.69    3.71
 -11  -1  -4   33.16    2.66
 -11   1  -4   29.85    2.58
 -11  -1  -4   33.09    3.15
 -11   1  -4   29.80    3.12
 -12  -1  -4   41.46    3.01
 -12   1  -4   41.83    3.25
 -12  -1  -4   44.78    4.00
 -12   1  -4   43.48    3.83
 -13  -1  -4  111.76    4.69
 -13   1  -4  115.55    5.21
 -13  -1  -4  120.85    5.94
 -13   1  -4  111.82    5.95
 -14  -1  -4   44.55    3.43
 -14  -1  -4   44.60    4.36
 -14   1  -4   40.69    4.27
 -14   1  -4   43.04    3.58
 -15   1  -4   20.60    3.14
 -15  -1  -4   16.74    2.78
 -15  -1  -4   18.55    3.74
 -15   1  -4   23.02    3.89
 -17  -2   4   48.68    6.32
 -17   2   4   39.58    5.73
 -16  -2   4  261.09   11.39
 -16   2   4  249.38   11.87
 -15  -2   4   93.94    6.81
 -15   2   4  106.30    7.83
 -14  -2   4   87.30    6.16
 -14   2   4   93.81    7.08
 -13  -2   4  159.36    7.66
 -13   2   4  181.52    8.79
 -12  -2   4  147.94    6.97
 -12   2   4  140.51    7.53
 -11  -2   4  235.14    8.19
 -11   2   4  221.69    8.79
 -10  -2   4  648.61   12.69
 -10   2   4  651.19   14.18
  -9  -2   4  584.60   11.46
  -9   2   4  583.54   12.83
  -8  -2   4   40.71    3.24
  -8   2   4   36.68    3.48
  -7  -2   4  586.87   10.68
  -7   2   4  614.52   12.45
   6  -2  -4   69.52    1.36
   6  -2  -4   71.20    2.55
   6   2  -4   88.28    2.88
   6   2  -4   80.56    2.49
   6   2  -4   71.31    1.89
  -6  -2   4   88.50    4.12
  -6   2   4   93.53    5.20
   5   2  -4 1031.66    7.68
   5  -2  -4 1050.37    5.42
   5   2  -4 1031.71    7.57
   5   2  -4 1026.81    9.17
   5  -2  -4 1089.57    9.66
  -5  -2   4 1031.92   13.69
  -5   2   4  964.12   15.49
  -4   2   4   20.28    3.01
   4  -2  -4   22.45    1.67
   4  -2  -4   26.72    1.03
   4   2  -4   28.64    1.44
   4   2  -4   28.77    1.79
   4   2  -4   27.47    1.51
   4  -2  -4   20.82    2.11
  -4  -2   4   26.67    2.63
   3   2  -4  942.99    8.69
  -3  -2   4  860.09   12.81
   3   2  -4  898.76    6.87
  -3   2   4  827.71   15.55
  -3   2   4  877.19    7.88
   3   2  -4  939.02    9.03
   3  -2  -4  936.40    9.94
   3  -2  -4  865.57   11.70
  -2   2   4   67.77    2.49
  -2   2   4   63.08    4.85
   2   2  -4   72.97    2.63
   2   2  -4   68.23    1.17
   2   2  -4   67.91    2.01
   2  -2  -4   70.39    2.90
   2   2  -4   73.15    2.95
   2  -2  -4   59.67    3.62
   1   2  -4 1018.32   12.38
   1  -2  -4 1005.94   15.25
   1  -2  -4 1018.34    5.51
   1   2  -4  990.85    9.82
   1   2  -4 1006.10    7.61
   1   2  -4 1013.52    4.41
   1  -2  -4 1007.71   10.85
  -1   2   4 1037.01    9.71
   0  -2  -4  559.76   13.00
   0   2  -4  566.08   10.87
   0   2  -4  577.92    6.10
   0  -2  -4  587.34    4.29
   0   2  -4  574.23    3.65
   0  -2  -4  545.97    8.30
   0   2   4  570.59    7.68
  -1   2  -4 2241.75   12.38
  -1   2  -4 2391.49    8.53
  -1  -2  -4 2387.36    9.20
   1   2   4 2322.06    8.61
   1  -2   4 2346.88    7.42
   1   2   4 2364.58   16.57
  -2  -2  -4   20.19    1.11
  -2   2  -4   19.73    1.51
   2  -2   4   18.50    0.86
  -2   2  -4   17.30    1.02
   2   2   4   16.99    0.93
   2   2   4   17.73    1.91
   3   2   4  376.54    7.26
  -3   2  -4  366.52    4.42
  -3   2  -4  374.91    5.53
  -3  -2  -4  333.90    4.25
   3  -2   4  367.45    3.67
  -4   2  -4  129.56    3.52
  -4  -2  -4  132.79    2.96
  -4   2  -4  121.07    2.96
   4   2   4  138.67    4.61
   5   2   4  259.01    6.42
  -5   2  -4  258.82    5.10
  -5  -2  -4  279.17    4.69
  -5   2  -4  260.09    4.71
  -6   2  -4  196.51    4.62
  -6  -2  -4  211.96    4.52
  -6   2  -4  203.23    4.53
  -7  -2  -4  307.40    5.52
  -7   2  -4  315.75    6.10
  -7  -2  -4  309.24    5.89
  -7   2  -4  291.98    5.91
  -8  -2  -4  316.96    5.90
  -8   2  -4  317.43    6.24
  -8  -2  -4  318.81    6.46
  -8   2  -4  300.64    6.43
  -9  -2  -4  333.78    6.38
  -9   2  -4  306.39    6.28
  -9  -2  -4  322.80    7.04
  -9   2  -4  334.16    7.35
 -10  -2  -4  289.32    6.19
 -10   2  -4  276.69    6.40
 -10  -2  -4  301.69    7.24
 -10   2  -4  301.81    7.55
 -11  -2  -4  114.89    4.24
 -11   2  -4  112.88    4.42
 -11  -2  -4  123.28    5.21
 -11   2  -4  118.13    5.35
 -12  -2  -4  192.91    5.63
 -12   2  -4  206.36    6.52
 -12  -2  -4  196.25    6.79
 -12   2  -4  181.86    6.85
 -13   2  -4    5.59    2.29
 -13  -2  -4    6.82    2.77
 -13   2  -4    6.73    2.81
 -13  -2  -4    7.52    2.01
 -14  -2  -4   18.44    2.60
 -14   2  -4   20.43    2.90
 -14  -2  -4   21.47    3.50
 -14   2  -4   27.29    4.09
 -15  -2  -4   60.23    4.03
 -15   2  -4   58.57    4.21
 -15  -2  -4   66.11    5.38
 -15   2  -4   67.46    5.67
 -17  -3   4  272.26   12.16
 -17   3   4  264.15   12.86
 -16  -3   4  119.48    8.01
 -16   3   4  107.99    8.58
 -15  -3   4    0.14    2.95
 -15   3   4   -1.83    3.76
 -14  -3   4   -0.34    2.86
 -14   3   4    3.31    3.27
 -13  -3   4  212.68    8.98
 -13   3   4  189.91    9.13
 -12  -3   4   71.61    5.35
 -12   3   4   60.83    5.44
 -11  -3   4  249.43    8.48
 -11   3   4  229.36    9.20
 -10  -3   4  587.73   11.93
 -10   3   4  528.50   12.98
  -9  -3   4  103.29    4.95
  -9   3   4   95.46    5.69
  -8  -3   4   61.50    3.79
  -8   3   4   64.58    4.56
   7   3  -4  195.63    2.37
  -7  -3   4  254.51    7.02
  -7   3   4  269.80    8.66
   7   3  -4  220.28    3.68
   6  -3  -4  174.13    4.04
   6  -3  -4  179.31    1.99
   6   3  -4  205.08    3.06
   6   3  -4  222.49    4.36
   6   3  -4  200.31    4.36
  -6  -3   4  204.31    5.83
  -6   3   4  165.41    6.88
   5   3  -4   12.19    1.10
   5   3  -4   15.81    1.30
   5   3  -4   15.99    1.27
   5  -3  -4   18.45    1.67
  -5  -3   4   13.70    2.06
  -5   3   4   18.60    3.09
  -4   3   4  294.97    9.60
   4   3  -4  342.25    4.61
   4   3  -4  347.96    4.71
   4   3  -4  358.48    5.03
   4  -3  -4  313.43    7.34
  -4   3   4  321.85    4.52
   4  -3  -4  315.67    5.92
  -4  -3   4  346.15    7.36
   3   3  -4   45.50    2.07
  -3  -3   4   42.30    3.24
  -3   3   4   28.32    4.16
   3  -3  -4   33.51    2.22
  -3   3   4   34.68    1.83
   3   3  -4   47.31    2.19
   3   3  -4   46.98    2.16
   3  -3  -4   32.24    2.87
   2   3  -4  113.02    1.39
   2   3  -4   91.06    2.99
  -2   3   4   92.38    5.75
  -2   3   4   95.52    2.98
   2  -3  -4   99.15    3.55
   2   3  -4  109.61    2.69
   2   3  -4  102.96    2.98
   2  -3  -4  103.88    4.87
   1   3  -4   16.73    1.69
   1   3  -4   17.50    2.18
   1  -3  -4    7.67    2.38
  -1   3   4   10.94    1.51
   1  -3  -4   14.33    0.90
   1   3  -4   15.53    0.74
   1   3  -4   14.89    1.67
   1  -3  -4   10.61    1.69
   0  -3  -4  613.05   13.93
   0   3   4  650.54    8.53
   0   3  -4  638.64   11.03
   0  -3  -4  630.16    4.66
   0   3  -4  632.60    3.68
   0   3  -4  626.61    6.46
  -1   3  -4  214.58    4.03
   1   3   4  231.09    5.36
   1   3   4  221.74    2.74
   1  -3   4  229.55    2.26
  -1  -3  -4  234.03    3.02
  -1   3  -4  221.52    2.63
  -2   3  -4   24.76    1.66
  -2  -3  -4   25.09    1.22
   2  -3   4   23.65    0.91
   2   3   4   27.71    2.22
  -2   3  -4   26.09    1.18
  -3   3  -4 1219.16   10.08
   3  -3   4 1179.30    6.44
  -3   3  -4 1177.33    8.06
  -3  -3  -4 1179.66    7.95
   3   3   4 1173.76   12.70
  -4   3  -4  150.11    3.82
  -4  -3  -4  144.51    3.14
  -4   3  -4  141.22    3.21
   4   3   4  162.01    4.97
   5   3   4  181.34    5.49
  -5   3  -4  151.16    4.06
  -5  -3  -4  162.57    3.99
  -5   3  -4  139.29    3.58
  -6   3  -4   34.29    2.28
  -6   3  -4   27.29    2.06
   6   3   4   32.73    2.68
  -6  -3  -4   36.06    2.15
  -7   3  -4  393.31    6.67
  -7  -3  -4  460.92    7.20
  -7   3  -4  421.52    7.12
   7   3   4  442.97    8.95
  -8   3  -4   35.54    2.47
  -8  -3  -4   30.32    2.45
  -8  -3  -4   38.91    2.37
  -8   3  -4   25.85    2.39
  -9   3  -4   26.16    2.47
  -9  -3  -4   31.10    2.72
  -9   3  -4   28.39    2.80
 -10   3  -4    5.86    1.94
 -10  -3  -4   11.79    2.26
 -10   3  -4    6.02    2.10
 -11   3  -4   92.76    4.40
 -11  -3  -4   90.13    3.85
 -11  -3  -4   91.51    4.58
 -11   3  -4   89.17    4.72
 -12  -3  -4  176.38    5.43
 -12   3  -4  160.10    5.63
 -12  -3  -4  179.46    6.64
 -12   3  -4  162.35    6.58
 -13  -3  -4   36.51    2.94
 -13   3  -4   37.95    3.31
 -13  -3  -4   36.98    3.75
 -13   3  -4   36.05    3.87
 -14  -3  -4    4.08    2.06
 -14   3  -4    3.57    2.24
 -14  -3  -4    6.82    2.82
 -14   3  -4    4.59    2.96
 -15  -3  -4   16.50    2.82
 -15   3  -4   18.55    3.11
 -15  -3  -4   14.83    3.59
 -15   3  -4   17.21    3.73
 -17  -4   4    2.98    3.60
 -17   4   4   -1.46    4.07
 -16  -4   4   64.58    6.27
 -16   4   4   49.40    6.65
 -15  -4   4   55.77    5.68
 -15   4   4   59.04    6.39
 -14  -4   4  224.62    9.15
 -14   4   4  232.82   10.85
 -13  -4   4  505.25   12.75
 -13   4   4  518.73   14.93
 -12  -4   4   37.04    3.94
 -12   4   4   43.16    4.83
 -11  -4   4    4.81    2.17
 -11   4   4    7.62    2.96
 -10  -4   4  126.57    5.59
 -10   4   4  113.77    6.57
  -9  -4   4  375.91    9.08
  -9   4   4  350.20   10.42
  -8  -4   4  315.59    7.81
  -8   4   4  299.34    9.62
   7   4  -4 2257.96   13.98
  -7  -4   4 2324.01   19.57
  -7   4   4 2240.83   25.84
   7   4  -4 2305.14    9.26
   6   4  -4  733.67    6.23
   6  -4  -4  689.79    8.40
   6   4  -4  757.32    7.30
  -6  -4   4  644.77    9.84
   6   4  -4  682.99    8.62
  -6   4   4  618.00   13.47
  -5   4   4   32.56    1.42
   5  -4  -4   34.50    2.20
   5   4  -4   28.86    1.46
   5   4  -4   27.05    1.76
  -5  -4   4   21.91    2.16
  -5   4   4   28.26    3.55
  -4   4   4  148.99    7.25
   4   4  -4  174.55    3.72
   4   4  -4  196.23    3.21
   4  -4  -4  157.02    4.49
  -4   4   4  143.49    3.23
  -4  -4   4  194.30    5.21
   3  -4  -4 2028.27   16.26
  -3  -4   4 2029.82   17.01
  -3   4   4 1902.33   25.27
   3   4  -4 2077.34   12.10
  -3   4   4 1921.35   12.40
   3   4  -4 2142.66   10.05
   3  -4  -4 1916.96   19.73
   2  -4  -4    5.29    2.16
  -2   4   4    3.72    2.85
   2   4  -4    6.98    0.44
   2   4  -4    9.01    1.33
   2  -4  -4    6.25    1.41
  -2   4   4    8.26    1.23
   2   4  -4    5.91    1.00
   1   4  -4 2408.27   15.44
   1  -4  -4 2278.84   25.05
   1  -4  -4 2293.02    8.90
   1  -4  -4 2352.92   18.35
   1   4  -4 2345.32    5.84
   1   4  -4 2276.86   12.81
  -1   4   4 2302.11   15.51
   1   4  -4 2335.55   15.39
   0   4  -4 1219.09    5.08
   0  -4  -4 1207.07   20.34
   0  -4  -4 1193.75    6.57
   0   4   4 1245.88   11.86
   0   4  -4 1217.47    9.52
   1  -4   4   29.30    0.83
  -1  -4  -4   35.76    1.32
   1   4   4   24.78    1.06
  -1   4  -4   33.11    1.11
  -1   4  -4   34.20    1.87
   1   4   4   24.79    2.02
  -2   4  -4  245.57    4.56
   2  -4   4  260.03    2.67
  -2  -4  -4  261.99    3.47
  -2   4  -4  250.86    3.33
   2   4   4  241.59    5.78
  -3   4  -4 1994.38   13.17
   3  -4   4 2028.68    8.40
  -3   4  -4 1990.46   10.64
  -3  -4  -4 2061.32   10.60
   4   4   4  218.57    5.78
  -4   4  -4  182.32    3.67
  -4   4  -4  185.02    4.40
  -4  -4  -4  198.33    3.67
  -5   4  -4  991.82   10.03
  -5  -4  -4 1070.16    9.00
  -5   4  -4 1020.91    9.41
   5   4   4 1003.89   12.67
  -6   4  -4  452.96    7.11
  -6  -4  -4  461.43    6.49
  -6   4  -4  437.50    6.75
   6   4   4  463.45    9.05
  -7   4  -4   15.88    1.94
  -7  -4  -4   19.06    1.92
   7   4   4   14.26    2.18
  -7   4  -4   14.02    1.85
   8   4   4   82.84    4.30
  -8  -4  -4   87.45    3.58
  -8   4  -4   89.62    3.85
  -8   4  -4   84.74    3.59
  -9  -4  -4  711.13    8.90
  -9   4  -4  697.81    9.94
  -9  -4  -4  724.86   10.31
  -9   4  -4  703.69   10.93
 -10  -4  -4  367.24    6.77
 -10   4  -4  364.87    7.66
 -10  -4  -4  344.81    7.52
 -10   4  -4  351.78    8.28
 -11  -4  -4   81.76    3.54
 -11  -4  -4   77.54    4.20
 -11   4  -4   72.30    4.36
 -11   4  -4   75.82    3.99
 -12  -4  -4  365.61    7.45
 -12   4  -4  335.18    7.92
 -12  -4  -4  372.64    9.28
 -12   4  -4  328.04    9.18
 -13  -4  -4   29.77    2.83
 -13   4  -4   29.16    3.09
 -13  -4  -4   34.95    3.70
 -13   4  -4   26.65    3.66
 -14  -4  -4    4.12    1.94
 -14   4  -4    2.87    2.33
 -14  -4  -4    0.22    2.59
 -14   4  -4    2.88    2.82
 -15  -4  -4   86.00    4.54
 -15   4  -4   83.45    5.17
 -15   4  -4   94.59    6.46
 -17  -5   4   -1.11    3.45
 -17   5   4    1.26    3.99
 -16  -5   4   94.11    7.33
 -16   5   4   89.98    7.84
 -15  -5   4   79.09    6.25
 -15   5   4   81.23    7.32
 -14  -5   4   96.05    6.15
 -14   5   4   85.63    7.05
 -13  -5   4   36.90    4.03
 -13   5   4   41.44    4.91
 -12  -5   4  130.85    6.27
 -12   5   4  136.53    7.67
 -11  -5   4    3.63    2.19
 -11   5   4    2.79    2.74
 -10  -5   4  238.39    7.34
 -10   5   4  210.65    8.81
  -9  -5   4    1.69    1.82
  -9   5   4    5.70    2.83
   8   5  -4  568.46    4.03
   8   5  -4  606.62    5.50
   7   5  -4  132.77    4.08
   7  -5  -4  104.58    1.25
   7  -5  -4   96.70    2.23
  -7  -5   4  118.22    4.44
  -7   5   4  111.29    6.41
  -6   5   4  122.38    2.42
   6  -5  -4  136.21    4.17
  -6  -5   4  144.67    2.17
   6   5  -4  135.60    3.02
  -6  -5   4  130.67    4.38
   6   5  -4  123.97    4.16
  -6   5   4  114.49    6.22
   5  -5  -4   93.73    3.67
  -5  -5   4   92.89    1.88
  -5   5   4   87.18    2.39
   5   5  -4   83.90    2.18
   5   5  -4   92.99    3.26
  -5  -5   4   82.92    3.23
  -5   5   4   77.60    5.65
  -4   5   4   32.95    4.05
  -4   5   4   34.41    1.82
   4   5  -4   49.13    1.52
   4   5  -4   42.63    2.18
   4  -5  -4   34.72    2.44
  -4  -5   4   43.77    1.42
  -4  -5   4   44.13    2.55
  -3  -5   4  562.17    8.23
  -3   5   4  585.61   14.51
  -3  -5   4  621.04    5.35
  -3   5   4  653.48    7.64
   3   5  -4  607.86    6.99
   3   5  -4  629.54    4.59
   3  -5  -4  648.92    9.56
   2  -5  -4 1199.22   13.50
  -2   5   4 1230.71   21.23
   2   5  -4 1138.11    3.39
  -2   5   4 1221.59   11.14
  -2  -5   4 1190.75    7.71
   2   5  -4 1221.19    9.74
   2   5  -4 1217.45    6.52
   2  -5  -4 1116.19   17.23
   1  -5  -4  238.23    8.73
   1  -5  -4  251.61    6.39
   1  -5  -4  311.23    3.47
  -1   5   4  277.07    5.78
   1   5  -4  280.47    1.86
   1   5  -4  299.59    4.97
  -1  -5   4  285.19    4.00
   1   5  -4  339.50    4.86
   0  -5  -4   11.62    3.32
   0   5   4   16.03    1.90
   0  -5  -4   19.99    1.05
   0   5  -4   19.70    1.57
   0   5  -4   18.29    0.70
   1  -5   4  480.74    3.03
  -1  -5  -4  467.86    4.49
  -1   5  -4  455.68    6.37
   1   5   4  485.59    8.01
  -1   5  -4  453.39    3.83
   2  -5   4  114.23    1.80
  -2  -5  -4  120.30    2.49
  -2   5  -4  114.06    2.31
   2   5   4  100.90    3.90
  -2   5  -4  118.70    3.49
   3  -5   4  151.51    2.37
  -3  -5  -4  156.91    3.08
  -3   5  -4  146.05    3.10
   3   5   4  155.40    5.06
  -3   5  -4  155.56    4.09
  -4   5  -4 1211.32   11.21
  -4  -5  -4 1245.45    8.99
  -4   5  -4 1229.01    9.55
   4   5   4 1238.10   14.01
   5   5   4   22.44    2.46
  -5   5  -4   24.06    2.16
  -5  -5  -4   24.23    1.79
  -5   5  -4   23.39    1.90
  -6   5  -4    8.91    1.59
  -6  -5  -4   10.23    1.53
   6   5   4   16.54    2.21
  -6   5  -4    9.83    1.65
  -7  -5  -4   43.80    2.86
  -7   5  -4   26.82    2.34
  -7   5  -4   25.88    2.24
   7   5   4   34.15    2.96
  -8   5  -4   65.41    3.54
   8   5   4   64.06    3.79
  -8  -5  -4   66.34    3.23
  -8   5  -4   63.74    3.34
   9   5   4   34.33    3.18
  -9   5  -4   28.36    2.61
  -9  -5  -4   29.80    2.59
  -9   5  -4   24.92    2.72
 -10   5  -4  276.84    6.80
 -10  -5  -4  287.85    6.93
 -10   5  -4  280.57    7.56
 -10  -5  -4  284.09    5.97
 -11  -5  -4  118.80    4.22
 -11   5  -4  102.82    4.53
 -11  -5  -4  114.93    5.03
 -11   5  -4  113.80    5.26
 -12  -5  -4    9.91    1.89
 -12   5  -4    6.55    2.36
 -12  -5  -4   10.50    2.61
 -12   5  -4   10.34    2.93
 -13  -5  -4    7.31    2.09
 -13   5  -4    2.21    2.07
 -13  -5  -4    1.53    2.36
 -13   5  -4    4.05    2.83
 -14  -5  -4   23.82    2.97
 -14   5  -4   13.36    2.76
 -14  -5  -4   12.92    3.24
 -14   5  -4   14.60    3.52
 -15  -5  -4   67.32    4.07
 -15   5  -4   59.17    4.63
 -15   5  -4   73.83    5.92
 -17  -6   4    6.63    4.04
 -17   6   4    5.10    4.18
 -16  -6   4   -0.02    3.21
 -16   6   4    4.12    4.34
 -15  -6   4   87.54    6.47
 -15   6   4   95.88    7.85
 -14  -6   4   61.42    5.02
 -14   6   4   58.83    6.10
 -13  -6   4  106.80    5.97
 -13   6   4  105.55    7.51
 -12  -6   4   86.49    5.17
 -12   6   4   82.28    6.52
 -11  -6   4  407.43    9.82
 -11   6   4  416.84   12.80
 -10  -6   4  120.04    5.20
 -10   6   4  113.96    6.87
  -9  -6   4   90.33    4.24
  -9   6   4  101.04    6.36
  -8  -6   4  172.43    2.12
   8   6  -4  174.87    3.87
  -8  -6   4  180.78    5.58
  -8   6   4  158.12    7.80
   7   6  -4  418.80    7.54
   7   6  -4  422.76    5.28
  -7  -6   4  467.21    3.78
  -7  -6   4  441.54    8.01
   7  -6  -4  407.94    5.50
  -7   6   4  422.62   12.10
   6  -6  -4  286.98    6.45
  -6   6   4  271.56    3.94
  -6  -6   4  277.05    3.26
   6   6  -4  271.79    3.86
  -6  -6   4  263.35    5.92
   6   6  -4  252.53    6.37
  -6   6   4  259.57    9.50
  -5   6   4  925.48   17.85
  -5   6   4  998.93    8.57
  -5  -6   4  956.33    6.48
   5  -6  -4 1013.68   12.52
   5   6  -4  932.56    6.32
   5   6  -4  920.77   10.96
  -5  -6   4  937.38   10.07
  -4   6   4   86.87    6.00
  -4  -6   4   70.82    1.91
   4   6  -4   66.11    1.53
   4  -6  -4   98.04    4.07
   4   6  -4   64.21    2.85
  -4  -6   4   60.23    2.73
  -4   6   4   95.16    2.98
  -3   6   4  565.94   14.75
  -3  -6   4  634.78    5.72
   3   6  -4  620.15    3.63
   3   6  -4  640.27    7.88
   3  -6  -4  645.01   10.15
  -3   6   4  647.20    8.04
  -2   6   4  122.54    3.84
  -2   6   4  124.56    7.55
  -2  -6   4  124.90    2.69
   2   6  -4  131.37    3.55
   2  -6  -4  116.43    4.52
   1   6  -4  631.66    7.53
   1  -6  -4  627.52    5.08
   0   6   4  124.81    4.27
   0  -6  -4  108.48    2.18
   0   6  -4  113.56    3.35
   0   6  -4  102.70    1.49
   1   6   4   74.51    3.51
  -1   6  -4   69.02    2.77
  -1   6  -4   73.13    1.63
   1  -6   4   64.10    1.10
  -1  -6  -4   66.87    1.80
  -2  -6  -4  807.76    6.37
   2  -6   4  837.47    4.75
  -2   6  -4  790.07    8.76
   2   6   4  800.47   11.07
  -2   6  -4  794.21    6.14
  -3   6  -4  580.06    7.83
  -3  -6  -4  561.94    5.65
   3  -6   4  573.42    4.54
   3   6   4  601.23    9.96
  -3   6  -4  571.50    6.08
  -4   6  -4  569.08    8.14
  -4  -6  -4  573.26    6.19
  -4   6  -4  557.37    6.66
   4   6   4  604.29   10.01
  -5   6  -4  324.09    6.29
  -5  -6  -4  333.32    5.18
  -5   6  -4  331.72    5.81
   5   6   4  318.52    7.43
   6   6   4   56.83    3.46
  -6   6  -4   54.00    2.87
  -6  -6  -4   53.23    2.37
  -6   6  -4   53.52    2.74
  -7   6  -4  618.15    9.19
  -7  -6  -4  637.24    8.19
   7   6   4  620.66   11.08
  -7   6  -4  629.68    9.16
  -8   6  -4   55.80    3.15
  -8  -6  -4   63.52    3.11
  -8   6  -4   61.01    3.37
   8   6   4   57.45    3.72
  -9   6  -4  104.19    4.27
   9   6   4  102.68    4.98
  -9  -6  -4   99.14    3.99
  -9   6  -4   95.69    4.42
  10   6   4  158.53    6.21
 -10   6  -4  142.70    5.15
 -10  -6  -4  155.12    5.26
 -10   6  -4  136.29    5.53
 -11   6  -4   25.68    3.15
 -11   6  -4   24.39    2.74
 -11  -6  -4   22.88    2.74
 -11  -6  -4   29.23    2.54
 -12  -6  -4   25.54    2.41
 -12   6  -4   25.58    2.86
 -12  -6  -4   27.75    3.04
 -12   6  -4   26.10    3.39
 -13  -6  -4  167.16    5.36
 -13   6  -4  157.11    6.20
 -13  -6  -4  165.96    6.65
 -13   6  -4  155.26    6.97
 -14   6  -4  249.30    8.10
 -14  -6  -4  267.54    7.00
 -14  -6  -4  255.10    8.65
 -14   6  -4  253.89    9.49
 -15   6  -4    8.33    2.95
 -15  -6  -4   11.91    2.54
 -15   6  -4    9.55    3.50
 -17  -7   4    5.03    3.67
 -16  -7   4    5.81    3.28
 -16   7   4    6.57    4.31
 -15  -7   4  187.94    8.65
 -15   7   4  181.84   10.60
 -14  -7   4  175.81    7.94
 -14   7   4  173.28    9.99
 -13  -7   4   26.06    3.54
 -13   7   4   27.01    4.80
 -12  -7   4  109.84    5.62
 -12   7   4  110.07    7.41
 -11  -7   4   33.18    3.31
 -11   7   4   25.79    4.23
 -10  -7   4    4.50    2.03
 -10   7   4    3.41    3.12
   9   7  -4   97.10    2.62
  -9  -7   4  103.21    1.56
  -9  -7   4  125.32    4.88
  -9   7   4  117.87    7.11
  -8  -7   4  912.46    5.37
   8   7  -4  936.96   10.34
   8  -7  -4  689.11    4.26
  -8  -7   4  942.11   11.97
  -8   7   4  687.96    4.39
  -8   7   4  924.80   18.66
  -7   7   4   48.39    1.82
   7   7  -4   67.30    3.50
  -7  -7   4   62.37    1.65
   7   7  -4   56.75    1.98
  -7  -7   4   61.59    3.08
   7  -7  -4   56.12    2.48
  -7   7   4   52.53    5.00
   6  -7  -4   35.20    2.63
  -6  -7   4   33.02    1.35
   6   7  -4   32.50    1.37
  -6  -7   4   31.23    2.23
  -6   7   4   30.34    1.63
   6   7  -4   22.61    2.48
  -6   7   4   28.51    4.11
  -5   7   4   13.97    3.42
  -5  -7   4   13.91    1.03
   5  -7  -4   12.83    1.94
   5   7  -4   16.33    0.92
  -5   7   4   15.64    1.43
  -5  -7   4   14.37    1.52
   5   7  -4   11.25    1.84
  -4   7   4  247.29    9.94
  -4  -7   4  245.12    3.62
   4  -7  -4  278.62    7.16
   4   7  -4  245.67    2.49
   4   7  -4  258.08    5.84
  -4   7   4  254.14    5.07
  -4  -7   4  225.51    4.55
  -3  -7   4  538.82    5.54
  -3   7   4  551.64   15.29
   3   7  -4  548.11    7.87
   3  -7  -4  572.34   10.18
  -3   7   4  561.47    7.81
  -2   7   4 1432.32   24.57
  -2  -7   4 1466.94    9.53
   2   7  -4 1501.33   12.39
  -2   7   4 1518.16   13.54
   2  -7  -4 1472.95   16.24
   1  -7  -4  667.81    5.40
   1   7  -4  740.55    8.72
   0  -7  -4   77.77    1.91
   0   7  -4   76.49    2.91
   0   7  -4   68.55    1.30
   0   7   4   73.31    3.49
   1   7   4  175.32    5.22
  -1   7  -4  178.69    4.51
  -1  -7  -4  187.12    3.03
  -1   7  -4  170.56    2.58
   1  -7   4  184.45    1.80
   2  -7   4 1781.38    6.78
  -2  -7  -4 1715.03    9.39
  -2   7  -4 1737.26   13.65
  -2   7  -4 1628.07    9.26
   3  -7   4 1120.30    6.40
   3   7   4 1094.78   13.63
  -3  -7  -4 1089.35    7.90
  -3   7  -4 1055.88   11.06
  -3   7  -4 1104.04    8.68
  -4  -7  -4  154.59    3.32
   4   7   4  138.71    5.15
  -4   7  -4  149.46    4.41
  -4   7  -4  145.88    3.63
  -5   7  -4  289.43    6.10
  -5  -7  -4  303.86    4.87
   5   7   4  296.54    7.40
  -5   7  -4  296.50    5.51
  -6   7  -4   32.46    2.41
  -6  -7  -4   37.10    2.12
  -6   7  -4   35.10    2.34
   6   7   4   41.23    3.15
   7   7   4   17.41    2.40
  -7  -7  -4   20.02    1.93
  -7   7  -4   13.08    1.90
  -7   7  -4   19.58    2.15
  -8   7  -4   85.06    3.85
  -8  -7  -4   97.52    3.77
   8   7   4  103.02    4.77
  -8   7  -4   86.94    3.98
   9   7   4   52.78    3.85
  -9   7  -4   49.94    3.28
  -9  -7  -4   52.55    3.16
  -9   7  -4   51.71    3.45
 -10   7  -4   99.15    4.47
 -10  -7  -4  105.82    4.35
 -10   7  -4   98.73    4.83
  10   7   4  112.50    5.23
 -11   7  -4  208.78    6.56
 -11  -7  -4  214.87    6.46
 -11   7  -4  207.44    7.21
 -12  -7  -4    6.81    1.97
 -12   7  -4    5.34    2.23
 -12  -7  -4    4.73    2.36
 -12   7  -4    0.06    2.24
 -13  -7  -4   35.86    2.95
 -13   7  -4   30.01    3.45
 -13  -7  -4   39.94    3.79
 -13   7  -4   32.84    3.83
 -14  -7  -4   26.67    2.84
 -14   7  -4   24.81    3.48
 -14  -7  -4   26.44    3.63
 -14   7  -4   16.59    3.77
 -15  -7  -4   37.43    3.28
 -15   7  -4   36.12    4.05
 -15   7  -4   37.31    4.81
 -17  -8   4   76.55    6.65
 -16  -8   4   49.05    5.39
 -16   8   4   51.80    6.68
 -15  -8   4  185.85    8.49
 -15   8   4  194.47   10.85
 -14  -8   4    9.17    3.04
 -14   8   4    3.25    3.67
 -13  -8   4   40.21    3.96
 -13   8   4   38.86    5.24
 -12  -8   4 1089.94   16.40
 -12   8   4 1044.08   22.01
 -11  -8   4  668.83   12.05
 -11   8   4  641.51   16.93
 -10  -8   4   10.45    2.20
 -10   8   4   13.35    3.91
  -9  -8   4  256.37    3.11
  -9  -8   4  278.77    6.97
   9   8  -4  251.80    5.00
  -9   8   4  296.32   11.17
  -8  -8   4  101.57    2.31
   8   8  -4   77.71    3.55
   8  -8  -4   75.39    2.00
  -8  -8   4   75.69    3.53
  -8   8   4   87.39    6.33
   7   8  -4   25.61    2.70
  -7  -8   4   30.40    1.38
   7   8  -4   25.53    1.35
  -7   8   4   31.76    1.65
  -7  -8   4   24.30    2.04
   7  -8  -4   25.14    2.05
  -7   8   4   25.36    3.95
   6   8  -4 2123.40   20.78
   6  -8  -4 2258.34   20.06
   6   8  -4 2258.25    9.71
  -6  -8   4 2323.60   11.51
  -6   8   4 2243.76   13.99
  -6  -8   4 2262.71   15.58
  -6   8   4 2130.58   28.75
  -5   8   4 4377.61   42.03
   5  -8  -4 4815.12   30.68
  -5  -8   4 4704.79   16.72
   5   8  -4 4660.08   11.75
  -5   8   4 4601.97   21.60
  -5  -8   4 4532.92   20.05
   5   8  -4 4455.60   27.79
  -4   8   4 2694.08   32.82
  -4  -8   4 2819.88   13.19
   4  -8  -4 2898.61   24.02
   4   8  -4 2714.03    6.98
  -4   8   4 2857.04   18.07
   4   8  -4 2799.73   20.42
  -4  -8   4 2754.82   14.67
  -3   8   4  105.92    7.43
  -3  -8   4   99.15    2.61
   3  -8  -4  105.16    4.82
  -3   8   4  109.67    3.88
   3   8  -4  103.42    3.91
  -2   8   4   76.32    6.32
   2   8  -4   73.77    3.26
  -2   8   4   85.03    3.58
   1   8  -4  280.88    5.82
   1  -8  -4  284.89    3.68
  -1   8   4  275.44    6.39
   0  -8  -4  501.04    4.81
   0   8  -4  488.84    7.53
   0   8  -4  426.42    3.28
   0   8   4  452.83    8.39
  -1  -8  -4 5159.13   15.70
   1  -8   4 5435.53    9.43
  -1   8  -4 5176.56   24.19
  -1   8  -4 5256.34   14.59
   1   8   4 5303.77   29.35
   2   8   4 4341.52   27.53
  -2  -8  -4 4218.62   14.92
  -2   8  -4 4291.20   22.38
  -2   8  -4 4206.12   15.31
   3   8   4  684.59   11.09
  -3  -8  -4  741.53    6.66
   3  -8   4  716.27    5.15
  -3   8  -4  735.83    9.53
  -3   8  -4  702.02    7.09
  -4  -8  -4  790.68    7.26
  -4   8  -4  758.68    9.88
  -4   8  -4  766.17    8.22
   4   8   4  785.23   12.24
  -5  -8  -4    8.60    1.25
  -5   8  -4    8.80    1.60
  -5   8  -4    8.24    1.38
   5   8   4    7.55    1.98
  -6   8  -4   47.60    2.94
   6   8   4   57.14    3.66
  -6   8  -4   43.88    2.59
  -6  -8  -4   50.80    2.46
  -7  -8  -4  445.74    6.85
  -7   8  -4  416.71    8.14
  -7   8  -4  437.89    7.95
   7   8   4  441.91    9.63
   8   8   4  646.18   11.63
  -8   8  -4  618.03   10.04
  -8  -8  -4  620.56    8.71
  -8   8  -4  598.73   10.03
  -9   8  -4   46.47    3.29
  -9  -8  -4   51.67    3.05
   9   8   4   53.52    3.80
  -9   8  -4   48.74    3.49
  10   8   4    6.72    2.10
 -10   8  -4    8.91    2.17
 -10  -8  -4    7.09    2.02
 -10   8  -4    7.05    2.25
  11   8   4  260.51    8.21
 -11   8  -4  255.40    7.30
 -11  -8  -4  253.20    7.04
 -11   8  -4  256.92    8.03
 -12  -8  -4   99.62    4.08
 -12   8  -4   88.07    4.91
 -12  -8  -4   88.80    4.76
 -12   8  -4   88.43    5.38
 -13  -8  -4   55.84    3.43
 -13   8  -4   51.65    4.18
 -13  -8  -4   52.77    4.21
 -13   8  -4   45.29    4.50
 -14  -8  -4   66.46    3.81
 -14   8  -4   69.77    5.00
 -14  -8  -4   67.93    5.04
 -14   8  -4   67.79    5.57
 -15  -8  -4    5.53    2.35
 -15   8  -4    0.76    2.54
 -15   8  -4    4.30    3.53
 -17  -9   4   83.64    6.85
 -16  -9   4  125.62    7.49
 -16   9   4  127.57   10.12
 -15  -9   4   19.45    3.60
 -15   9   4   17.08    4.76
 -14  -9   4   42.15    4.23
 -14   9   4   43.42    6.30
 -13  -9   4  197.43    7.57
 -13   9   4  195.70   10.61
 -12  -9   4   11.44    2.59
 -12   9   4    1.36    3.34
 -11  -9   4  176.53    6.22
 -11   9   4  185.91    9.79
 -10  -9   4  474.80    9.36
 -10   9   4  476.85   15.02
   9   9  -4  110.71    3.84
  -9  -9   4   88.94    2.22
  -9  -9   4   94.97    4.13
  -9   9   4   98.35    6.98
   8   9  -4   71.43    3.78
  -8  -9   4   75.93    2.20
  -8   9   4   81.47    2.54
   8  -9  -4   73.73    2.45
  -8  -9   4   77.24    3.40
  -8   9   4   76.29    6.27
   7   9  -4  355.80    8.73
  -7   9   4  392.55    6.00
  -7  -9   4  368.79    4.88
   7   9  -4  360.75    4.32
  -7  -9   4  383.79    6.77
   7  -9  -4  348.29    7.00
  -7   9   4  369.89   12.57
   6  -9  -4  602.01   10.97
   6   9  -4  609.10   11.67
  -6  -9   4  608.25    6.44
  -6   9   4  650.40    8.35
   6   9  -4  623.41    4.89
  -6  -9   4  648.13    7.96
  -6   9   4  598.80   16.03
   5   9  -4   14.71    2.31
  -5  -9   4   13.36    1.20
  -5   9   4   21.05    3.99
   5  -9  -4   21.11    2.68
  -5   9   4   20.07    1.89
   5   9  -4   16.67    0.79
  -5  -9   4   16.47    1.47
  -4   9   4 1310.83   23.56
   4  -9  -4 1394.39   17.35
   4   9  -4 1229.85    4.10
  -4   9   4 1417.00   13.63
  -4  -9   4 1262.60    9.46
   4   9  -4 1319.85   15.36
  -3   9   4  276.44   11.64
  -3   9   4  294.22    6.51
   3  -9  -4  279.38    8.01
   3   9  -4  277.39    6.66
  -2   9   4  424.32   14.20
  -2   9   4  474.22    8.63
   2   9  -4  408.98    7.70
   1  -9  -4 1375.94    8.18
  -1   9   4 1493.80   15.48
   1   9  -4 1419.21   13.72
   0  -9  -4 2492.70   11.01
   0   9  -4 2500.61   17.47
   0   9   4 2586.50   20.66
  -1  -9  -4  962.44    7.06
   1  -9   4  987.77    4.05
  -1   9  -4  926.47   11.01
  -1   9  -4  988.20    6.89
   1   9   4  929.03   12.67
  -2  -9  -4  388.95    4.69
   2  -9   4  404.75    3.32
  -2   9  -4  387.76    7.17
  -2   9  -4  384.84    4.97
   2   9   4  414.13    8.89
  -3  -9  -4 1974.25   11.04
   3  -9   4 1964.95    8.73
  -3   9  -4 2002.95   16.04
  -3   9  -4 1945.41   12.19
   4   9   4  225.75    6.84
  -4  -9  -4  227.68    4.08
  -4   9  -4  216.09    5.69
  -4   9  -4  216.37    4.68
   5   9   4   16.31    2.31
  -5  -9  -4   17.03    1.50
  -5   9  -4   16.00    2.04
  -5   9  -4   18.61    1.82
  -6  -9  -4  858.30    8.96
   6   9   4  866.12   13.41
  -6   9  -4  802.89   11.33
  -6   9  -4  880.31   10.83
  -7  -9  -4  417.34    6.64
  -7   9  -4  392.66    8.11
  -7   9  -4  398.92    7.85
   7   9   4  384.93    9.14
   8   9   4   17.79    2.61
  -8  -9  -4   16.55    1.97
  -8   9  -4   12.73    2.08
  -8   9  -4   14.76    2.29
  -9   9  -4   90.14    4.33
   9   9   4   94.84    4.94
  -9  -9  -4   99.60    4.06
  -9   9  -4   94.32    4.58
 -10   9  -4   21.57    2.71
 -10  -9  -4   20.12    2.32
 -10   9  -4   19.40    2.70
  10   9   4   25.87    3.07
 -11   9  -4   12.10    2.56
  11   9   4   14.22    2.76
 -11  -9  -4   11.92    2.34
 -11   9  -4   16.65    2.90
 -12  -9  -4  154.11    6.02
 -12   9  -4  154.72    6.31
 -12   9  -4  152.31    6.99
 -13  -9  -4  182.24    5.55
 -13   9  -4  172.44    7.00
 -13  -9  -4  178.30    6.90
 -13   9  -4  171.17    7.90
 -14  -9  -4   27.54    2.80
 -14   9  -4   20.92    3.50
 -14  -9  -4   27.41    3.72
 -14   9  -4   31.50    4.71
 -15   9  -4    3.62    2.70
 -15  -9  -4   16.49    2.64
 -15   9  -4   12.19    3.85
 -17 -10   4   33.30    5.01
 -16 -10   4   44.14    5.12
 -16  10   4   47.93    7.24
 -15 -10   4   95.43    6.18
 -15  10   4   97.46    8.65
 -14 -10   4   31.12    3.77
 -14  10   4   38.31    6.11
 -13 -10   4   78.76    4.84
 -13  10   4  102.59    8.27
 -12 -10   4   16.33    2.63
 -12  10   4   18.45    4.65
 -11 -10   4   41.78    3.46
 -11  10   4   48.60    5.99
 -10 -10   4  229.37    6.48
 -10  10   4  224.64   10.91
  -9  10   4  846.86    7.58
   9  10  -4  839.10   11.26
  -9 -10   4  844.02   11.34
  -9  10   4  837.16   19.34
  -8 -10   4    0.69    0.83
   8  10  -4    0.66    1.89
  -8  10   4   -0.16    0.96
   8 -10  -4    1.38    1.05
  -8 -10   4    1.50    1.29
   7  10  -4  169.52    2.87
   7  10  -4  164.90    6.37
  -7  10   4  192.52    4.71
  -7 -10   4  167.90    3.66
  -7 -10   4  184.55    4.59
   7 -10  -4  160.57    5.25
  -7  10   4  176.57    9.07
  -6  10   4    3.07    3.15
   6 -10  -4    7.19    2.10
   6  10  -4    5.98    2.39
  -6 -10   4    1.80    0.90
   6  10  -4    4.10    0.63
  -6  10   4    4.41    1.41
  -6 -10   4    3.71    1.09
  -5  10   4  184.55    9.72
   5 -10  -4  187.72    6.98
  -5  10   4  197.72    5.33
   5  10  -4  196.51    2.10
  -5 -10   4  168.79    3.77
  -5 -10   4  205.25    3.99
   5  10  -4  175.06    6.67
  -4  10   4  112.25    7.66
   4 -10  -4  115.03    5.63
   4  10  -4  104.46    1.10
  -4  10   4  111.40    4.30
   4  10  -4  122.90    5.13
  -3  10   4  139.46    8.80
  -3  10   4  160.69    5.15
   3  10  -4  134.11    5.04
  -2  10   4   18.97    4.58
  -2  10   4   21.80    2.30
   2  10  -4   14.32    2.12
   1 -10  -4  686.84    5.95
  -1  10   4  699.68   11.20
   1  10  -4  686.01   10.27
   0 -10  -4  143.41    2.79
   0  10   4  130.07    5.13
   0  10  -4  143.89    4.75
  -1 -10  -4  236.97    3.63
   1 -10   4  251.70    2.07
  -1  10  -4  242.79    6.03
   1  10   4  263.82    7.12
  -1  10  -4  225.92    3.79
  -2 -10  -4   92.64    2.46
   2 -10   4  103.37    1.76
  -2  10  -4   99.77    3.99
   2  10   4  120.02    5.10
  -2  10  -4   88.04    2.70
  -3 -10  -4  290.04    4.41
   3 -10   4  287.17    3.42
  -3  10  -4  284.11    6.59
  -3  10  -4  287.46    5.06
  -4  10  -4    2.21    1.41
  -4 -10  -4    1.24    0.91
   4  10   4    3.84    1.79
  -4  10  -4    1.32    1.05
   5  10   4  108.83    5.18
  -5 -10  -4   98.16    2.97
  -5  10  -4   93.70    4.20
  -5  10  -4   94.27    3.53
   6  10   4   14.76    2.58
  -6 -10  -4   16.86    1.91
  -6  10  -4   15.61    2.31
  -6  10  -4   12.24    1.85
  -7 -10  -4   49.30    2.54
  -7  10  -4   52.32    3.47
   7  10   4   51.04    3.78
  -7  10  -4   47.87    3.13
  -8 -10  -4   20.01    2.08
  -8  10  -4   21.49    2.60
  -8  10  -4   16.60    2.37
   8  10   4   26.49    2.88
   9  10   4  119.82    5.62
  -9 -10  -4  111.00    4.21
  -9  10  -4  109.25    4.88
  -9  10  -4  119.27    5.25
 -10  10  -4   37.51    3.32
 -10 -10  -4   37.27    3.03
  10  10   4   40.70    3.61
 -10  10  -4   37.40    3.55
  11  10   4   17.39    3.05
 -11 -10  -4   15.61    2.56
 -11  10  -4   12.80    2.66
 -11  10  -4   11.92    2.85
 -12  10  -4   33.70    3.52
 -12 -10  -4   25.46    3.01
 -12  10  -4   26.08    3.69
  12  10   4   32.00    3.65
 -13 -10  -4   25.46    2.87
 -13 -10  -4   15.87    3.13
 -13  10  -4   16.58    3.26
 -13  10  -4   19.73    3.79
 -14 -10  -4    9.68    2.28
 -14 -10  -4    5.59    2.78
 -14  10  -4   12.47    3.14
 -14  10  -4   12.32    3.75
 -15 -10  -4   16.67    2.63
 -17 -11   4   62.01    6.03
 -16 -11   4   84.56    6.18
 -16  11   4   70.51    8.25
 -15 -11   4   25.63    3.94
 -15  11   4   37.76    6.49
 -14 -11   4    2.97    2.32
 -14  11   4    4.80    3.95
 -13 -11   4   84.94    5.28
 -13  11   4   79.39    7.73
 -12 -11   4  358.35    9.11
 -12  11   4  351.10   14.32
 -11 -11   4  132.24    5.33
 -11  11   4  135.40    9.17
 -10 -11   4  768.20   11.22
 -10  11   4  757.24   19.35
  -9  11   4   52.16    2.41
   9  11  -4   66.40    3.73
  -9 -11   4   56.06    3.12
  -9  11   4   49.42    5.70
  -8  11   4   47.44    2.58
   8  11  -4   44.48    3.73
  -8 -11   4   33.72    1.91
  -8 -11   4   35.08    2.27
  -8  11   4   38.23    5.29
  -7  11   4  276.76    6.06
   7  11  -4  250.78    8.10
   7  11  -4  283.40    3.61
  -7 -11   4  261.07    4.85
  -7 -11   4  290.22    5.54
   7 -11  -4  235.53    6.69
  -7  11   4  285.53   12.07
  -6  11   4  655.45   17.82
   6  11  -4  679.58   13.55
  -6  11   4  716.90   10.16
   6  11  -4  690.44    4.72
  -6 -11   4  708.87    7.71
   6 -11  -4  668.95   12.82
  -5  11   4  314.40   12.54
   5  11  -4  331.88    2.63
   5 -11  -4  316.89    9.51
  -5  11   4  343.78    7.36
  -5 -11   4  313.42    4.59
   5  11  -4  290.49    8.67
  -4  11   4 1825.79   30.70
   4  11  -4 1795.50   19.84
  -3  11   4  143.79    9.04
  -3  11   4  148.20    5.26
   3  11  -4  145.97    5.59
  -2  11   4  168.67    9.79
  -2  11   4  181.04    5.95
   2  11  -4  187.41    6.17
  -1  11   4  377.82    8.57
   1 -11  -4  347.26    4.38
   1  11  -4  350.57    7.97
   0  11   4  649.90   11.39
   0 -11  -4  605.99    5.68
   0  11  -4  601.56   10.08
  -1 -11  -4   82.29    2.26
   1 -11   4   81.52    1.23
   1  11   4   83.52    4.46
  -1  11  -4   78.32    3.84
  -1  11  -4   80.63    2.49
  -2 -11  -4 1436.42    9.40
   2 -11   4 1503.65    6.68
  -2  11  -4 1400.63   14.71
   2  11   4 1433.70   17.25
  -2  11  -4 1553.79   12.13
  -3 -11  -4   37.79    1.80
   3 -11   4   44.40    1.49
  -3  11  -4   35.68    2.81
  -3  11  -4   41.24    2.30
   3  11   4   24.71    2.75
   4  11   4    0.94    1.67
  -4 -11  -4    7.08    1.17
  -4  11  -4    5.46    1.72
  -4  11  -4    6.12    1.43
   5  11   4  149.11    5.94
  -5 -11  -4  130.05    3.43
  -5  11  -4  129.22    4.95
  -5  11  -4  131.48    4.38
  -6 -11  -4 1278.75   10.98
   6  11   4 1326.05   17.87
  -6  11  -4 1217.59   14.60
  -6  11  -4 1214.97   13.39
   7  11   4  175.26    6.49
  -7 -11  -4  184.84    4.59
  -7  11  -4  160.60    5.71
  -7  11  -4  173.90    5.62
  -8 -11  -4  135.46    4.28
  -8  11  -4  117.75    5.19
   8  11   4  136.09    5.95
  -8  11  -4  122.75    5.11
  -9 -11  -4  106.60    4.13
  -9  11  -4   97.98    4.87
  -9  11  -4  101.88    5.09
   9  11   4  105.22    5.36
  10  11   4   22.99    3.07
 -10 -11  -4   21.71    2.59
 -10  11  -4   17.96    2.67
 -10  11  -4   23.09    3.09
 -11 -11  -4   40.61    3.40
 -11  11  -4   44.39    3.68
 -11  11  -4   43.88    4.23
  11  11   4   38.07    3.69
  12  11   4  194.28    7.61
 -12 -11  -4  177.86    6.35
 -12  11  -4  170.13    6.98
 -12  11  -4  163.49    7.61
 -13 -11  -4  343.87    9.40
 -13  11  -4  330.26    9.96
 -13  11  -4  364.16   11.67
 -14 -11  -4    7.91    2.21
 -14 -11  -4    6.56    2.68
 -14  11  -4    8.49    3.15
 -14  11  -4    8.26    3.72
 -15 -11  -4   88.80    4.46
 -17 -12   4    4.64    3.73
 -16 -12   4   12.45    3.46
 -16  12   4   17.81    6.16
 -15 -12   4   25.99    3.73
 -15  12   4   20.67    5.61
 -14 -12   4   25.36    3.41
 -14  12   4   33.06    6.50
 -13 -12   4  291.94    8.74
 -13  12   4  314.12   14.31
 -12 -12   4  246.51    7.56
 -12  12   4  267.73   13.01
 -11 -12   4   40.84    3.24
 -11  12   4   28.69    5.11
 -10 -12   4  110.40    4.43
 -10  12   4   96.50    7.90
  -9  12   4   53.05    2.74
   9  12  -4   62.62    3.98
  -9 -12   4   63.03    3.19
  -9  12   4   51.16    6.34
  -8  12   4   19.55    4.65
  -8  12   4   21.69    2.16
   8  12  -4   14.18    2.50
  -8 -12   4   16.29    1.84
  -7  12   4  367.55   13.83
   7  12  -4  315.63    9.44
   7  12  -4  346.31    3.82
  -7 -12   4  339.05    5.72
   7 -12  -4  324.19    8.21
  -6  12   4  193.23   10.30
   6  12  -4  187.13    2.41
  -6  12   4  211.25    5.99
   6  12  -4  149.61    6.76
  -6 -12   4  165.32    3.58
   6 -12  -4  172.95    6.91
  -5  12   4  160.39    9.52
  -5  12   4  174.25    5.67
   5  12  -4  177.65    1.88
  -5 -12   4  174.56    3.32
   5  12  -4  175.48    7.20
  -4  12   4  817.49   21.50
  -4  12   4  884.66   12.76
  -4 -12   4  726.79    7.88
  -4 -12   4  681.60    5.15
   4  12  -4  886.55   14.81
  -3  12   4  286.61   12.92
  -3  12   4  321.92    7.91
   3  12  -4  296.39    8.46
  -2  12   4   20.65    4.50
  -2  12   4   27.85    2.88
   2  12  -4   30.87    3.04
   1 -12  -4  425.70    5.01
  -1  12   4  438.96    9.77
   1  12  -4  404.98    8.97
   0 -12  -4  157.64    3.03
   0  12   4  184.09    6.42
   0  12  -4  163.83    5.75
  -1 -12  -4   24.55    1.42
   1 -12   4   24.41    0.74
   1  12   4   21.38    2.66
  -1  12  -4   25.26    2.61
  -1  12  -4   26.43    1.75
   2 -12   4  375.56    3.46
  -2 -12  -4  367.10    4.91
   2  12   4  340.79    8.91
  -2  12  -4  347.00    7.93
  -2  12  -4  393.66    6.42
  -3 -12  -4  680.36    6.78
   3 -12   4  682.40    5.51
  -3  12  -4  671.47   10.95
  -3  12  -4  722.26    9.26
  -4  12  -4  112.02    4.80
  -4  12  -4  116.78    4.08
   4  12   4  133.87    5.70
  -4 -12  -4  115.81    3.07
  -5 -12  -4  261.17    4.92
  -5  12  -4  240.30    6.76
  -5  12  -4  232.36    6.11
   5  12   4  271.21    8.10
   6  12   4  343.09    9.20
  -6  12  -4  307.89    7.75
  -6 -12  -4  327.54    5.71
  -6  12  -4  309.21    7.33
  -7 -12  -4  127.74    3.92
  -7  12  -4  122.92    5.18
  -7  12  -4  130.30    5.23
   7  12   4  139.83    6.13
   8  12   4   82.33    4.91
  -8 -12  -4   83.60    3.48
  -8  12  -4   72.82    4.32
  -8  12  -4   84.85    4.61
  -9 -12  -4  291.89    6.57
  -9  12  -4  281.69    8.03
   9  12   4  285.39    8.65
  -9  12  -4  281.08    8.38
  10  12   4   82.77    4.98
 -10 -12  -4   69.15    3.75
 -10  12  -4   65.26    4.34
 -10  12  -4   69.30    4.76
  11  12   4    9.76    2.64
 -11 -12  -4   15.36    2.56
 -11  12  -4   15.84    2.92
 -11  12  -4   18.01    3.26
  12  12   4   17.27    3.13
 -12 -12  -4   13.96    2.66
 -12  12  -4   15.84    3.40
 -12  12  -4   14.55    3.57
 -13 -12  -4    1.56    2.53
 -13  12  -4    4.72    2.90
 -13  12  -4    2.72    3.26
  13  12   4    4.27    2.62
 -14 -12  -4    5.17    2.27
 -14 -12  -4    4.67    3.01
 -14  12  -4    4.03    3.17
 -14  12  -4    3.69    3.20
 -15 -12  -4  126.86    5.21
 -16 -13   4    8.54    3.08
 -15 -13   4  366.16   10.93
 -15  13   4  421.21   18.40
 -14 -13   4   95.10    5.62
 -14  13   4  118.46   10.08
 -13 -13   4   51.12    4.10
 -13  13   4   55.28    6.95
 -12 -13   4  368.85    8.84
 -12  13   4  383.00   15.38
 -11  13   4   -0.41    3.76
 -11 -13   4    2.45    1.80
 -10  13   4    8.36    3.90
 -10 -13   4    8.21    1.85
  -9  13   4  609.48    9.45
   9  13  -4  522.93   11.10
  -9 -13   4  557.97    8.69
  -9  13   4  560.43   17.62
   8  13  -4  330.43    9.53
  -8 -13   4  312.41    5.93
  -8  13   4  345.83    7.59
  -8  13   4  304.49   13.07
  -7  13   4   29.89    4.93
   7  13  -4   27.65    3.55
   7  13  -4   35.27    1.33
  -7 -13   4   39.69    2.13
  -7  13   4   37.36    2.95
  -6  13   4  646.12   18.98
   6  13  -4  638.60   14.29
   6  13  -4  669.42    4.45
  -6 -13   4  679.03    6.93
  -6  13   4  687.61   11.32
   5  13  -4   12.39    2.96
  -5  13   4    4.50    3.68
  -5  13   4    7.55    2.02
   5  13  -4   10.36    0.55
  -5 -13   4   10.56    1.04
  -4  13   4   89.03    4.53
  -4  13   4   84.30    7.59
  -4 -13   4   73.21    2.57
  -4 -13   4   60.31    1.45
   4  13  -4   89.92    5.31
  -3  13   4  364.38    8.77
  -3  13   4  352.99   14.51
   3  13  -4  323.40    9.16
  -2  13   4 1890.71   20.27
  -2  13   4 1754.31   32.04
   2  13  -4 1859.12   20.37
   1 -13  -4  644.73    6.24
  -1  13   4  651.26   12.30
   1  13  -4  617.00   11.68
   0 -13  -4  685.18    6.36
   0  13   4  764.70   13.40
   0  13  -4  717.06   12.11
  -1 -13  -4  173.65    3.38
   1 -13   4  169.72    1.91
  -1  13  -4  172.82    6.09
   1  13   4  193.11    6.94
  -1  13  -4  170.85    4.32
  -2 -13  -4  549.84    6.08
   2 -13   4  568.67    4.42
   2  13   4  566.88   11.69
  -2  13  -4  539.62   10.41
  -2  13  -4  614.04    8.22
  -3 -13  -4  200.83    3.83
   3 -13   4  199.20    3.16
   3  13   4  218.94    7.38
  -3  13  -4  192.91    6.51
  -3  13  -4  207.14    5.43
  -4 -13  -4  743.24    7.68
  -4  13  -4  710.72   11.89
   4  13   4  733.64   13.54
  -4  13  -4  780.16   11.01
  -5  13  -4  785.64   12.53
  -5  13  -4  843.32   11.73
   5  13   4  868.39   14.70
  -5 -13  -4  836.16    8.53
   6  13   4   72.02    4.70
  -6 -13  -4   73.28    2.91
  -6  13  -4   61.73    3.98
  -6  13  -4   68.91    3.90
  -7  13  -4    4.99    2.13
  -7 -13  -4    4.94    1.46
   7  13   4    3.52    2.26
  -7  13  -4    5.08    2.08
   8  13   4  356.15    9.76
  -8  13  -4  313.44    8.64
  -8 -13  -4  330.02    6.51
  -8  13  -4  339.78    8.95
  -9 -13  -4   91.72    3.92
  -9  13  -4   86.60    4.93
   9  13   4   94.04    5.22
  -9  13  -4   96.54    5.37
 -10 -13  -4  230.15    6.39
 -10  13  -4  221.85    7.89
 -10  13  -4  232.12    8.32
  10  13   4  237.17    8.25
  11  13   4  323.50    9.67
 -11 -13  -4  323.11    8.08
 -11  13  -4  316.18    9.64
 -11  13  -4  331.09   10.47
 -12 -13  -4    2.80    2.24
  12  13   4    1.78    2.27
 -12  13  -4    4.16    2.66
 -12  13  -4    2.15    2.76
 -13 -13  -4    5.08    2.62
  13  13   4    4.21    2.86
 -13  13  -4    3.20    2.95
 -13  13  -4    3.11    3.15
 -14  13  -4  198.84    8.91
 -14  13  -4  231.73   10.74
 -15 -13  -4   25.28    2.98
 -16 -14   4   30.83    4.37
 -15 -14   4    2.92    2.70
 -15  14   4    7.13    5.45
 -14 -14   4    6.40    2.72
 -14  14   4    8.86    5.03
 -13 -14   4    3.14    2.07
 -13  14   4   11.15    4.78
 -12  14   4    4.25    4.11
 -12 -14   4    5.05    2.16
 -11  14   4    5.91    3.83
 -11 -14   4    6.42    2.03
  10  14  -4    2.82    1.84
 -10  14   4    1.46    3.56
 -10 -14   4    0.40    1.51
   9  14  -4   67.00    4.62
  -9 -14   4   72.17    3.26
  -9  14   4   78.95    3.85
  -9  14   4   72.15    7.28
   8  14  -4  228.42    8.38
  -8 -14   4  230.32    5.00
  -8  14   4  242.05    6.70
  -8  14   4  232.07   12.04
  -7  14   4  149.29    9.85
   7  14  -4  182.61    7.98
  -7 -14   4  166.43    3.88
  -7  14   4  142.19    5.45
  -6  14   4   29.30    5.39
   6  14  -4   39.15    4.42
   6  14  -4   33.27    1.09
  -6 -14   4   38.73    1.77
  -6  14   4   29.57    2.96
   5  14  -4   43.32    4.40
  -5  14   4   44.19    6.14
   5  14  -4   46.28    0.99
  -5 -14   4   39.13    1.54
  -5  14   4   49.78    3.54
  -4  14   4   28.30    2.94
  -4 -14   4   21.03    1.47
  -4  14   4   26.29    5.30
  -4 -14   4   17.48    0.83
   4  14  -4   23.32    3.36
  -3  14   4   15.18    5.18
  -3  14   4   10.54    2.41
   3  14  -4   10.15    2.69
  -2  14   4  166.72    6.48
  -2  14   4  148.02   10.43
   2  14  -4  138.28    6.48
   1 -14  -4    8.25    1.10
  -1  14   4    9.19    2.37
   1  14  -4   10.28    2.57
   0 -14  -4    5.13    0.97
   0  14   4   10.30    2.41
   0  14  -4    6.91    2.19
  -1  14  -4  290.08    6.17
  -1 -14  -4  294.85    4.41
   1  14   4  310.44    9.12
   1 -14   4  282.66    2.57
  -1  14  -4  285.34    8.35
  -2 -14  -4    7.94    1.13
   2 -14   4   10.26    0.82
  -2  14  -4   10.69    2.40
   2  14   4    8.31    2.45
  -2  14  -4   13.65    2.01
  -3 -14  -4   66.74    2.42
   3 -14   4   68.27    1.99
   3  14   4   63.34    4.31
  -3  14  -4   66.35    4.29
  -3  14  -4   64.19    3.31
   4  14   4    6.52    2.27
  -4 -14  -4    7.36    1.39
  -4  14  -4    2.81    1.97
  -4  14  -4    4.70    1.75
  -5 -14  -4  554.26    7.17
  -5  14  -4  539.82   11.11
   5  14   4  559.03   12.02
  -5  14  -4  555.15   10.00
  -6 -14  -4  310.00    5.67
  -6  14  -4  301.23    8.51
  -6  14  -4  301.45    7.94
   6  14   4  346.74    9.69
   7  14   4   38.23    3.59
  -7 -14  -4   33.25    2.37
  -7  14  -4   33.19    3.32
  -7  14  -4   33.32    3.28
   8  14   4   91.33    5.35
  -8 -14  -4   89.77    3.64
  -8  14  -4   89.75    5.16
  -8  14  -4   87.00    4.99
   9  14   4    5.24    2.53
  -9 -14  -4    2.40    1.79
  -9  14  -4   -1.63    2.13
  -9  14  -4    2.19    2.21
 -10 -14  -4    7.85    2.15
 -10  14  -4    9.54    2.82
  10  14   4   11.22    2.88
 -10  14  -4   10.22    2.95
 -11 -14  -4    3.60    2.15
  11  14   4    6.49    2.55
 -11  14  -4    4.27    2.73
 -11  14  -4    8.29    3.01
  12  14   4   26.79    3.53
 -12 -14  -4   17.92    2.83
 -12  14  -4   26.07    3.96
 -12  14  -4   20.91    3.93
  13  14   4    6.39    2.96
 -13 -14  -4    6.83    2.51
 -13  14  -4    7.73    3.32
 -13  14  -4    7.64    3.55
  14  14   4   96.99    6.17
 -14  14  -4   94.40    6.85
 -14  14  -4   86.84    7.18
 -15 -15   4  148.81    7.30
 -15  15   4  160.60   12.26
 -14 -15   4   89.72    5.38
 -14  15   4   97.46    9.99
 -13  15   4    4.61    4.92
 -13 -15   4    2.16    2.10
 -12 -15   4  115.74    5.13
 -12  15   4  134.14   10.07
 -11  15   4   20.48    5.41
 -11 -15   4   18.64    2.44
 -10  15   4   23.56    5.18
 -10 -15   4   20.35    2.28
  10  15  -4   22.24    3.06
   9  15  -4  400.91   10.67
  -9 -15   4  415.48    7.41
  -9  15   4  397.47    8.75
  -9  15   4  374.41   15.54
  -8  15   4  949.57   23.62
   8  15  -4  883.98   16.86
  -8 -15   4  903.36    9.74
  -8  15   4  991.71   14.25
  -7  15   4  322.36   14.27
   7  15  -4  337.63   11.18
  -7 -15   4  314.17    5.24
  -7  15   4  342.13    8.70
  -6  15   4   71.93    7.36
   6  15  -4   66.66    5.43
   6  15  -4   69.01    1.48
  -6 -15   4   69.76    2.29
  -6  15   4   68.16    4.30
  -5  15   4    4.53    3.82
   5  15  -4    3.87    2.73
  -5  15   4    1.75    1.78
  -5 -15   4    4.84    0.79
  -4 -15   4  167.58    3.70
  -4  15   4  201.34   11.69
   4  15  -4  200.44    8.43
  -4  15   4  212.49    7.22
  -3  15   4  413.16   10.24
  -3  15   4  390.91   16.13
   3  15  -4  387.14   11.14
  -2  15   4 1722.66   20.97
   2  15  -4 1643.35   21.80
  -1  15   4  412.58   10.50
   1 -15  -4  408.00    5.27
   1  15  -4  401.31   10.61
   0  15   4  452.05   11.02
   0 -15  -4  414.09    5.20
   0  15  -4  435.46   10.68
  -1  15  -4   28.91    2.46
   1  15   4   34.21    3.65
  -1 -15  -4   27.42    1.57
   1 -15   4   25.01    0.93
  -1  15  -4   27.88    3.32
   2  15   4  109.32    5.80
  -2 -15  -4  124.46    3.14
   2 -15   4  133.88    2.42
  -2  15  -4  117.44    5.72
  -2  15  -4  134.79    4.83
  -3 -15  -4   36.29    1.95
   3  15   4   46.01    4.04
   3 -15   4   40.04    1.62
  -3  15  -4   39.65    3.73
  -3  15  -4   44.29    3.07
  -4 -15  -4 1587.18   11.52
   4  15   4 1707.02   21.90
  -4  15  -4 1585.11   19.67
  -4  15  -4 1599.83   17.00
  -5 -15  -4 1100.12   10.17
  -5  15  -4 1024.87   15.86
   5  15   4 1144.22   17.72
  -5  15  -4 1088.69   14.93
   6  15   4    4.95    2.44
  -6 -15  -4    5.54    1.46
  -6  15  -4    4.27    2.23
  -6  15  -4    6.07    2.00
   7  15   4   26.29    3.41
  -7 -15  -4   28.40    2.28
  -7  15  -4   26.64    3.38
  -7  15  -4   33.23    3.36
   8  15   4  252.24    8.98
  -8 -15  -4  226.42    5.57
  -8  15  -4  216.87    7.92
  -8  15  -4  227.50    8.08
  -9 -15  -4   93.21    4.08
  -9  15  -4   86.61    5.45
   9  15   4   90.49    5.57
  -9  15  -4   88.55    5.56
 -10 -15  -4  191.07    5.83
  10  15   4  192.80    7.85
 -10  15  -4  165.50    7.48
 -10  15  -4  182.08    7.94
 -11 -15  -4  377.18    8.94
 -11  15  -4  356.07   11.03
 -11  15  -4  395.70   12.24
  11  15   4  412.88   11.40
  12  15   4   13.45    3.06
 -12 -15  -4   12.34    2.77
 -12  15  -4   13.29    3.43
 -12  15  -4    9.05    3.34
 -13 -15  -4   25.65    3.42
 -13  15  -4   22.42    4.25
 -13  15  -4   22.81    4.63
  13  15   4   24.01    3.72
  14  15   4   24.04    4.00
 -14  15  -4   20.36    4.37
 -14  15  -4   20.29    4.67
 -15  16   4   45.97    7.87
 -14 -16   4   48.94    4.26
 -14  16   4   59.53    8.18
 -13 -16   4   71.03    4.51
 -13  16   4   78.06    8.34
 -12 -16   4  276.55    7.59
 -12  16   4  282.83   14.72
 -11 -16   4  275.18    6.98
 -11  16   4  287.70   14.18
 -10 -16   4  109.59    4.34
  10  16  -4   97.66    5.50
 -10  16   4   98.89    8.90
  -9  16   4    7.13    4.14
  -9  16   4    2.03    2.00
  -9 -16   4    5.55    1.57
   9  16  -4    5.76    2.68
  -8  16   4   10.73    4.79
  -8  16   4   10.56    2.31
   8  16  -4   17.13    3.48
  -8 -16   4   13.21    1.58
  -7  16   4   13.35    2.62
  -7  16   4   12.13    4.74
   7  16  -4   17.05    3.63
  -7 -16   4   14.81    1.47
  -6  16   4  179.30   11.12
   6  16  -4  202.68    9.19
  -6 -16   4  197.24    3.58
  -6  16   4  181.22    6.87
   5  16  -4  753.29   17.19
  -5  16   4  760.43   22.52
  -5 -16   4  771.53   11.91
  -5 -16   4  710.25    5.84
  -5  16   4  781.32   13.99
  -4  16   4  619.80   20.78
  -4  16   4  621.54   12.67
   4  16  -4  639.00   15.42
  -4 -16   4  551.40    6.74
  -3  16   4  222.12   12.77
  -3  16   4  229.57    7.98
  -2  16   4  175.15    7.17
   2  16  -4  214.01    8.54
  -1  16   4   45.42    3.94
   1 -16  -4   33.68    1.84
   1  16  -4   35.65    3.95
   0  16   4  230.29    8.31
   0 -16  -4  213.09    3.89
   0  16  -4  215.50    8.11
  -1  16  -4  274.09    7.05
   1  16   4  292.66    9.28
  -1 -16  -4  273.52    4.48
   1 -16   4  265.17    2.91
  -1  16  -4  274.45    8.81
   2  16   4  565.44   12.89
   2 -16   4  511.81    4.82
  -2  16  -4  495.30   11.53
  -2 -16  -4  496.88    6.06
  -2  16  -4  492.80    9.57
  -3 -16  -4  141.25    3.45
   3  16   4  172.54    7.47
   3 -16   4  137.18    2.94
  -3  16  -4  140.22    6.48
  -3  16  -4  158.17    5.66
  -4 -16  -4  188.43    4.16
  -4  16  -4  192.81    7.56
  -4  16  -4  167.91    5.92
  -5 -16  -4  126.75    3.56
   5  16   4  134.82    6.55
  -5  16  -4  133.20    6.34
  -5  16  -4  140.45    5.85
  -6 -16  -4   39.55    2.46
  -6  16  -4   32.93    3.62
   6  16   4   39.55    4.01
  -6  16  -4   44.55    3.79
  -7 -16  -4  139.11    4.28
  -7  16  -4  129.98    6.44
  -7  16  -4  136.79    6.18
   7  16   4  138.29    6.66
   8  16   4  108.74    6.09
  -8 -16  -4  105.11    4.01
  -8  16  -4   96.03    5.76
  -8  16  -4   96.54    5.62
   9  16   4   87.72    5.53
  -9 -16  -4   79.38    3.73
  -9  16  -4   77.50    5.45
  -9  16  -4   80.52    5.53
  10  16   4   30.34    3.71
 -10 -16  -4   29.19    2.80
 -10  16  -4   33.17    4.24
 -10  16  -4   28.67    4.00
 -11 -16  -4    2.37    1.96
 -11  16  -4    8.60    3.19
 -11  16  -4    4.02    3.11
  11  16   4   10.23    3.14
  12  16   4   24.11    3.66
 -12 -16  -4   20.24    2.91
 -12  16  -4   25.65    4.32
 -12  16  -4   22.87    4.49
 -13 -16  -4    6.94    2.75
  13  16   4    9.32    3.19
 -13  16  -4    5.88    3.30
 -13  16  -4    8.86    3.94
  14  16   4   16.40    3.63
 -14  16  -4   14.67    4.16
 -14  16  -4   20.91    5.02
 -15  17   4    5.34    5.70
 -14  17   4    6.48    6.09
 -13  17   4   29.79    6.58
 -13 -17   4   27.17    3.10
 -12 -17   4  101.13    4.73
 -12  17   4  102.68    9.47
 -11 -17   4  368.74    8.06
 -11  17   4  394.68   17.01
 -10 -17   4 1098.01   12.68
  10  17  -4 1107.51   18.01
 -10  17   4 1162.88   28.78
  -9  17   4   57.25    7.28
   9  17  -4   47.99    4.56
  -9 -17   4   50.17    2.77
  -9  17   4   62.45    4.27
  -8  17   4  445.77   17.80
   8  17  -4  429.88   12.75
  -8 -17   4  444.34    6.74
  -8  17   4  474.51   11.03
  -7  17   4   82.94    8.43
   7  17  -4   75.28    6.06
  -7 -17   4   88.68    2.84
  -7  17   4   70.78    4.76
  -6  17   4  577.16   19.84
   6  17  -4  590.72   15.96
  -6 -17   4  615.18    6.24
  -6  17   4  585.46   12.57
   5  17  -4   42.70    4.82
  -5  17   4   55.18    7.55
  -5 -17   4   42.58    3.21
  -5 -17   4   44.38    1.54
  -5  17   4   58.68    4.41
  -4  17   4 1285.08   29.86
  -4  17   4 1396.95   19.63
   4  17  -4 1299.48   23.09
  -3  17   4  412.83   17.15
   3  17  -4  394.64   12.41
  -3  17   4  456.54   11.32
  -2  17   4  130.29    6.53
   2 -17  -4  142.34    3.33
   2  17  -4  131.41    7.16
  -1  17   4   88.48    5.54
   1 -17  -4   85.40    2.61
   1  17  -4   79.31    5.54
   0  17   4 1203.77   19.01
   0 -17  -4 1116.59    8.77
   0  17  -4 1157.82   19.13
  -1  17  -4  404.88    8.93
   1  17   4  403.56   11.29
  -1 -17  -4  392.32    5.45
   1 -17   4  354.95    3.65
  -1  17  -4  403.93   11.19
  -2  17  -4  131.44    5.45
   2  17   4  132.99    6.81
  -2 -17  -4  122.08    3.24
   2 -17   4  125.48    2.66
  -2  17  -4  114.77    6.24
  -3 -17  -4  169.03    3.79
   3  17   4  185.47    7.79
   3 -17   4  158.23    3.27
  -3  17  -4  163.84    7.40
  -3  17  -4  166.60    6.18
  -4 -17  -4  298.07    5.25
   4  17   4  322.14   10.12
  -4  17  -4  282.43    9.12
  -4  17  -4  289.07    8.17
  -5 -17  -4   67.93    2.81
   5  17   4   68.56    5.05
  -5  17  -4   59.75    4.59
  -5  17  -4   76.17    4.62
  -6  17  -4 1003.39   17.68
  -6 -17  -4 1016.22   10.44
   6  17   4 1023.70   17.91
  -6  17  -4 1047.58   16.42
  -7 -17  -4  345.62    6.49
  -7  17  -4  369.51   10.89
  -7  17  -4  395.79   10.64
   7  17   4  385.74   11.25
   8  17   4  108.48    6.28
  -8 -17  -4   93.52    3.80
  -8  17  -4  109.82    6.42
  -8  17  -4  103.85    6.07
   9  17   4   92.32    5.91
  -9 -17  -4   90.81    4.04
  -9  17  -4   89.71    6.21
  -9  17  -4   89.26    5.87
  10  17   4   54.45    4.75
 -10 -17  -4   48.27    3.37
 -10  17  -4   53.54    5.37
 -10  17  -4   48.55    4.88
 -11 -17  -4   80.00    4.51
  11  17   4   84.27    5.65
 -11  17  -4   73.97    6.01
 -11  17  -4   72.28    5.93
  12  17   4   45.26    4.63
 -12 -17  -4   40.58    3.66
 -12  17  -4   40.56    4.97
 -12  17  -4   42.63    5.46
  13  17   4  329.19   10.91
 -13 -17  -4  299.82    9.08
 -13  17  -4  273.42   11.23
 -13  17  -4  289.02   12.29
  14  17   4   12.71    3.57
 -14  17  -4    8.18    4.05
 -14  17  -4    2.09    4.07
 -14  18   4   11.16    5.85
 -13  18   4    2.70    4.90
 -12  18   4   23.33    6.54
 -12 -18   4   23.15    2.76
 -11  18   4   28.29    6.64
 -11 -18   4   32.89    2.83
 -10  18   4   18.82    5.78
 -10 -18   4   15.88    2.13
  10  18  -4   18.98    3.35
  -9  18   4   17.62    2.89
  -9  18   4   12.55    5.36
  -9 -18   4   14.15    1.77
   9  18  -4   13.96    3.29
  -8  18   4   -0.23    2.06
  -8  18   4    7.76    4.72
   8  18  -4    1.45    3.08
  -8 -18   4    0.85    1.15
  -7  18   4   23.04    5.17
   7  18  -4   12.10    3.75
  -7 -18   4   13.40    1.42
  -7  18   4   24.19    3.26
  -6  18   4   80.98    8.37
   6  18  -4   57.46    5.82
  -6 -18   4   68.97    2.22
  -6  18   4   80.43    5.19
  -5 -18   4   72.51    4.11
   5  18  -4   76.08    6.47
  -5  18   4   76.30    8.68
  -5 -18   4   71.95    1.95
  -5  18   4   75.65    4.97
  -4  18   4   16.57    2.97
   4  18  -4   14.18    3.67
  -4  18   4   17.39    5.56
  -4 -18   4   13.56    1.34
  -3  18   4  114.42    6.19
   3  18  -4   93.18    6.68
   2 -18  -4  180.21    3.84
   2  18  -4  161.17    8.06
  -2  18   4  146.91    6.92
   1 -18  -4    1.12    1.00
  -1  18   4    5.70    2.39
   1  18  -4    6.92    2.95
   0 -18  -4    3.61    1.15
   0  18   4    4.94    2.58
   0 -18   4    1.81    0.46
   0  18  -4    5.90    2.74
  -1  18  -4    4.21    2.08
  -1 -18  -4    7.94    1.26
   1  18   4   12.50    3.10
   1 -18   4    7.34    0.81
  -1  18  -4    9.74    2.99
  -2  18  -4  421.89    9.97
   2 -18   4  339.11    4.38
   2  18   4  380.43   11.28
  -2 -18  -4  377.43    5.58
  -2  18  -4  385.24   11.36
  -3  18  -4    2.74    2.18
  -3 -18  -4    3.06    1.24
   3  18   4    3.30    2.68
  -3  18  -4    5.88    2.82
  -4 -18  -4   19.27    1.74
  -4  18  -4   19.19    3.45
   4  18   4   20.29    3.39
  -4  18  -4   25.15    3.01
  -5 -18  -4  100.06    3.27
   5  18   4  113.07    6.48
  -5  18  -4  101.95    5.96
  -5  18  -4  121.21    5.79
  -6 -18  -4   26.85    2.15
   6  18   4   22.19    3.49
  -6  18  -4   27.42    4.00
  -6  18  -4   35.65    3.89
   7  18   4   13.87    3.24
  -7 -18  -4   10.92    1.78
  -7  18  -4   11.58    3.17
  -7  18  -4   13.22    3.10
  -8 -18  -4   42.85    2.81
  -8  18  -4   35.42    4.23
  -8  18  -4   51.06    4.69
   8  18   4   42.79    4.39
  -9 -18  -4    0.86    1.68
   9  18   4    3.45    2.70
  -9  18  -4    1.69    2.83
  -9  18  -4    2.19    2.88
  10  18   4    3.01    2.80
 -10 -18  -4    2.01    1.96
 -10  18  -4    2.64    2.89
 -10  18  -4    2.74    3.04
  11  18   4    6.39    2.85
 -11 -18  -4    3.72    2.11
 -11  18  -4    1.83    3.17
 -11  18  -4    4.00    3.37
 -12 -18  -4   35.18    3.52
 -12  18  -4   33.63    5.04
 -12  18  -4   41.79    5.68
  12  18   4   36.41    4.40
  13  18   4    5.88    3.16
 -13  18  -4   -1.47    3.45
 -13  18  -4    7.37    4.23
  14  18   4    7.93    3.03
 -14  18  -4   12.51    4.55
 -14  18  -4   11.16    4.83
 -14  19   4   92.34   10.32
 -13  19   4  392.38   18.93
 -12  19   4   42.20    7.20
 -11 -19   4  195.16    5.91
 -11  19   4  194.98   13.35
 -10  19   4  427.85   18.33
 -10 -19   4  421.61    7.83
  -9  19   4    1.04    2.07
  -9  19   4    7.72    5.73
  -9 -19   4    1.96    1.35
   9  19  -4    0.64    2.71
  -8  19   4  131.72   10.66
   8  19  -4  132.51    7.88
  -8 -19   4  125.53    3.68
  -8  19   4  144.41    6.78
  -7  19   4   40.33    6.65
   7  19  -4   53.18    5.60
  -7 -19   4   59.09    2.37
  -7  19   4   50.29    4.42
   6  19  -4  429.14   14.59
  -6 -19   4  440.71    5.29
  -6  19   4  408.94   11.48
  -5  19   4    2.08    2.20
  -5  19   4    5.04    4.75
   5  19  -4    5.59    3.42
  -5 -19   4    2.57    0.70
   4  19  -4 1609.06   27.18
  -4  19   4 1601.54   35.32
  -4  19   4 1631.12   22.71
  -3  19   4  555.21   20.82
  -3 -19   4  344.61    3.77
  -3  19   4  559.25   13.58
   3  19  -4  544.71   15.71
   2 -19  -4  269.84    4.69
  -2 -19   4  139.62    1.65
   2  19  -4  248.34   10.68
  -2  19   4  237.17    8.93
   1 -19  -4   14.97    1.49
  -1 -19   4    9.06    0.43
  -1 -19   4    8.60    0.58
  -1  19   4   12.46    3.10
   1  19  -4   12.46    3.37
   0  19   4  976.45   18.33
   0 -19  -4  938.30    8.49
   0  19  -4  928.05   18.77
  -1  19  -4    2.93    2.15
  -1 -19  -4    6.23    1.28
   1  19   4    8.37    2.74
   1 -19   4    5.72    0.83
  -1  19  -4    0.78    2.58
  -2  19  -4  115.64    5.74
   2  19   4  118.88    6.82
  -2 -19  -4  100.71    3.02
   2 -19   4   99.16    2.63
  -2  19  -4  120.25    6.99
   3  19   4  332.25   10.86
  -3  19  -4  304.55   10.70
  -3 -19  -4  302.32    5.23
  -3  19  -4  304.36    9.08
  -4 -19  -4  117.37    3.58
   4  19   4  117.36    6.73
  -4  19  -4  116.20    6.80
  -4  19  -4  130.75    6.21
  -5 -19  -4   14.21    1.73
  -5  19  -4    7.64    2.89
  -5  19  -4    9.77    2.69
  -6 -19  -4  329.44    6.31
   6  19   4  353.87   11.16
  -6  19  -4  314.95   10.84
  -6  19  -4  334.02   10.21
  -7 -19  -4  200.51    5.22
  -7  19  -4  193.26    8.79
   7  19   4  228.98    9.01
  -7  19  -4  205.17    8.18
  -8 -19  -4   57.54    3.19
  -8  19  -4   66.28    5.89
  -8  19  -4   71.51    5.51
   8  19   4   58.95    4.94
   9  19   4  181.05    8.14
  -9 -19  -4  178.06    5.49
  -9  19  -4  172.79    8.88
  -9  19  -4  166.00    8.12
 -10 -19  -4    1.93    2.00
 -10  19  -4    1.83    3.12
 -10  19  -4    1.77    3.01
  10  19   4    3.72    3.02
  11  19   4    8.31    2.89
 -11 -19  -4    7.62    2.39
 -11  19  -4    6.57    3.48
 -11  19  -4    4.44    3.20
 -12 -19  -4  150.02    6.33
 -12  19  -4  146.17    8.72
  12  19   4  165.40    7.94
 -12  19  -4  135.33    8.76
  13  19   4   79.49    5.92
 -13  19  -4   66.67    6.77
 -13  19  -4   60.70    6.86
 -14  20   4   70.44    9.58
 -13  20   4   45.90    7.69
 -12  20   4  180.08   13.58
 -11  20   4  149.80   12.18
 -10  20   4   17.45    6.44
 -10 -20   4   23.73    2.27
  -9  20   4   27.57    6.72
   9  20  -4   30.77    4.66
  -9 -20   4   26.29    2.16
  -9  20   4   39.75    4.13
  -8  20   4   47.59    7.34
   8  20  -4   41.04    5.00
  -8 -20   4   33.83    2.13
  -8  20   4   43.44    4.27
  -7  20   4    6.83    2.55
  -7  20   4    5.62    4.53
   7  20  -4    7.59    3.87
  -7 -20   4    4.90    1.18
  -6  20   4  243.85   14.74
   6  20  -4  219.96   10.68
  -6 -20   4  217.16    3.72
  -6  20   4  235.84    9.09
   5  20  -4  556.14   16.84
  -5  20   4  527.92   20.94
  -5 -20   4  486.37    4.80
  -5  20   4  530.32   13.51
   4  20  -4   73.30    6.42
  -4  20   4   61.11    8.31
  -4  20   4   65.22    5.19
  -3  20   4   63.03    7.97
  -3 -20   4   41.80    1.60
  -3  20   4   71.38    5.41
   3  20  -4   64.22    6.43
   2  20  -4   16.32    3.92
  -2  20   4   17.50    3.23
   2 -20  -4   15.72    1.52
  -2 -20   4   11.39    0.54
  -2 -20   4    9.19    0.70
   1 -20  -4   38.40    1.97
  -1 -20   4   31.06    1.12
   1  20  -4   43.64    5.13
  -1  20   4   49.08    4.89
   0  20   4  237.80    9.43
   0 -20  -4  213.41    4.24
   0 -20   4  196.96    1.98
   0 -20   4  170.01    2.82
   0  20  -4  208.72    9.59
   1  20   4  428.32   12.54
  -1 -20  -4  454.02    6.31
  -1  20  -4  423.34   13.10
  -2  20  -4  394.05   10.97
   2  20   4  378.64   11.74
  -2 -20  -4  385.83    5.84
  -2  20  -4  388.83   12.55
  -3  20  -4    4.95    2.76
  -3 -20  -4    3.82    1.21
   3  20   4    9.96    3.24
  -3  20  -4    2.79    2.88
  -4 -20  -4   47.80    2.51
   4  20   4   60.00    5.35
  -4  20  -4   44.90    4.71
  -4  20  -4   43.87    4.37
  -5 -20  -4   58.11    2.76
   5  20   4   62.98    5.22
  -5  20  -4   53.37    5.20
  -5  20  -4   68.89    4.98
  -6 -20  -4   25.64    2.19
  -6  20  -4   22.27    4.04
  -6  20  -4   17.98    3.51
  -7 -20  -4   96.57    3.81
   7  20   4  119.97    6.95
  -7  20  -4   86.82    6.64
  -7  20  -4   95.50    6.17
  -8 -20  -4  134.12    4.63
  -8  20  -4  127.85    7.78
   8  20   4  122.72    7.18
  -8  20  -4  128.82    7.20
   9  20   4   56.82    5.15
  -9 -20  -4   54.20    3.38
  -9  20  -4   48.76    5.55
  -9  20  -4   59.30    5.54
 -10 -20  -4   17.51    2.59
 -10  20  -4    8.44    3.42
  10  20   4   15.46    3.52
 -10  20  -4   10.10    3.41
  11  20   4    3.12    2.75
 -11 -20  -4    4.89    2.37
 -11  20  -4    5.02    3.79
 -11  20  -4    0.40    3.42
 -12 -20  -4    4.92    2.65
  12  20   4    5.37    2.92
 -12  20  -4    8.00    3.96
 -12  20  -4    7.60    4.05
  13  20   4    2.95    3.08
 -13  20  -4    3.00    3.84
 -13  20  -4    2.10    3.99
 -13  21   4   25.23    6.85
 -12  21   4   85.04    9.78
 -11  21   4    6.36    5.49
 -10  21   4    3.18    5.59
  -9  21   4  212.69   14.14
   9  21  -4  201.04    9.53
  -9  21   4  198.37    8.47
   8  21  -4  359.44   13.25
  -8  21   4  371.52   17.85
  -8 -21   4  352.76    6.01
  -8  21   4  372.45   11.46
  -7  21   4   37.12    6.92
   7  21  -4   34.41    5.22
  -7 -21   4   38.07    2.02
  -7  21   4   34.73    4.31
  -6  21   4  129.75   11.53
   6  21  -4  113.55    8.14
  -6 -21   4  116.83    2.85
  -6  21   4  128.85    6.99
  -5  21   4    4.59    2.66
  -5  21   4    0.11    5.61
   5  21  -4    5.94    3.93
  -5 -21   4    5.74    0.81
   4  21  -4  181.67   10.24
  -4  21   4  166.92   12.29
  -4 -21   4  141.56    2.27
  -4  21   4  166.99    8.07
   3  21  -4   43.37    5.62
  -3  21   4   35.48    7.20
  -3  21   4   31.91    4.32
   2 -21  -4  431.32    6.01
  -2  21   4  427.00   12.67
   2  21  -4  417.91   14.39
   1  21  -4   13.76    4.07
  -1  21   4   17.58    3.58
   1 -21  -4   16.19    1.56
   0  21   4   84.04    6.17
   0 -21  -4   77.93    2.75
   0 -21   4   70.30    1.28
   0  21  -4   73.30    6.52
   1  21   4   35.25    4.44
   1 -21   4   25.82    0.92
  -1 -21  -4   25.40    1.81
  -1  21  -4   17.08    3.91
  -2  21  -4  122.05    6.74
   2  21   4  118.23    7.02
  -2  21  -4  124.28    7.58
  -2 -21  -4  121.05    3.46
  -3  21  -4   15.60    3.41
  -3 -21  -4   19.53    1.75
   3  21   4   19.61    3.57
  -3  21  -4   17.96    4.09
   4  21   4  545.07   14.43
  -4 -21  -4  523.86    7.31
  -4  21  -4  520.48   14.96
  -4  21  -4  523.87   13.43
  -5 -21  -4  372.22    6.43
   5  21   4  425.72   13.00
  -5  21  -4  369.42   12.56
  -5  21  -4  371.35   11.64
  -6 -21  -4   69.37    3.16
   6  21   4   77.67    5.92
  -6  21  -4   67.76    6.18
  -6  21  -4   63.70    5.39
  -7 -21  -4   65.74    3.29
   7  21   4   78.62    6.02
  -7  21  -4   56.47    5.80
  -7  21  -4   58.71    5.51
  -8 -21  -4   73.96    3.67
  -8  21  -4   74.51    6.53
   8  21   4   72.10    5.76
  -8  21  -4   83.83    6.38
  -9 -21  -4   49.87    3.35
  -9  21  -4   50.70    5.61
  -9  21  -4   50.37    5.28
   9  21   4   49.34    5.15
  10  21   4  169.70    8.54
 -10 -21  -4  159.19    5.67
 -10  21  -4  152.30    9.00
 -10  21  -4  140.98    8.30
  11  21   4  199.65    9.17
 -11 -21  -4  186.70    6.46
 -11  21  -4  181.22   10.15
 -11  21  -4  174.57    9.62
  12  21   4    1.45    2.77
 -12  21  -4    1.21    3.95
 -12  21  -4    7.82    4.23
  13  21   4    9.97    3.20
 -13  21  -4   13.46    5.01
 -13  21  -4    4.83    4.22
 -13  22   4   54.34    9.00
 -12  22   4   30.73    7.70
 -11  22   4    5.46    5.96
 -10  22   4    0.46    5.62
  -9  22   4   61.74    9.08
   9  22  -4   74.81    6.30
  -9  22   4   58.49    5.04
  -8  22   4   24.31    6.79
   8  22  -4   29.49    4.72
  -8  22   4   22.08    3.72
  -7  22   4   26.14    6.81
   7  22  -4   17.21    4.44
  -7  22   4   19.64    3.59
  -6  22   4   18.03    3.62
  -6  22   4   19.14    6.75
   6  22  -4   21.87    4.94
  -5  22   4    1.00    2.68
  -5  22   4    3.77    5.19
   5  22  -4   -1.15    3.78
  -4  22   4   36.38    7.15
   4  22  -4   27.30    5.07
  -4 -22   4   22.16    1.05
  -4  22   4   29.57    4.18
  -3  22   4   10.81    3.13
   3  22  -4    7.50    3.67
   2 -22  -4   96.76    3.10
  -2  22   4  108.90    6.99
   2  22  -4   89.66    7.76
   1 -22  -4  246.64    4.76
  -1 -22   4  212.47    2.17
   1  22  -4  246.22   11.45
  -1  22   4  239.47    9.89
   0  22  -4    3.29    3.23
   0 -22  -4    3.50    1.24
   0 -22   4    2.44    0.46
   0  22   4    3.40    3.06
   1  22   4  149.35    7.97
   1 -22   4  138.57    2.01
  -1 -22  -4  130.66    3.56
  -1  22  -4  131.97    8.39
  -2  22  -4   10.50    3.27
   2  22   4   18.25    3.66
  -2 -22  -4   11.60    1.50
  -2  22  -4   15.18    3.90
  -3  22  -4   35.05    4.43
  -3 -22  -4   27.07    2.03
   3  22   4   23.86    3.97
  -3  22  -4   31.47    4.67
  -4  22  -4   12.21    3.33
  -4 -22  -4    7.94    1.64
   4  22   4    7.30    3.27
  -4  22  -4    4.89    3.32
  -5 -22  -4  221.59    5.11
   5  22   4  253.17   10.29
  -5  22  -4  235.13   10.75
  -5  22  -4  215.78    9.31
  -6 -22  -4  113.79    3.91
   6  22   4  121.39    7.31
  -6  22  -4  109.16    7.67
  -6  22  -4  112.88    7.00
   7  22   4    3.60    2.84
  -7 -22  -4    8.37    1.84
  -7  22  -4    5.11    3.36
  -7  22  -4    6.20    2.99
   8  22   4   20.58    3.77
  -8 -22  -4   14.80    2.28
  -8  22  -4   13.31    4.12
  -8  22  -4   21.06    4.44
  -9 -22  -4   95.70    4.36
  -9  22  -4   94.95    7.57
  -9  22  -4   86.42    6.85
   9  22   4  105.60    6.97
  10  22   4   87.60    6.56
 -10 -22  -4   82.87    4.34
 -10  22  -4   91.08    7.72
 -10  22  -4   94.24    7.45
 -11 -22  -4    5.03    2.28
 -11  22  -4    5.18    4.22
 -11  22  -4    6.76    4.31
  11  22   4    4.99    3.01
  12  22   4   16.07    3.85
 -12  22  -4    5.87    4.33
 -13  22  -4   -1.41    4.60
 -13  23   4   -3.70    6.17
 -12  23   4    4.66    6.65
 -11  23   4    5.50    5.83
 -10  23   4   25.10    7.51
  -9  23   4  122.94   11.62
   9  23  -4  111.79    7.79
  -9  23   4   99.61    6.56
  -8  23   4  257.60   15.78
   8  23  -4  277.73   12.39
  -8  23   4  242.11    9.94
  -7  23   4   62.54    9.04
   7  23  -4   53.26    6.25
  -7  23   4   52.18    5.17
  -6  23   4  472.52   21.22
  -6  23   4  440.53   13.29
   6  23  -4  451.19   16.29
  -5  23   4    0.59    2.88
  -5  23   4    5.35    5.94
   5  23  -4    6.32    3.82
   4  23  -4  105.12    8.54
  -4  23   4  109.45   11.14
  -4  23   4  101.53    6.84
  -3  23   4    2.25    2.59
   3  23  -4    0.43    3.50
   3 -23  -4    1.10    1.26
   2  23  -4  400.32   15.40
   2 -23  -4  453.74    6.45
  -2  23   4  410.58   13.03
  -1 -23   4   51.50    1.16
   1 -23  -4   65.62    2.71
  -1  23   4   70.35    5.72
   1  23  -4   63.70    6.77
   0  23   4  153.54    8.37
   0 -23  -4  155.54    3.80
   0 -23   4  138.58    1.94
   0  23  -4  144.16    9.47
  -1  23  -4   26.83    4.89
   1  23   4   41.10    4.76
   1 -23   4   31.40    1.09
  -1 -23  -4   29.22    1.95
   2  23   4  370.66   12.64
  -2 -23  -4  333.18    5.68
  -2  23  -4  340.06   13.37
  -3  23  -4  207.68    9.45
   3  23   4  207.60    9.71
  -3 -23  -4  189.14    4.49
  -3  23  -4  197.83   10.03
  -4  23  -4  176.56    8.83
   4  23   4  199.51    9.41
  -4 -23  -4  193.44    4.80
  -4  23  -4  180.52    9.61
  -5  23  -4   25.17    4.23
  -5 -23  -4   23.34    2.11
   5  23   4   32.13    4.57
  -5  23  -4   26.44    4.68
  -6  23  -4   22.53    4.00
  -6 -23  -4   27.30    2.29
   6  23   4   26.09    4.43
  -6  23  -4   28.04    5.06
   7  23   4   17.78    3.77
  -7 -23  -4   11.03    1.92
  -7  23  -4   15.41    4.20
  -8 -23  -4   80.66    4.00
   8  23   4   78.99    6.18
  -8  23  -4   74.19    6.95
  -8  23  -4   75.73    6.59
  -9 -23  -4   47.96    3.38
  -9  23  -4   43.76    5.88
   9  23   4   50.77    5.43
  -9  23  -4   37.14    5.40
  10  23   4   92.34    6.74
 -10 -23  -4   86.85    4.50
 -10  23  -4   84.78    7.85
 -11 -23  -4  165.09    6.28
  11  23   4  181.25    9.29
 -11  23  -4  160.01   10.48
  12  23   4    4.91    3.39
 -12  23  -4   -1.94    4.39
 -12  24   4    5.91    6.89
 -11  24   4   14.24    6.93
 -10  24   4   97.61   11.47
  -9  24   4   63.09    9.67
   9  24  -4   71.56    6.48
  -9  24   4   47.51    5.19
   8  24  -4   60.89    6.41
  -8  24   4   76.80    6.14
  -7  24   4  328.53   18.33
   7  24  -4  298.69   13.34
  -7  24   4  294.39   11.27
  -6  24   4  224.27   15.42
  -6  24   4  208.18    9.63
  -5  24   4   37.72    8.71
   5  24  -4   46.53    6.51
  -5  24   4   40.38    4.81
   4  24  -4  124.08    9.42
  -4  24   4  140.00   12.06
  -4  24   4  132.06    7.89
   3  24  -4  448.45   16.78
   3 -24  -4  418.59    6.32
  -3  24   4  398.48   13.09
  -2  24   4    9.29    3.36
   2  24  -4    4.08    4.00
   2 -24  -4    6.13    1.48
   1 -24  -4  263.08    5.12
  -1  24   4  246.69   10.32
   1  24  -4  258.64   12.62
   0 -24  -4  214.85    4.56
   0  24  -4  207.80   11.13
   0  24   4  207.14    9.79
  -1  24  -4    3.65    3.82
   1 -24   4    1.44    0.60
  -1 -24  -4    1.35    1.20
   1  24   4    3.42    3.10
   2  24   4   66.91    6.08
  -2 -24  -4   70.41    2.90
  -2  24  -4   75.82    7.08
   3  24   4  142.50    8.34
  -3 -24  -4  144.88    4.03
  -3  24  -4  151.89    9.48
   4  24   4  221.83   10.26
  -4 -24  -4  239.32    5.36
  -4  24  -4  231.88   11.35
  -5 -24  -4   16.38    1.99
   5  24   4   21.18    4.12
  -5  24  -4   14.08    4.49
  -6 -24  -4   21.82    2.24
   6  24   4   26.84    4.40
  -6  24  -4   16.06    4.30
  -7 -24  -4    6.94    1.89
  -7  24  -4    8.29    4.16
   7  24   4    7.72    3.38
  -8 -24  -4   27.91    2.71
   8  24   4   30.03    4.55
  -8  24  -4   30.06    5.45
  -9 -24  -4  168.15    5.65
  -9  24  -4  158.86   10.08
   9  24   4  193.03    9.52
  10  24   4  209.76    9.97
 -10 -24  -4  190.01    6.31
 -10  24  -4  185.03   11.17
  11  24   4    4.75    3.54
 -11  24  -4    8.06    4.65
 -12  24  -4    0.32    4.41
 -12  25   4   17.69    8.14
 -11  25   4  120.96   12.80
 -10  25   4  360.71   19.80
  -9  25   4   33.52    7.62
  -9  25   4   30.99    4.56
   9  25  -4   34.43    5.17
  -8  25   4    9.43    6.31
  -8  25   4   11.73    3.54
  -7  25   4  155.69   14.02
   7  25  -4  173.94   10.61
  -6  25   4  336.63   18.91
   6  25  -4  325.94   14.67
  -6  25   4  291.07   11.55
  -5  25   4    4.18    2.88
  -5  25   4    6.00    6.47
   5  25  -4    2.10    3.90
   4  25  -4  223.46   12.58
  -4  25   4  226.07   15.35
  -4  25   4  213.70   10.00
   3  25  -4  123.39    9.55
   3 -25  -4  136.45    3.84
  -3  25   4  141.68    8.27
   2  25  -4   34.33    5.67
   2 -25  -4   38.23    2.25
  -2  25   4   33.96    4.88
   1  25  -4   40.69    6.38
   1 -25  -4   31.57    2.11
  -1  25   4   25.78    4.54
   0 -25  -4  276.65    5.29
   0  25  -4  284.37   13.51
   0  25   4  237.61   10.71
   1  25   4   78.12    6.70
  -1 -25  -4   85.02    3.16
  -1  25  -4   84.05    7.97
   2  25   4  175.41    9.35
  -2 -25  -4  160.35    4.20
  -2  25  -4  158.88   10.32
   3  25   4   86.43    6.90
  -3 -25  -4   66.83    2.98
  -3  25  -4   69.76    7.09
  -4 -25  -4    1.38    1.43
   4  25   4    4.23    2.98
  -4  25  -4   -1.07    3.91
  -5 -25  -4   13.26    1.98
   5  25   4    3.27    3.18
  -5  25  -4    6.78    4.40
  -6 -25  -4  547.79    8.64
   6  25   4  602.93   17.19
  -6  25  -4  529.92   17.59
  -7 -25  -4  235.95    6.06
   7  25   4  273.39   11.46
  -7  25  -4  231.49   12.17
   8  25   4   13.58    3.99
  -8 -25  -4   20.18    2.63
  -8  25  -4    9.69    4.61
  -9 -25  -4   64.96    3.93
   9  25   4   74.11    6.35
  -9  25  -4   65.35    7.40
  10  25   4    9.21    3.78
 -10 -25  -4    7.24    2.34
 -10  25  -4    9.80    4.91
  11  25   4    5.69    3.77
 -11  25  -4   -3.51    4.75
 -11  26   4  190.05   15.37
 -10  26   4   41.10    8.64
  -9  26   4  105.87   12.32
   9  26  -4   99.93    8.02
  -9  26   4   88.82    6.82
  -8  26   4    6.87    7.16
   8  26  -4   12.24    4.53
  -8  26   4    6.21    3.51
  -7  26   4   96.41   11.87
   7  26  -4   95.13    8.20
  -7  26   4   71.35    6.35
  -6  26   4   46.69    8.78
   6  26  -4   45.29    6.47
  -6  26   4   58.89    5.87
  -5  26   4  293.72   18.56
   5  26  -4  290.20   13.90
  -5  26   4  251.96   11.12
  -4  26   4    6.54    3.72
   4  26  -4   19.37    5.51
   3  26  -4   98.46    8.92
   3 -26  -4   96.51    3.35
  -3  26   4   91.67    6.96
   2  26  -4   61.92    7.35
   2 -26  -4   51.14    2.55
  -2  26   4   49.84    5.56
   1  26  -4   80.27    8.11
   1 -26  -4   74.19    2.99
  -1  26   4   64.63    6.31
   0 -26  -4   70.14    2.92
   0  26   4   61.98    6.22
   0  26  -4   72.97    7.74
   1  26   4  585.66   16.95
  -1 -26  -4  586.44    7.84
  -1  26  -4  562.66   19.12
   2  26   4   57.57    5.97
  -2 -26  -4   46.59    2.57
  -2  26  -4   39.99    6.40
   3  26   4   34.76    5.18
  -3 -26  -4   40.45    2.53
  -3  26  -4   31.36    6.16
  -4  26  -4   -1.02    3.82
  -4 -26  -4    4.31    1.61
   4  26   4   -2.37    3.34
  -5  26  -4   14.93    4.80
  -5 -26  -4   17.75    2.05
   5  26   4   15.09    4.02
  -6 -26  -4   74.85    3.63
   6  26   4   92.29    7.57
  -6  26  -4   81.91    8.10
  -7 -26  -4   54.59    3.33
   7  26   4   56.24    5.96
  -7  26  -4   64.10    7.53
  -8 -26  -4   17.94    2.38
   8  26   4   25.41    4.69
  -8  26  -4   27.82    5.75
   9  26   4   22.24    4.50
  -9 -26  -4   20.13    3.02
  -9  26  -4   12.49    4.94
  10  26   4   18.58    4.30
 -10 -26  -4   15.54    2.71
 -10  26  -4   19.97    6.08
 -11  27   4   37.98    9.15
 -10  27   4   91.54   12.66
  -9  27   4   38.26    9.36
   9  27  -4   27.32    5.48
  -9  27   4   27.41    4.67
  -8  27   4   11.80    6.80
   8  27  -4    5.88    4.13
  -8  27   4    1.94    3.27
  -7  27   4   32.67    8.55
   7  27  -4   44.84    6.28
  -7  27   4   39.49    5.36
  -6  27   4  122.83   12.99
   6  27  -4  138.93   10.55
  -6  27   4  126.13    8.31
  -5  27   4    5.84    3.17
  -5  27   4    7.34    6.29
   5  27  -4   20.58    5.16
   4  27  -4  127.95   10.42
  -4  27   4  119.75    8.30
  -3  27   4   22.78    4.07
   3 -27  -4   26.46    2.14
   3  27  -4   27.01    5.93
  -2  27   4    1.59    3.04
   2 -27  -4    3.14    1.38
   2  27  -4    8.46    4.65
   1  27  -4   56.94    7.34
   1 -27  -4   60.31    2.82
  -1  27   4   50.09    5.98
   0  27  -4  128.05   10.14
   0 -27  -4  126.48    3.84
   0  27   4  112.51    7.98
   1  27   4  107.90    7.99
  -1 -27  -4  102.63    3.59
  -1  27  -4  103.51    9.46
   2  27   4  267.69   11.98
  -2 -27  -4  282.26    5.80
  -2  27  -4  268.37   13.54
   3  27   4  314.32   12.66
  -3 -27  -4  284.47    5.83
  -4  27  -4    7.32    4.48
  -4 -27  -4    1.17    1.53
   4  27   4    4.08    3.45
  -5  27  -4   -1.21    4.20
  -5 -27  -4    1.46    1.58
   5  27   4    0.79    3.23
  -6 -27  -4  172.39    5.14
   6  27   4  212.01   10.83
  -6  27  -4  177.21   11.21
  -7  27  -4   33.14    6.12
  -7 -27  -4   36.92    2.93
   7  27   4   49.30    5.66
  -8  27  -4    2.58    4.55
   8  27   4    7.78    3.75
  -8 -27  -4    0.54    1.86
  -9  27  -4   15.71    5.72
   9  27   4   21.65    4.62
  -9 -27  -4   13.66    2.59
 -10  27  -4   10.77    5.42
 -10  28   4   -0.84    6.94
  -9  28   4   97.90   12.24
   9  28  -4   68.28    7.41
  -8  28   4    3.64    6.69
   8  28  -4    1.43    4.14
  -8  28   4    1.78    3.34
  -7  28   4    6.05    6.64
   7  28  -4   22.05    5.79
  -7  28   4    9.03    3.66
  -6  28   4  143.73   14.44
   6  28  -4  138.42   10.50
  -6  28   4  116.00    8.25
  -5  28   4  511.45   23.91
   5  28  -4  562.53   20.21
  -4  28   4   16.86    3.95
   4 -28  -4   24.14    2.09
   3  28  -4   61.76    8.24
   3 -28  -4   64.89    3.05
  -3  28   4   59.69    6.47
   2  28  -4   36.86    7.17
   2 -28  -4   46.46    2.56
  -2  28   4   52.94    6.09
   1  28  -4   61.60    7.96
   1 -28  -4   50.51    2.68
  -1  28   4   38.90    5.38
   0  28  -4   21.58    5.72
   0 -28  -4   17.96    1.98
   0  28   4   32.55    5.23
  -1  28  -4  933.84   26.21
   1  28   4  946.00   22.36
  -1 -28  -4  947.26   10.31
   2  28   4  272.76   12.40
  -2 -28  -4  277.74    5.76
  -2  28  -4  301.87   14.99
  -3  28  -4   16.83    5.19
  -3 -28  -4   18.52    2.05
   3  28   4   24.91    4.82
  -4  28  -4   -0.79    4.62
  -4 -28  -4    0.84    1.60
   4  28   4    3.01    3.82
  -5  28  -4   32.47    6.45
   5  28   4   31.56    5.18
  -5 -28  -4   29.63    2.50
  -6  28  -4   -0.74    4.57
  -6 -28  -4    2.21    1.69
   6  28   4    6.99    3.80
  -7 -28  -4  157.88    5.30
   7  28   4  160.68    9.77
  -7  28  -4  155.99   11.75
  -8 -28  -4   92.59    4.44
   8  28   4   94.48    7.79
  -8  28  -4   87.42    9.21
  -9  28  -4    2.12    5.09
   9  28   4    5.25    3.46
  -9 -28  -4    8.12    2.43
 -10  29   4   19.16    9.14
  -9  29   4   58.49   11.23
   9  29  -4   47.63    6.55
  -8  29   4   70.49   11.51
   8  29  -4   72.91    8.02
  -8  29   4   81.06    7.41
  -7  29   4   43.27    9.74
   7  29  -4   58.29    7.53
  -7  29   4   45.23    5.85
  -6  29   4    7.35    3.76
  -6  29   4    3.56    6.87
   6  29  -4    6.24    4.38
  -5  29   4   13.80    3.98
  -5  29   4    3.94    6.54
   5  29  -4    5.01    4.64
  -4  29   4    6.70    4.04
   4 -29  -4    4.79    1.60
   4  29  -4    4.75    4.65
   3  29  -4   59.46    8.02
   3 -29  -4   55.05    2.88
  -3  29   4   50.73    6.20
   2  29  -4  190.53   12.67
   2 -29  -4  190.21    4.84
  -2  29   4  165.49    9.76
   1  29  -4  117.33   10.60
   1 -29  -4  110.42    3.73
  -1  29   4  104.82    8.09
   0  29  -4   17.46    5.79
   0  29   4    5.07    3.74
   0 -29  -4   12.02    1.82
  -1  29  -4  201.95   13.58
   1  29   4  168.90   10.64
  -1 -29  -4  181.09    4.75
  -2  29  -4   12.02    5.69
  -2 -29  -4    4.55    1.60
   2  29   4    6.65    4.20
  -3  29  -4   11.56    4.92
  -3 -29  -4   16.11    2.09
   3  29   4   18.18    4.54
   4  29   4  123.28    8.77
  -4 -29  -4  123.31    4.33
  -4  29  -4  106.77    9.94
  -5  29  -4   25.76    6.41
   5  29   4   31.64    5.48
  -5 -29  -4   31.53    2.70
  -6  29  -4    1.12    4.68
  -6 -29  -4    3.43    1.79
   6  29   4    0.37    3.77
  -7  29  -4   14.88    5.68
  -7 -29  -4   16.46    2.51
   7  29   4   20.80    4.79
   8  29   4    6.18    3.99
  -8  29  -4    2.03    5.14
  -8 -29  -4    0.51    1.95
  -9  30   4   46.66   10.75
   9  30  -4   32.34    6.00
  -8  30   4   11.30    8.17
   8  30  -4    2.49    4.34
  -8  30   4    9.37    4.24
  -7  30   4  137.00   14.54
   7  30  -4  117.17   10.14
  -7  30   4  111.86    8.39
  -6  30   4    3.28    3.48
  -6  30   4    5.21    6.61
   6  30  -4    5.20    4.73
   5  30  -4   68.92    8.48
  -5  30   4   53.52    6.61
  -4  30   4    5.19    3.72
   4  30  -4   -2.98    5.26
   4 -30  -4    2.05    1.54
   3  30  -4  267.73   15.33
   3 -30  -4  257.42    5.72
  -3  30   4  219.97   11.41
  -2  30   4    9.93    4.08
   2 -30  -4   12.02    1.89
   1  30  -4  187.22   13.26
   1 -30  -4  193.08    4.87
  -1  30   4  180.26   10.56
   0  30  -4  125.91   10.97
   0 -30  -4  130.36    4.16
   0  30   4  107.91    8.58
   1  30   4   40.69    6.02
  -1  30  -4   44.41    7.85
  -1 -30  -4   36.44    2.56
  -2  30  -4   10.15    5.53
  -2 -30  -4   13.24    1.97
   2  30   4   11.16    4.26
  -3  30  -4  197.06   13.29
   3  30   4  179.96   10.62
  -3 -30  -4  193.32    5.24
   4  30   4  111.35    8.55
  -4 -30  -4  129.16    4.55
  -4  30  -4  116.77   10.84
  -5 -30  -4   88.26    3.90
   5  30   4   90.24    7.96
  -5  30  -4   75.23    9.28
   6  30   4  101.59    8.04
  -6 -30  -4  106.89    4.41
  -6  30  -4   93.51    9.36
  -7  30  -4   19.06    6.27
  -7 -30  -4   25.53    2.85
   7  30   4   20.19    4.67
  -8  30  -4    5.47    5.37
   9  31  -4   11.73    5.10
  -8  31   4   50.17   10.41
   8  31  -4   40.93    6.73
  -8  31   4   40.95    6.01
  -7  31   4    9.44    4.07
  -7  31   4    6.09    7.20
   7  31  -4    6.10    5.07
  -6  31   4    1.86    3.67
  -6  31   4    9.48    8.29
   6  31  -4    2.74    4.64
   5 -31  -4   47.38    2.87
   5  31  -4   41.63    7.72
  -5  31   4   41.14    5.89
  -4  31   4    5.85    3.98
   4  31  -4   -0.30    4.95
   4 -31  -4    1.74    1.55
  -3  31   4   30.44    5.32
   3 -31  -4   41.06    2.68
   3  31  -4   38.01    7.41
   2  31  -4   80.86    9.57
   2 -31  -4   73.79    3.30
  -2  31   4   67.62    7.04
   1  31  -4   36.89    7.43
   1 -31  -4   30.67    2.42
  -1  31   4   31.24    5.52
   0  31   4   22.80    5.02
   0  31  -4   16.02    5.91
   0 -31  -4   15.61    2.10
   1  31   4  102.25    8.62
  -1  31  -4  104.73   10.59
  -1 -31  -4   93.35    3.77
  -2 -31  -4   13.26    2.06
   2  31   4   16.41    5.24
  -3  31  -4   14.41    6.07
  -3 -31  -4   19.39    2.30
   3  31   4   11.96    4.87
  -4  31  -4  117.25   11.15
  -4 -31  -4  122.81    4.49
   4  31   4  118.49    9.05
  -5  31  -4   26.96    7.14
   5  31   4   43.95    6.28
  -5 -31  -4   33.40    2.88
  -6  31  -4    2.66    5.10
  -6 -31  -4    3.18    2.00
   6  31   4    5.95    4.17
  -7  31  -4    2.16    5.74
  -7 -31  -4   -0.45    2.02
  -8  32   4   48.21   10.49
   8  32  -4   43.17    7.08
  -8  32   4   39.97    6.10
  -7  32   4  360.50   23.11
   7  32  -4  326.26   16.30
  -7  32   4  337.79   14.58
   6  32  -4  101.40   10.17
  -6  32   4   87.54    7.99
  -5  32   4   -2.48    3.91
   5 -32  -4    2.74    1.72
   5  32  -4    4.11    5.31
   4 -32  -4   96.50    3.84
   4  32  -4   97.32   10.20
   3  32  -4  180.07   13.11
   3 -32  -4  186.82    5.04
  -3  32   4  162.87   10.44
  -2  32   4    0.02    3.90
   2  32  -4    6.69    5.69
   2 -32  -4   -1.22    1.62
   1  32  -4  356.20   18.48
   1 -32  -4  332.83    6.58
  -1  32   4  317.46   14.26
   0  32   4    8.86    4.32
   0  32  -4    8.17    5.91
   0 -32  -4    5.78    1.80
   1  32   4    3.23    4.25
  -1 -32  -4    2.83    1.58
  -1  32  -4    9.82    5.63
  -2  32  -4   32.02    7.18
  -2 -32  -4   33.12    2.66
   2  32   4   22.59    5.00
  -3  32  -4  405.36   19.31
   3  32   4  380.30   15.55
  -3 -32  -4  394.96    7.54
  -4  32  -4   44.01    8.41
   4  32   4   47.27    6.67
  -4 -32  -4   46.84    3.12
  -5  32  -4   33.02    7.43
   5  32   4   54.81    6.98
  -5 -32  -4   45.46    3.19
  -6  32  -4   46.50    8.53
  -6 -32  -4   39.61    3.17
  -8  33   4   11.68    4.48
   8  33  -4    9.43    5.54
  -7  33   4   23.69    5.13
  -7  33   4   32.85    9.27
   7  33  -4   20.45    5.96
  -6  33   4   13.72    4.59
   6 -33  -4   19.20    2.32
   6  33  -4   17.06    5.69
  -5  33   4   13.23    4.72
   5 -33  -4    6.36    1.86
   5  33  -4   17.72    6.42
   4  33  -4   43.25    8.28
   4 -33  -4   38.08    2.78
  -4  33   4   35.49    6.06
  -3  33   4   20.09    5.10
   3 -33  -4   15.80    2.20
   3  33  -4   20.31    6.38
   2  33  -4  139.21   12.62
   2 -33  -4  127.04    4.37
  -2  33   4  120.72    9.34
  -1  33   4   17.37    5.01
   1 -33  -4   17.35    2.20
   1  33  -4   13.61    5.89
   0  33  -4  120.48   11.58
   0 -33  -4  112.41    4.15
   0  33   4  100.12    8.79
   1  33   4   68.22    7.69
  -1 -33  -4   58.57    3.18
  -1  33  -4   51.39    8.35
  -2  33  -4   21.88    7.33
  -2 -33  -4   23.90    2.47
   2  33   4   24.15    5.52
  -3  33  -4   52.99    9.43
  -3 -33  -4   35.10    2.80
   3  33   4   46.04    6.77
  -4  33  -4   18.28    6.87
  -4 -33  -4   28.49    2.67
   4  33   4   31.28    5.85
  -5 -33  -4   29.23    2.78
   8  34  -4    9.87    5.15
  -7  34   4   34.24    6.05
   7  34  -4   33.61    6.78
  -6  34   4   27.66    5.67
   6 -34  -4   36.66    2.86
   6  34  -4   23.59    6.55
   5 -34  -4  199.56    5.45
   5  34  -4  198.95   13.91
  -5  34   4  178.77   11.65
  -4  34   4   13.83    4.90
   4 -34  -4    4.10    1.86
   4  34  -4    5.71    5.82
   3 -34  -4   46.44    3.09
   3  34  -4   54.54    8.80
  -3  34   4   50.32    6.99
  -2  34   4    5.00    4.64
   2 -34  -4    6.36    2.01
   2  34  -4   13.08    6.56
   1  34  -4  354.93   19.21
   1 -34  -4  341.39    6.90
  -1  34   4  302.57   14.51
   0  34  -4   40.44    8.68
   0 -34  -4   31.31    2.69
   0  34   4   33.94    6.20
   1  34   4  158.83   10.84
  -1  34  -4  186.95   14.55
  -1 -34  -4  164.84    5.09
  -2  34  -4   10.16    6.24
  -2 -34  -4   14.76    2.27
  -3  34  -4   61.69    9.71
   3  34   4   72.83    7.90
  -3 -34  -4   76.67    3.78
  -4 -34  -4    2.71    1.97
  -7  35   4    5.36    4.40
   7  35  -4    2.45    5.47
  -6  35   4    0.08    4.24
   6  35  -4    1.65    5.52
  -5  35   4   15.29    5.22
   5  35  -4    6.73    5.63
  -4  35   4   22.40    5.69
   4 -35  -4   31.09    2.68
   4  35  -4   26.79    7.36
  -3  35   4    9.45    4.59
   3 -35  -4    4.41    1.90
   3  35  -4   13.39    6.88
   2  35  -4   82.61   10.47
   2 -35  -4   64.13    3.46
  -2  35   4   56.80    7.39
  -1  35   4   10.42    4.89
   1 -35  -4   15.59    2.25
   0 -35  -4   20.31    2.42
   0  35  -4   13.17    6.48
   0  35   4   27.81    5.94
   1  35   4   10.90    5.01
  -1 -35  -4    3.65    1.85
  -2 -35  -4    4.61    1.93
  -3 -35  -4    3.06    2.01
  -6  36   4   28.90    6.05
  -5  36   4  133.40   10.33
  -4  36   4   32.05    6.05
  -3  36   4   35.22    6.38
  -2  36   4   19.94    5.63
   2 -36  -4   15.15    2.29
   1 -36  -4    4.74    1.87
   0 -36  -4    6.11    2.01
  -1 -36  -4  179.05    5.50
 -17   0   5    0.65    4.06
 -16   0   5    8.57    4.45
 -15   0   5    2.62    3.86
 -14   0   5   -4.96    3.46
 -13   0   5    3.37    3.27
 -12   0   5    3.21    2.84
 -11   0   5    1.75    2.73
 -10   0   5    1.17    2.42
  -9   0   5    7.78    2.80
  -8   0   5   10.40    2.68
  -7   0   5    1.86    2.10
   7   0  -5    0.90    0.58
   7   0  -5    1.16    0.83
  -6   0   5    8.88    3.10
   6   0  -5    8.29    1.52
  -5   0   5    3.90    2.38
   5   0  -5    4.32    0.93
   5   0  -5    2.68    1.15
   5   0  -5    1.57    1.00
  -4   0   5   19.18    3.32
   4   0  -5   20.76    1.46
   4   0  -5   20.92    1.76
   4   0  -5   17.98    2.05
  -3   0   5    8.80    2.65
   3   0  -5    8.36    1.10
   3   0  -5    6.68    1.28
   3   0  -5    4.94    1.63
   2   0  -5    5.61    2.10
   2   0  -5    9.76    0.90
   1   0  -5    7.00    2.39
   1   0  -5    5.05    0.64
   1   0  -5    7.43    1.15
   0   0  -5   25.50    3.63
   0   0  -5   28.79    1.21
   0   0  -5   32.67    1.98
  -1   0  -5   29.71    2.19
  -1   0  -5   20.28    1.22
   1   0   5   15.42    1.05
  -2   0  -5    6.58    0.91
  -2   0  -5    7.90    1.31
  -3   0  -5   10.08    1.47
  -3   0  -5    5.94    0.98
  -4   0  -5    9.50    1.60
  -4   0  -5    5.50    1.15
  -5   0  -5   59.03    3.18
  -5   0  -5   38.70    2.54
  -6   0  -5    9.13    1.52
  -6   0  -5   14.02    1.85
  -7   0  -5   41.75    3.02
  -7   0  -5   27.31    2.59
  -8   0  -5   -1.44    1.46
  -8   0  -5    0.91    1.41
  -9   0  -5    1.37    1.52
  -9   0  -5    2.82    1.80
 -10   0  -5    5.36    1.88
 -10   0  -5    3.15    1.83
 -11   0  -5    9.10    2.23
 -11   0  -5    7.31    2.54
 -12   0  -5    1.59    2.03
 -12   0  -5    3.18    2.32
 -13   0  -5    3.90    2.35
 -13   0  -5    3.29    2.55
 -14   0  -5    0.94    2.35
 -14   0  -5   -2.69    3.05
 -15   0  -5    5.33    2.73
 -17  -1   5   38.22    5.97
 -17   1   5   40.77    6.39
 -16  -1   5    6.68    3.86
 -16   1   5   14.73    4.72
 -15  -1   5   -1.33    3.52
 -15   1   5    2.67    3.58
 -14  -1   5   45.93    5.36
 -14   1   5   46.19    5.60
 -13  -1   5  167.22    8.47
 -13   1   5  161.64    8.51
 -12  -1   5  652.13   15.46
 -12   1   5  635.47   15.98
 -11  -1   5   15.90    3.25
 -11   1   5   17.57    3.60
 -10  -1   5    3.91    2.47
 -10   1   5    1.11    2.61
  -9  -1   5   56.35    4.60
  -9   1   5   51.67    4.62
  -8  -1   5  722.92   14.24
  -8   1   5  733.21   15.24
   7  -1  -5   87.51    2.82
   7  -1  -5   92.43    2.05
   7   1  -5   95.04    2.62
  -7  -1   5   93.80    5.36
  -7   1   5   89.56    5.58
   7   1  -5   94.05    2.74
   6   1  -5 2430.56   14.42
   6  -1  -5 2355.62   10.37
   6   1  -5 2353.49   11.80
   6  -1  -5 2409.43   15.66
  -6  -1   5 2166.81   23.51
  -6   1   5 2146.91   26.07
  -5  -1   5  424.22   10.90
  -5   1   5  431.81   11.66
   5  -1  -5  459.77    4.69
   5   1  -5  466.63    5.23
   5  -1  -5  514.88    7.72
   5   1  -5  450.65    7.23
   5   1  -5  509.32    6.95
   4   1  -5 1315.15   11.75
  -4  -1   5 1252.49   18.62
  -4   1   5 1235.36   20.18
   4  -1  -5 1356.10    8.28
   4   1  -5 1366.41    9.18
   4  -1  -5 1354.80   12.79
   4   1  -5 1458.07   13.86
   4  -1  -5 1281.40   14.22
  -3   1   5  242.19    8.97
   3   1  -5  270.73    5.76
  -3  -1   5  237.31    8.14
   3  -1  -5  261.12    3.76
   3   1  -5  258.92    4.01
   3  -1  -5  255.86    5.80
   3   1  -5  264.05    6.07
   3  -1  -5  260.26    6.91
   2  -1  -5 1241.70    6.39
   2  -1  -5 1271.60    8.72
   2   1  -5 1278.53    9.23
   2   1  -5 1256.79    5.86
   2   1  -5 1291.73   14.93
   2  -1  -5 1232.86   16.28
   1   1  -5  181.09    6.70
   1  -1  -5  165.82    6.99
   1   1  -5  199.51    3.95
   1   1  -5  195.37    2.45
   1  -1  -5  183.77    2.53
   1  -1  -5  186.97    3.58
   0  -1  -5  773.17   16.16
   0   1  -5  779.12   15.57
   0   1  -5  848.21    8.03
   0  -1  -5  830.71    5.55
   0   1  -5  847.55    5.23
   0  -1  -5  828.37    7.67
   1   1   5  901.99    5.65
  -1  -1  -5 1018.91    8.76
  -1   1  -5 1017.19    9.09
  -1  -1  -5 1018.07    6.48
  -1   1  -5 1011.55    6.30
   1  -1   5  952.86    5.46
  -2  -1  -5   69.72    2.54
  -2   1  -5   69.03    2.65
  -2  -1  -5   66.33    1.91
  -2   1  -5   71.41    1.96
  -3  -1  -5  166.68    3.94
  -3   1  -5  162.90    4.08
  -3  -1  -5  159.39    3.15
  -3   1  -5  160.53    3.16
  -4  -1  -5  167.38    3.48
  -4   1  -5  162.90    4.29
  -4   1  -5  160.55    3.49
  -4  -1  -5  156.51    3.97
  -5  -1  -5 1382.04   12.03
  -5   1  -5 1382.51   12.20
  -5  -1  -5 1348.35   10.61
  -5   1  -5 1355.37   10.88
  -6  -1  -5   76.59    3.23
  -6   1  -5   68.65    3.21
  -6  -1  -5   64.08    2.85
  -6   1  -5   70.33    2.96
  -7  -1  -5  904.71   10.37
  -7   1  -5  889.92   10.59
  -7   1  -5  885.92   10.29
  -7  -1  -5  877.32   10.27
  -8  -1  -5    3.33    1.65
  -8   1  -5    2.32    1.56
  -8  -1  -5    2.74    1.72
  -8   1  -5    5.73    1.74
  -9  -1  -5   46.33    2.93
  -9   1  -5   42.95    2.84
  -9  -1  -5   45.46    3.15
  -9   1  -5   45.41    3.09
 -10  -1  -5   65.14    3.46
 -10   1  -5   65.25    3.50
 -10  -1  -5   72.08    4.00
 -10   1  -5   71.78    4.12
 -11  -1  -5  229.57    6.39
 -11   1  -5  226.60    6.45
 -11  -1  -5  243.71    7.37
 -11   1  -5  230.96    7.22
 -12  -1  -5    8.70    2.28
 -12   1  -5    2.43    2.12
 -12  -1  -5    4.46    2.47
 -12   1  -5    6.88    2.56
 -13  -1  -5   37.96    3.46
 -13   1  -5   40.03    3.65
 -13  -1  -5   40.59    4.18
 -13   1  -5   36.52    3.96
 -14  -1  -5    8.63    2.54
 -14   1  -5   12.16    2.78
 -14  -1  -5   10.82    3.31
 -14   1  -5    9.94    3.06
 -15  -1  -5   31.36    3.58
 -15   1  -5   33.36    3.76
 -17  -2   5  352.54   14.52
 -17   2   5  345.58   15.03
 -16  -2   5  285.63   12.53
 -16   2   5  292.95   13.47
 -15  -2   5  242.50   10.97
 -15   2   5  257.49   11.96
 -14  -2   5   87.73    6.77
 -14   2   5  101.59    7.70
 -13  -2   5   98.47    6.58
 -13   2   5   95.85    6.90
 -12  -2   5    2.06    2.68
 -12   2   5   -2.18    3.23
 -11  -2   5   18.18    3.24
 -11   2   5   14.01    3.48
 -10  -2   5  602.73   13.34
 -10   2   5  583.26   14.39
  -9  -2   5  767.58   14.26
  -9   2   5  810.15   16.99
  -8  -2   5  772.23   14.23
  -8   2   5  830.04   16.54
   7  -2  -5  731.45    8.41
   7   2  -5  765.79    7.24
   7  -2  -5  702.51    4.98
   7   2  -5  737.07    7.83
  -7  -2   5  776.34   13.86
  -7   2   5  734.86   15.46
  -6   2   5  343.10   10.84
   6  -2  -5  402.57    4.11
   6   2  -5  387.33    5.30
   6   2  -5  355.70    6.06
   6   2  -5  396.99    5.67
   6  -2  -5  375.13    6.65
  -6  -2   5  366.79    9.47
  -5  -2   5   69.19    4.64
  -5   2   5   46.53    4.60
   5  -2  -5   55.70    2.82
   5   2  -5   76.07    2.86
   5  -2  -5   64.34    1.79
   5   2  -5   62.40    2.17
   5   2  -5   63.03    2.58
  -4  -2   5  114.10    5.68
  -4   2   5   84.97    6.11
   4  -2  -5  119.78    2.53
   4  -2  -5   90.94    3.68
   4   2  -5  134.64    3.78
   4   2  -5  104.94    2.73
   4   2  -5  122.62    3.64
  -3   2   5   53.40    4.92
   3   2  -5   62.97    2.38
   3  -2  -5   59.13    1.88
   3  -2  -5   52.49    2.88
   3   2  -5   60.90    2.75
   3   2  -5   58.77    2.83
   3  -2  -5   49.88    3.49
   2  -2  -5 1072.20    6.20
   2   2  -5 1101.08    5.16
   2   2  -5 1092.05    8.86
   2   2  -5 1108.32   12.66
   2  -2  -5 1046.62   15.90
   1   2  -5 1228.04   15.81
   1  -2  -5 1116.46   18.10
  -1   2   5 1165.76   11.75
   1  -2  -5 1205.89    6.57
   1   2  -5 1207.50    9.39
   1   2  -5 1258.46    5.73
   0   2   5  314.96    6.48
   0   2  -5  360.14   10.12
   0  -2  -5  345.67    3.74
   0   2  -5  327.01    5.27
   0   2  -5  328.22    3.19
   1   2   5   92.15    3.75
  -1  -2  -5  103.61    2.25
   1  -2   5   93.97    1.72
  -1   2  -5  100.05    3.08
  -1   2  -5   99.63    2.04
   2   2   5   34.17    2.64
  -2   2  -5   46.62    2.51
   2  -2   5   37.04    1.33
  -2  -2  -5   46.17    1.80
  -2   2  -5   45.84    1.73
   3   2   5   45.89    3.08
  -3   2  -5   64.19    2.89
  -3   2  -5   51.87    2.00
  -3  -2  -5   61.22    2.14
  -4   2  -5   70.54    3.02
  -4  -2  -5   67.93    2.39
  -4   2  -5   64.46    2.41
  -5  -2  -5  372.57    6.26
  -5   2  -5  358.07    6.60
  -5  -2  -5  356.39    5.60
  -5   2  -5  334.22    5.57
  -6  -2  -5  618.82    8.26
  -6   2  -5  577.25    8.50
  -6  -2  -5  590.45    7.72
  -6   2  -5  559.53    7.70
  -7  -2  -5  244.67    5.54
  -7  -2  -5  238.84    5.54
  -7   2  -5  233.67    5.52
  -7   2  -5  233.50    5.62
  -8  -2  -5  155.50    4.67
  -8   2  -5  148.66    4.71
  -8  -2  -5  156.03    4.76
  -8   2  -5  150.68    4.92
  -9   2  -5   15.35    2.27
  -9  -2  -5   13.17    2.28
  -9   2  -5   14.20    2.41
 -10  -2  -5   12.31    2.10
 -10   2  -5   11.58    2.19
 -10  -2  -5    9.90    2.14
 -10   2  -5   13.06    2.50
 -11  -2  -5  156.86    5.38
 -11   2  -5  143.60    5.39
 -11  -2  -5  158.28    5.87
 -11   2  -5  151.86    6.11
 -12  -2  -5  125.97    4.98
 -12   2  -5  134.92    5.79
 -12  -2  -5  135.22    5.95
 -12   2  -5  134.17    6.16
 -13   2  -5   52.13    4.00
 -13  -2  -5   54.14    3.74
 -13  -2  -5   56.75    4.68
 -13   2  -5   55.21    4.74
 -14  -2  -5   10.15    2.77
 -14   2  -5    3.23    2.35
 -14  -2  -5    6.91    3.01
 -14   2  -5    3.90    2.90
 -15   2  -5   17.27    3.27
 -15  -2  -5   20.65    3.82
 -17  -3   5   55.64    6.68
 -17   3   5   70.90    7.98
 -16  -3   5   14.74    4.30
 -16   3   5   22.62    5.22
 -15  -3   5   35.45    5.18
 -15   3   5   46.30    6.00
 -14  -3   5  240.00   10.42
 -14   3   5  248.46   11.33
 -13  -3   5  105.38    6.76
 -13   3   5  110.96    7.66
 -12  -3   5   17.19    3.51
 -12   3   5   10.39    3.73
 -11  -3   5   49.00    4.53
 -11   3   5   39.92    4.65
 -10  -3   5  767.15   14.79
 -10   3   5  763.95   17.39
  -9  -3   5   84.49    4.98
  -9   3   5   87.16    6.27
  -8  -3   5 1651.74   19.92
  -8   3   5 1659.99   24.12
   7  -3  -5  237.75    5.14
   7  -3  -5  198.27    2.58
   7   3  -5  210.93    3.72
   7   3  -5  200.95    4.64
  -7  -3   5  209.63    7.37
  -7   3   5  207.46    8.64
  -6  -3   5    5.06    2.14
  -6   3   5    2.16    2.56
   6   3  -5   15.98    1.43
   6  -3  -5   12.17    0.85
   6  -3  -5   19.29    1.93
   6   3  -5    8.86    1.27
   6   3  -5   12.14    1.35
  -5  -3   5    4.77    2.25
  -5   3   5    5.97    2.84
   5  -3  -5    5.61    1.44
   5  -3  -5    6.96    0.81
   5   3  -5    7.54    1.20
   5   3  -5    7.95    1.26
   5   3  -5    5.98    1.16
  -4  -3   5  393.66    9.61
  -4   3   5  362.65   11.91
   4  -3  -5  425.34    7.83
   4   3  -5  415.24    5.60
   4   3  -5  419.86    6.47
  -3   3   5  601.14   15.14
   3   3  -5  664.17    3.89
   3  -3  -5  629.73    9.79
   3   3  -5  650.17    6.99
  -3   3   5  656.94    8.02
   3   3  -5  690.18    8.06
   3   3  -5  639.96    8.43
   2  -3  -5   64.23    1.73
   2   3  -5   59.54    1.20
  -2   3   5   48.44    2.50
   2   3  -5   56.44    2.38
   2   3  -5   61.66    2.91
   2  -3  -5   48.26    3.91
   1   3  -5  292.15    7.31
  -1   3   5  276.13    5.88
   1  -3  -5  282.20    3.34
   1   3  -5  279.14    2.59
   1   3  -5  268.97    4.73
   0   3   5    7.88    1.57
   0   3  -5   11.00    2.40
   0   3  -5    9.17    1.25
   0   3  -5    9.44    0.69
   0  -3  -5   10.62    0.85
   1   3   5   12.79    1.75
   1  -3   5    8.79    0.68
  -1   3  -5    7.69    1.24
  -1  -3  -5    7.26    0.86
  -1   3  -5    8.57    0.81
   2   3   5 1308.32   14.14
   2  -3   5 1304.06    6.61
  -2   3  -5 1308.26   11.21
  -2  -3  -5 1359.44    8.34
  -2   3  -5 1368.53    8.21
   3   3   5  794.97   11.52
  -3  -3  -5  799.02    6.97
  -3   3  -5  791.83    9.00
  -3   3  -5  801.28    7.04
  -4   3  -5  458.68    7.14
  -4  -3  -5  479.66    5.86
  -4   3  -5  445.74    5.82
   4   3   5  464.52    9.01
   5   3   5  214.83    6.53
  -5   3  -5  219.96    5.36
  -5  -3  -5  239.32    4.74
  -5   3  -5  220.81    4.57
  -6   3  -5  346.97    6.53
  -6   3  -5  384.44    6.60
  -7  -3  -5   16.18    2.05
  -7   3  -5   12.86    1.92
  -7  -3  -5   15.23    2.31
  -7   3  -5   13.98    1.91
  -8  -3  -5  330.97    6.49
  -8   3  -5  309.47    6.85
  -8  -3  -5  316.45    6.67
  -8   3  -5  331.37    7.13
  -9  -3  -5  841.53   10.73
  -9   3  -5  802.36   11.19
  -9  -3  -5  809.48   11.11
  -9   3  -5  805.45   11.58
 -10  -3  -5  150.23    4.83
 -10   3  -5  148.84    5.30
 -10  -3  -5  152.13    5.49
 -10   3  -5  151.70    5.75
 -11  -3  -5   76.43    3.84
 -11   3  -5   86.28    4.64
 -11  -3  -5   82.95    4.52
 -11   3  -5   69.78    4.46
 -12   3  -5    5.78    2.38
 -12  -3  -5   12.04    2.51
 -12  -3  -5   11.97    2.71
 -12   3  -5    7.93    2.65
 -13  -3  -5   60.31    3.86
 -13   3  -5   57.74    4.10
 -13  -3  -5   65.40    4.84
 -13   3  -5   56.98    4.76
 -14  -3  -5   83.75    4.69
 -14   3  -5   79.24    5.03
 -14  -3  -5   79.87    5.41
 -14   3  -5   73.57    5.51
 -15  -3  -5  275.00    8.31
 -15   3  -5  269.91    8.87
 -17  -4   5   10.60    4.30
 -17   4   5   -2.58    4.62
 -16  -4   5    4.00    3.59
 -16   4   5    7.72    4.50
 -15  -4   5   42.24    5.41
 -15   4   5   37.35    5.63
 -14  -4   5    6.92    2.95
 -14   4   5    5.86    3.77
 -13  -4   5  133.52    7.41
 -13   4   5  125.42    8.28
 -12  -4   5   19.99    3.65
 -12   4   5   20.44    4.34
 -11  -4   5   67.15    4.93
 -11   4   5   57.70    5.81
 -10  -4   5   19.23    3.20
 -10   4   5   27.62    4.36
  -9  -4   5   23.80    2.95
  -9   4   5   25.63    4.13
  -8   4   5    5.75    3.28
   8   4  -5   14.57    1.30
   8   4  -5   15.75    0.97
  -8  -4   5   15.59    2.60
  -7   4   5   13.83    3.27
   7   4  -5   16.32    1.29
   7  -4  -5   15.64    1.69
   7  -4  -5   14.35    0.80
   7   4  -5   15.96    1.82
  -7  -4   5   14.14    2.41
  -6   4   5   39.01    4.50
   6  -4  -5   43.37    1.33
   6  -4  -5   38.16    2.66
   6   4  -5   39.97    1.97
   6   4  -5   45.11    2.01
   6   4  -5   40.68    2.24
  -6  -4   5   38.97    3.26
  -5  -4   5  781.37   12.94
  -5   4   5  770.30   17.19
   5   4  -5  871.32    8.95
   5   4  -5  823.95    8.64
   5   4  -5  864.09    7.70
   5  -4  -5  834.22   11.20
  -4  -4   5  303.71    8.05
  -4   4   5  252.41   10.28
  -4   4   5  278.41    5.03
   4   4  -5  341.28    5.96
   4   4  -5  298.98    5.13
   4   4  -5  322.89    4.63
   4  -4  -5  278.76    6.68
   3  -4  -5   45.68    2.95
   3   4  -5   47.35    1.03
  -3   4   5   32.64    4.51
   3   4  -5   44.72    2.18
  -3   4   5   38.82    2.21
   3   4  -5   45.23    2.00
   2  -4  -5   10.92    0.89
   2   4  -5    9.89    1.35
  -2   4   5   11.74    1.50
   2   4  -5   12.15    0.59
   2   4  -5   15.56    1.50
   1   4  -5   49.37    2.95
   1   4  -5   48.57    1.08
   1   4  -5   44.98    2.28
  -1   4   5   46.12    2.63
   1  -4  -5   44.39    1.50
   0   4  -5   19.65    2.82
   0  -4  -5   12.17    0.92
   0   4  -5   10.18    1.35
   0   4  -5   11.06    0.69
   0   4   5   11.77    1.68
   1  -4   5  258.87    2.62
  -1   4  -5  251.19    4.98
  -1  -4  -5  258.88    3.56
  -1   4  -5  251.86    3.09
   1   4   5  256.79    6.24
   2  -4   5  415.71    3.70
  -2   4  -5  448.40    6.92
  -2  -4  -5  452.79    5.02
  -2   4  -5  448.62    4.79
   2   4   5  398.58    7.93
  -3   4  -5   15.87    1.96
  -3  -4  -5   15.54    1.47
  -3   4  -5    9.42    1.25
   3   4   5    8.25    1.85
   4   4   5   58.59    3.59
  -4   4  -5   50.07    2.73
  -4  -4  -5   51.49    2.15
  -4   4  -5   45.54    2.11
  -5   4  -5  363.37    6.74
   5   4   5  369.31    8.46
  -5  -4  -5  391.09    5.83
  -5   4  -5  385.56    6.11
  -6   4  -5  323.19    6.66
  -6  -4  -5  394.23    6.51
  -6   4  -5  341.54    6.21
   6   4   5  351.24    8.42
  -7   4  -5   38.24    2.68
  -7  -4  -5   42.46    2.69
  -7   4  -5   40.54    2.66
  -8  -4  -5   11.21    1.95
  -8   4  -5   10.63    2.13
  -8  -4  -5    8.31    1.94
  -8   4  -5    6.10    1.82
  -9  -4  -5   46.26    3.22
  -9   4  -5   31.70    3.10
  -9  -4  -5   33.85    2.93
  -9   4  -5   27.40    3.09
 -10  -4  -5  122.30    4.46
 -10   4  -5  117.89    4.95
 -10  -4  -5  123.08    4.88
 -10   4  -5  122.97    5.17
 -11   4  -5   25.80    2.82
 -11  -4  -5   27.21    2.69
 -11  -4  -5   26.34    2.95
 -11   4  -5   24.48    2.92
 -12   4  -5   21.68    2.83
 -12  -4  -5   23.08    2.66
 -12  -4  -5   26.06    3.24
 -12   4  -5   26.07    3.36
 -13   4  -5    8.20    2.56
 -13  -4  -5    8.10    2.75
 -13   4  -5    5.33    2.76
 -13  -4  -5    8.00    2.36
 -14   4  -5   38.55    3.93
 -14  -4  -5   53.28    3.80
 -14  -4  -5   54.48    4.89
 -14   4  -5   48.17    4.83
 -15  -4  -5    5.41    2.59
 -15   4  -5    6.45    3.18
 -17  -5   5   22.86    5.21
 -16  -5   5  281.43   12.07
 -16   5   5  317.08   14.70
 -15  -5   5   55.21    5.64
 -15   5   5   57.34    6.95
 -14  -5   5  376.71   12.52
 -14   5   5  415.46   15.17
 -13  -5   5   25.21    3.87
 -13   5   5   31.19    5.08
 -12  -5   5    4.33    2.76
 -12   5   5    2.77    3.21
 -11  -5   5  161.98    7.24
 -11   5   5  147.15    8.62
 -10  -5   5  497.09   11.49
 -10   5   5  552.16   15.68
  -9  -5   5  159.45    6.33
  -9   5   5  158.58    8.49
   8   5  -5  561.82    5.59
   8   5  -5  598.65    8.23
  -8  -5   5  630.97   11.58
  -8   5   5  574.41   15.34
   7  -5  -5  846.34   10.87
   7  -5  -5  839.55    4.98
   7   5  -5  839.14    7.73
  -7  -5   5  778.24   12.61
   7   5  -5  793.40   10.71
  -7   5   5  784.88   17.78
  -6   5   5   14.56    3.70
   6  -5  -5   16.85    2.04
   6   5  -5   15.24    1.45
   6   5  -5   18.53    1.33
   6   5  -5   16.71    1.80
  -6  -5   5   15.68    2.37
  -5  -5   5  166.28    5.83
  -5   5   5  164.41    8.50
   5   5  -5  205.38    3.53
   5   5  -5  173.90    4.52
   5  -5  -5  166.20    5.46
  -5   5   5  165.04    3.70
   5   5  -5  174.94    4.19
  -4   5   5  895.17   19.69
  -4  -5   5  933.52   13.23
   4   5  -5  953.62   10.05
  -4   5   5  942.32    9.34
   4   5  -5  945.19    9.50
   4   5  -5 1035.15    7.19
   4  -5  -5  932.66   12.61
  -3   5   5  479.11    7.23
  -3   5   5  439.23   14.00
   3   5  -5  477.45    2.79
   3   5  -5  472.87    6.79
   3   5  -5  471.90    4.89
   2   5  -5  361.03    2.38
   2   5  -5  356.38    5.90
   2  -5  -5  353.40    3.97
   2   5  -5  396.46    5.20
  -2   5   5  358.77    6.64
   1  -5  -5  461.75    4.50
   1   5  -5  464.93    3.02
   1   5  -5  462.68    6.71
  -1   5   5  490.70    8.15
   1   5  -5  500.49    7.82
   0   5   5   14.85    1.92
   0   5  -5   19.32    2.72
   0  -5  -5   16.39    1.08
   0   5  -5   15.44    1.62
   0   5  -5   16.84    0.79
   1   5   5  276.22    6.58
  -1  -5  -5  310.40    3.99
   1  -5   5  299.20    2.67
  -1   5  -5  328.54    6.25
  -1   5  -5  307.28    3.49
   2   5   5 2248.38   19.10
   2  -5   5 2231.48    8.25
  -2   5  -5 2213.34   15.38
  -2  -5  -5 2223.38   11.12
  -2   5  -5 2187.52   10.50
   3  -5   5  739.43    5.36
  -3   5  -5  760.84    9.47
  -3  -5  -5  774.78    6.94
   3   5   5  791.79   11.67
  -3   5  -5  760.28    6.99
  -4   5  -5   56.59    3.02
  -4  -5  -5   67.35    2.49
  -4   5  -5   59.39    2.40
   4   5   5   59.26    3.59
  -5   5  -5   60.33    3.17
  -5  -5  -5   65.11    2.56
  -5   5  -5   64.34    2.74
   5   5   5   66.94    3.82
   6   5   5   99.94    4.76
  -6   5  -5   96.66    3.95
  -6  -5  -5  102.39    3.34
  -6   5  -5   97.17    3.59
  -7   5  -5  172.96    5.40
  -7  -5  -5  177.84    4.59
  -7   5  -5  179.64    4.99
   7   5   5  182.25    6.28
   8   5   5   91.36    4.84
  -8   5  -5   89.75    4.27
  -8  -5  -5   82.01    3.57
  -8   5  -5   85.32    3.93
  -9   5  -5  658.12   10.68
  -9  -5  -5  653.53    9.26
  -9  -5  -5  641.52   10.03
  -9   5  -5  657.68   10.85
 -10  -5  -5   14.03    2.23
 -10   5  -5    7.68    2.15
 -10  -5  -5    7.12    2.16
 -10   5  -5    7.90    2.20
 -11  -5  -5   10.61    2.10
 -11   5  -5    7.61    2.26
 -11  -5  -5   11.57    2.56
 -11   5  -5    6.03    2.32
 -12  -5  -5   25.87    2.76
 -12   5  -5   26.97    3.24
 -12  -5  -5   24.79    3.15
 -12   5  -5   23.10    3.30
 -13  -5  -5   59.83    3.80
 -13   5  -5   51.71    4.13
 -13  -5  -5   59.96    4.71
 -13   5  -5   49.88    4.61
 -14   5  -5    4.46    2.68
 -14  -5  -5   -2.17    3.04
 -14   5  -5    6.18    3.35
 -14  -5  -5    4.05    2.31
 -15  -5  -5   32.02    3.42
 -15   5  -5   31.46    3.98
 -17  -6   5   53.63    6.33
 -16  -6   5   87.73    7.21
 -16   6   5   95.75    9.13
 -15  -6   5  315.41   11.90
 -15   6   5  317.12   14.46
 -14  -6   5   45.25    4.90
 -14   6   5   46.14    6.20
 -13  -6   5    2.82    2.74
 -13   6   5    2.88    3.44
 -12  -6   5    6.29    2.79
 -12   6   5   11.68    4.23
 -11  -6   5    3.95    2.50
 -11   6   5    7.51    3.57
 -10  -6   5   50.69    4.09
 -10   6   5   56.18    5.78
  -9  -6   5  725.44   12.92
  -9   6   5  696.66   17.41
   8   6  -5  468.18    8.05
  -8  -6   5  465.35    9.70
  -8   6   5  414.45   13.32
   7  -6  -5  328.63    7.32
   7   6  -5  325.91    4.84
   7   6  -5  333.86    5.20
  -7  -6   5  309.19    7.70
   7   6  -5  324.20    7.48
  -7   6   5  295.07   11.58
  -6   6   5  200.99    9.79
   6  -6  -5  228.01    6.44
  -6   6   5  219.16    4.00
   6   6  -5  205.96    3.47
   6   6  -5  209.35    4.46
   6   6  -5  199.92    5.59
  -6  -6   5  194.45    6.05
  -5  -6   5  113.47    4.53
  -5   6   5  102.14    7.26
   5   6  -5  129.26    2.50
   5  -6  -5   98.11    4.47
   5   6  -5  111.74    3.86
  -5   6   5  103.46    3.15
  -4   6   5   52.91    5.55
  -4  -6   5   40.62    2.90
   4   6  -5   37.78    2.35
   4   6  -5   43.01    1.32
   4  -6  -5   52.85    3.33
  -4   6   5   54.43    2.45
  -3   6   5 1410.72   25.68
   3   6  -5 1487.04    4.34
   3   6  -5 1446.57   12.32
  -3   6   5 1512.46   12.98
   3   6  -5 1481.62    6.83
   2  -6  -5 1318.20    7.82
   2   6  -5 1238.15    3.87
   2   6  -5 1363.21   11.69
  -2   6   5 1371.61   13.08
   2   6  -5 1288.98    7.15
   1  -6  -5  393.22    4.30
   1   6  -5  380.18    6.32
   1   6  -5  360.67    2.50
  -1   6   5  390.17    7.35
   1   6  -5  384.02    5.69
   0   6  -5   94.00    4.36
   0  -6  -5  111.70    2.41
   0   6  -5  106.65    3.59
   0   6  -5  110.07    1.80
   0   6   5  116.53    4.24
  -1   6  -5  377.53    6.51
   1  -6   5  386.34    2.95
  -1   6  -5  388.67    4.00
   1   6   5  372.89    7.60
  -1  -6  -5  378.53    4.51
   2  -6   5  148.96    2.16
  -2  -6  -5  154.40    3.16
  -2   6  -5  140.70    4.28
  -2   6  -5  146.80    2.85
   2   6   5  143.68    5.12
   3   6   5  663.17   10.99
   3  -6   5  619.42    4.88
  -3  -6  -5  639.99    6.51
  -3   6  -5  620.64    8.88
  -3   6  -5  625.71    6.51
   4   6   5  922.29   13.12
  -4   6  -5  904.56   10.96
  -4  -6  -5  911.12    8.23
  -4   6  -5  891.34    8.51
  -5   6  -5  226.16    5.81
  -5  -6  -5  225.46    4.46
   5   6   5  225.73    6.82
  -5   6  -5  211.19    4.70
  -6   6  -5   12.69    2.02
  -6  -6  -5   10.60    1.51
  -6   6  -5   11.93    1.72
   6   6   5   20.58    2.62
  -7   6  -5  205.72    5.85
  -7  -6  -5  213.16    5.05
  -7   6  -5  213.13    5.62
   7   6   5  219.44    7.05
  -8   6  -5    8.66    2.03
  -8  -6  -5   11.91    1.90
  -8   6  -5   10.16    2.00
   8   6   5   13.21    2.27
  -9   6  -5    8.26    2.30
  -9  -6  -5    9.91    2.13
  -9   6  -5    8.90    2.36
 -10   6  -5  128.10    5.34
 -10  -6  -5  138.48    5.28
 -10   6  -5  137.82    5.65
 -10  -6  -5  142.74    4.75
 -11  -6  -5   19.83    2.56
 -11   6  -5   16.85    2.68
 -11  -6  -5   18.64    2.80
 -11   6  -5   16.15    2.78
 -12  -6  -5   15.17    2.37
 -12   6  -5   16.07    2.78
 -12  -6  -5   17.06    2.82
 -12   6  -5   13.34    2.89
 -13  -6  -5   68.65    4.05
 -13   6  -5   62.40    4.59
 -13  -6  -5   60.18    4.47
 -13   6  -5   63.04    5.03
 -14  -6  -5   70.37    4.39
 -14   6  -5   66.47    5.00
 -14   6  -5   63.59    5.55
 -15  -6  -5    4.90    2.35
 -15   6  -5    8.69    3.11
 -17  -7   5   -0.11    3.86
 -16  -7   5   85.28    7.17
 -16   7   5   95.87    9.25
 -15  -7   5    7.08    3.37
 -15   7   5    7.45    4.64
 -14  -7   5   10.34    3.16
 -14   7   5   11.45    4.68
 -13  -7   5  182.74    8.04
 -13   7   5  173.46   10.46
 -12  -7   5  604.13   13.45
 -12   7   5  637.27   18.47
 -11  -7   5  232.46    8.05
 -11   7   5  253.22   11.35
 -10  -7   5  153.88    6.40
 -10   7   5  148.75    8.79
  -9  -7   5  309.84    8.36
  -9   7   5  249.53   11.06
   8   7  -5  748.20   10.95
   8  -7  -5  710.44    4.10
  -8  -7   5  781.77   12.18
  -8   7   5  768.01   18.64
  -7   7   5   48.25    5.31
   7  -7  -5   45.77    3.09
  -7   7   5   45.24    1.80
   7   7  -5   48.72    1.88
  -7  -7   5   49.94    3.20
   7   7  -5   51.23    3.47
  -6   7   5 2040.46   30.63
   6  -7  -5 2295.33   21.49
   6   7  -5 2154.84   10.22
  -6  -7   5 2140.60   10.23
  -6   7   5 2242.35   13.35
   6   7  -5 2098.08   18.68
  -6  -7   5 2045.33   17.98
  -5  -7   5  634.46    9.80
  -5   7   5  639.92   17.09
  -5  -7   5  669.50    6.04
   5  -7  -5  704.90   12.13
  -5   7   5  711.37    8.23
   5   7  -5  710.06    5.13
   5   7  -5  677.89    9.90
  -4  -7   5   12.98    1.71
  -4   7   5    8.03    1.41
  -4   7   5    4.29    3.48
   4   7  -5   11.93    0.64
   4   7  -5   13.96    1.72
   4  -7  -5    9.60    1.85
  -3   7   5  192.05   10.12
  -3   7   5  197.40    5.12
   3   7  -5  160.99    1.14
   3   7  -5  163.74    1.49
   3   7  -5  221.30    5.20
   2  -7  -5  607.27    5.51
  -2   7   5  629.42    9.30
   2   7  -5  608.72    8.41
  -1   7   5  182.03    5.29
   1   7  -5  166.90    4.48
   1   7  -5  117.97    1.37
   1   7  -5  135.86    2.48
   1  -7  -5  173.13    3.02
   0   7  -5  487.81    8.70
   0  -7  -5  511.61    5.13
   0   7   5  533.87    9.19
   0   7  -5  494.62    7.72
   0   7  -5  472.50    3.62
   1  -7   5  407.05    2.89
  -1  -7  -5  380.93    4.66
  -1   7  -5  378.87    6.82
   1   7   5  413.94    8.41
  -1   7  -5  374.63    3.92
   2  -7   5   14.58    0.76
  -2  -7  -5   13.68    1.20
  -2   7  -5   14.83    1.85
  -2   7  -5   13.08    1.12
   2   7   5   16.80    2.15
   3  -7   5   12.66    0.89
  -3  -7  -5   13.75    1.29
  -3   7  -5   13.57    1.95
  -3   7  -5   12.03    1.26
   3   7   5   12.62    2.13
  -4  -7  -5  498.37    6.26
  -4   7  -5  466.58    8.05
  -4   7  -5  485.09    6.64
   4   7   5  468.89    9.63
   5   7   5  193.98    6.40
  -5   7  -5  157.65    5.02
  -5  -7  -5  166.18    3.97
  -5   7  -5  159.74    4.29
  -6   7  -5   36.10    2.75
  -6  -7  -5   35.98    2.17
   6   7   5   37.93    3.28
  -6   7  -5   37.08    2.43
  -7   7  -5  197.78    5.87
  -7  -7  -5  217.82    5.13
  -7   7  -5  211.09    5.68
   7   7   5  200.56    6.82
   8   7   5   81.13    4.72
  -8   7  -5   84.47    4.24
  -8  -7  -5   82.26    3.57
  -8   7  -5   79.54    3.93
   9   7   5   13.95    2.65
  -9   7  -5   13.08    2.38
  -9  -7  -5    8.75    1.93
  -9   7  -5   10.14    2.20
 -10   7  -5   76.26    4.36
 -10  -7  -5   82.70    4.20
 -10   7  -5   85.02    4.65
 -11  -7  -5  196.42    5.73
 -11   7  -5  183.00    6.65
 -11  -7  -5  185.91    6.29
 -11   7  -5  179.71    6.96
 -12  -7  -5    2.31    1.95
 -12   7  -5    2.16    2.36
 -12  -7  -5    1.74    2.33
 -12   7  -5   -1.27    2.66
 -13  -7  -5  203.54    6.43
 -13   7  -5  184.39    7.08
 -13  -7  -5  203.36    7.53
 -13   7  -5  182.68    7.95
 -14  -7  -5    9.88    2.58
 -14   7  -5    6.25    2.86
 -14   7  -5   12.35    3.61
 -15  -7  -5    3.41    2.31
 -15   7  -5    4.90    3.12
 -17  -8   5   16.39    4.74
 -16  -8   5    9.83    3.80
 -16   8   5    4.19    4.62
 -15  -8   5   40.93    4.91
 -15   8   5   38.86    6.59
 -14  -8   5   40.71    4.69
 -14   8   5   53.21    6.85
 -13  -8   5   48.41    4.57
 -13   8   5   57.87    6.84
 -12  -8   5   27.56    3.56
 -12   8   5   29.61    5.29
 -11  -8   5  259.59    8.32
 -11   8   5  265.33   11.97
 -10  -8   5   26.32    3.03
 -10   8   5   28.48    4.95
  -9  -8   5  514.10   10.44
  -9   8   5  503.24   15.88
  -8   8   5    5.40    3.50
  -8  -8   5    5.80    0.75
   8   8  -5    6.62    1.99
  -8   8   5    9.13    0.87
  -8  -8   5    7.99    1.98
  -7   8   5  327.22   12.78
   7  -8  -5  338.29    8.20
  -7  -8   5  335.94    4.08
   7   8  -5  330.19    4.29
  -7   8   5  360.78    5.09
  -7  -8   5  331.32    7.27
   7   8  -5  327.76    8.46
  -6   8   5   32.28    4.84
   6  -8  -5   35.59    3.09
  -6  -8   5   29.02    1.42
  -6   8   5   34.98    1.96
   6   8  -5   29.18    1.26
   6   8  -5   24.26    2.62
  -6  -8   5   26.00    2.50
  -5  -8   5  255.15    5.90
  -5   8   5  265.71   11.49
  -5   8   5  292.47    5.66
   5  -8  -5  277.36    8.09
   5   8  -5  276.71    2.84
   5   8  -5  274.69    6.81
  -4   8   5   19.58    1.95
  -4   8   5   16.19    4.40
   4   8  -5   12.03    0.48
   4   8  -5   17.53    2.07
  -3   8   5  124.39    4.33
  -3   8   5  120.67    8.71
   3   8  -5  121.95    4.25
   2   8  -5    5.44    1.36
   2  -8  -5    4.61    0.86
  -2   8   5    6.20    1.68
  -1   8   5  577.89    9.71
   1  -8  -5  525.54    5.33
   1   8  -5  509.60    8.11
   0   8  -5  302.13    6.00
   0   8   5  304.78    7.26
   0  -8  -5  319.06    4.21
   0   8  -5  298.35    6.29
   0   8  -5  267.06    2.71
  -1  -8  -5   69.41    2.17
   1   8   5   66.85    3.75
  -1   8  -5   67.70    3.28
  -1   8  -5   73.48    1.85
   1  -8   5   67.90    1.16
  -2  -8  -5   67.29    2.18
   2  -8   5   69.42    1.43
   2   8   5   58.39    3.50
  -2   8  -5   63.09    3.23
  -2   8  -5   70.64    2.14
   3  -8   5   68.94    1.68
  -3  -8  -5   69.87    2.29
  -3   8  -5   71.07    3.38
   3   8   5   77.92    4.06
  -3   8  -5   68.77    2.39
  -4  -8  -5  122.80    3.35
  -4   8  -5  107.34    4.35
  -4   8  -5  104.09    3.25
   4   8   5  104.56    4.85
  -5  -8  -5  493.42    6.68
  -5   8  -5  466.73    8.51
  -5   8  -5  469.49    7.25
   5   8   5  504.64   10.47
   6   8   5   19.78    2.76
  -6   8  -5   18.17    2.36
  -6  -8  -5   28.48    2.22
  -6   8  -5   20.76    2.10
   7   8   5    5.24    2.14
  -7  -8  -5   12.58    1.83
  -7   8  -5    7.21    2.00
  -7   8  -5    9.44    1.98
  -8   8  -5   92.40    4.43
  -8  -8  -5   98.06    3.83
  -8   8  -5   97.26    4.30
   8   8   5   97.68    5.22
   9   8   5    3.76    2.10
  -9   8  -5    7.68    2.16
  -9  -8  -5    1.89    1.61
  -9   8  -5    3.21    1.95
  10   8   5   60.55    4.40
 -10   8  -5   52.08    3.74
 -10  -8  -5   57.02    3.67
 -10   8  -5   56.93    4.03
 -11  -8  -5    4.24    2.04
 -11   8  -5    2.88    2.28
 -11  -8  -5    1.27    2.02
 -11   8  -5   -0.29    2.24
 -12  -8  -5   62.35    3.63
 -12   8  -5   57.86    4.40
 -12  -8  -5   57.34    4.27
 -12   8  -5   68.73    5.02
 -13  -8  -5   22.16    2.75
 -13   8  -5   21.68    3.47
 -13  -8  -5   19.70    3.32
 -13   8  -5   17.98    3.58
 -14  -8  -5   98.01    4.87
 -14   8  -5   90.78    5.90
 -14   8  -5   88.18    6.40
 -15  -8  -5    1.38    2.40
 -16  -9   5    7.23    3.67
 -16   9   5    0.87    4.74
 -15  -9   5    1.84    2.90
 -15   9   5    3.91    5.46
 -14  -9   5    3.84    2.88
 -14   9   5    2.79    4.43
 -13  -9   5  112.41    6.35
 -13   9   5  108.95    8.85
 -12  -9   5  261.39    8.71
 -12   9   5  258.14   12.34
 -11  -9   5  200.93    7.29
 -11   9   5  223.21   11.47
 -10  -9   5  155.26    6.06
 -10   9   5  151.67    9.30
   9   9  -5  158.54    5.12
  -9  -9   5  169.41    5.93
  -9   9   5  192.66   10.25
   8   9  -5  108.04    4.89
  -8  -9   5  106.42    2.39
  -8   9   5  110.72    2.73
  -8  -9   5   95.03    4.30
  -8   9   5   97.33    7.62
  -7   9   5   37.69    5.38
   7   9  -5   28.24    3.32
   7  -9  -5   33.92    3.22
  -7   9   5   40.99    2.09
  -7  -9   5   31.27    1.54
   7   9  -5   32.78    1.45
  -7  -9   5   30.57    2.49
  -6   9   5  388.60   14.22
  -6   9   5  416.53    6.65
   6  -9  -5  409.07    9.96
  -6  -9   5  376.88    4.96
   6   9  -5  410.10    3.76
   6   9  -5  385.38    9.25
  -6  -9   5  410.80    7.46
  -5  -9   5  344.06    6.52
  -5   9   5  387.82   14.59
   5  -9  -5  403.29   10.22
   5   9  -5  372.53    2.89
   5   9  -5  389.02    8.73
  -5   9   5  429.98    7.25
  -4   9   5   12.93    4.27
   4   9  -5   16.32    2.15
  -4   9   5    9.53    1.67
  -3   9   5   21.27    4.69
   3   9  -5   31.61    2.59
  -3   9   5   25.41    2.29
   2  -9  -5  263.87    3.87
   2   9  -5  279.52    6.50
  -2   9   5  278.10    6.72
  -1   9   5   36.83    2.89
   1  -9  -5   33.12    1.56
   1   9  -5   30.64    2.36
   0   9   5  747.04   11.55
   0  -9  -5  737.27    6.48
   0   9  -5  751.48   10.29
   1  -9   5  684.80    3.43
  -1  -9  -5  655.10    6.31
  -1   9  -5  672.69    9.91
  -1   9  -5  644.03    5.44
   2  -9   5   54.64    1.26
  -2  -9  -5   48.11    1.97
   2   9   5   60.16    3.76
  -2   9  -5   45.54    3.03
  -2   9  -5   46.49    1.85
   3   9   5   11.15    2.21
   3  -9   5    8.18    0.77
  -3  -9  -5    8.03    1.16
  -3   9  -5    5.18    1.58
  -3   9  -5    9.04    1.19
  -4  -9  -5 1305.76   10.16
  -4   9  -5 1288.85   14.14
   4   9   5 1338.41   16.96
  -4   9  -5 1229.43   10.82
  -5  -9  -5  823.98    8.67
  -5   9  -5  814.36   11.58
  -5   9  -5  783.22    9.48
   5   9   5  881.51   13.94
  -6  -9  -5  592.73    7.88
  -6   9  -5  556.75    9.89
  -6   9  -5  576.15    8.93
   6   9   5  569.05   11.41
   7   9   5  484.74   10.88
  -7  -9  -5  497.57    7.68
  -7   9  -5  486.74    9.57
  -7   9  -5  485.36    8.82
  -8   9  -5   17.99    2.56
  -8  -9  -5   16.55    2.13
   8   9   5   17.63    2.85
  -8   9  -5   17.17    2.54
  -9  -9  -5    1.80    1.76
  -9   9  -5    2.98    1.97
   9   9   5   -2.21    2.19
 -10   9  -5   93.75    4.93
 -10  -9  -5  103.00    4.59
  10   9   5   95.47    5.42
 -10   9  -5   94.26    4.96
  11   9   5  156.19    6.86
 -11   9  -5  145.01    6.40
 -11  -9  -5  148.74    5.82
 -11   9  -5  135.82    6.32
 -12  -9  -5    9.09    2.40
 -12   9  -5    4.84    2.64
 -12  -9  -5    7.10    2.57
 -12   9  -5    3.79    2.71
 -13  -9  -5   82.00    4.31
 -13   9  -5   72.48    5.25
 -13  -9  -5   79.68    5.14
 -13   9  -5   69.62    5.47
 -14  -9  -5   15.78    2.74
 -14   9  -5   14.04    3.60
 -14   9  -5    8.42    3.42
 -16  10   5    1.58    4.88
 -15 -10   5    4.08    3.06
 -15  10   5   -0.26    4.49
 -14 -10   5  294.44   10.40
 -14  10   5  305.93   14.93
 -13 -10   5  263.93    9.55
 -13  10   5  233.71   12.54
 -12  10   5   12.36    4.62
 -12 -10   5   10.42    2.87
 -11 -10   5  316.19    9.13
 -11  10   5  294.44   13.29
 -10  10   5    5.02    3.91
 -10 -10   5    5.32    2.12
  -9  10   5    3.43    3.63
   9  10  -5    1.40    1.69
  -9 -10   5    2.87    1.85
  -8  10   5  141.10    9.32
  -8  10   5  146.67    3.57
   8  10  -5  146.00    5.99
  -8 -10   5  159.86    5.30
  -7  10   5 1112.62   24.86
   7  10  -5 1158.44   17.31
  -7 -10   5 1183.55   12.74
  -7  10   5 1233.11   11.26
  -6  10   5  181.34   10.28
   6 -10  -5  198.00    7.48
   6  10  -5  195.59    2.44
  -6  10   5  209.46    5.09
  -6 -10   5  213.18    5.23
   6  10  -5  206.72    7.35
  -5  10   5  310.03   13.47
   5  10  -5  277.27    2.05
  -5  10   5  343.67    6.76
   5  10  -5  310.65    8.31
  -4  10   5  254.85   12.18
   4  10  -5  246.84    7.02
  -4  10   5  276.96    6.37
  -3  10   5    4.48    4.12
  -3  10   5    3.50    1.41
   3  10  -5    7.19    1.86
   2  10  -5   92.05    4.12
   2 -10  -5   93.93    2.44
  -2  10   5  102.66    4.36
   1 -10  -5 1914.94   10.61
   1  10  -5 1930.01   17.37
  -1  10   5 1986.19   18.92
   0 -10  -5 1074.96    7.97
   0  10  -5 1055.96   12.50
   0  10   5 1131.38   14.55
   1  10   5  301.92    7.77
   1 -10   5  291.14    2.16
  -1 -10  -5  297.46    4.37
  -1  10  -5  297.12    6.81
  -1  10  -5  315.65    4.10
   2  10   5  257.43    7.54
   2 -10   5  266.46    2.66
  -2 -10  -5  253.32    4.22
  -2  10  -5  235.26    6.25
  -2  10  -5  275.55    4.35
   3  10   5   37.80    3.31
  -3 -10  -5   36.68    1.89
   3 -10   5   34.74    1.27
  -3  10  -5   28.17    2.64
  -3  10  -5   39.03    1.99
   4  10   5  102.72    5.09
  -4 -10  -5   99.50    3.14
  -4  10  -5   88.09    4.10
  -4  10  -5   99.17    3.35
  -5 -10  -5 1120.99   10.12
  -5  10  -5 1110.36   13.86
   5  10   5 1135.14   16.08
  -5  10  -5 1090.04   11.45
  -6 -10  -5 1436.71   12.31
  -6  10  -5 1362.55   15.66
  -6  10  -5 1381.56   13.88
   6  10   5 1417.47   18.21
   7  10   5  558.52   11.71
  -7 -10  -5  567.04    8.23
  -7  10  -5  531.05   10.26
  -7  10  -5  549.34    9.48
   8  10   5  397.71   10.08
  -8 -10  -5  386.80    7.39
  -8  10  -5  353.71    8.58
  -8  10  -5  377.78    8.36
  -9  10  -5   23.91    3.04
  -9 -10  -5   18.05    2.33
   9  10   5   27.50    3.22
  -9  10  -5   21.38    2.80
  10  10   5    4.02    2.19
 -10 -10  -5    5.03    2.07
 -10  10  -5    2.67    2.11
 -10  10  -5    3.65    2.24
 -11  10  -5   69.88    4.73
 -11 -10  -5   71.79    4.26
 -11  10  -5   71.19    4.94
  11  10   5   82.36    5.32
 -12  10  -5  277.78    9.09
 -12 -10  -5  296.10    8.40
 -12  10  -5  302.02   10.01
 -13 -10  -5   71.98    4.09
 -13  10  -5   66.47    5.08
 -13 -10  -5   66.67    4.83
 -13  10  -5   67.94    5.79
 -14 -10  -5    3.96    2.13
 -14  10  -5   -0.37    2.84
 -14  10  -5   -1.05    3.28
 -16  11   5   18.13    6.01
 -15 -11   5    0.74    2.91
 -15  11   5    7.84    5.08
 -14 -11   5  224.20    9.16
 -14  11   5  244.09   13.49
 -13 -11   5   28.07    3.67
 -13  11   5   46.05    6.65
 -12  11   5   17.01    5.03
 -12 -11   5   11.47    2.80
 -11  11   5   33.84    5.81
 -11 -11   5   54.51    4.08
 -10 -11   5  115.26    5.31
 -10  11   5  109.84    8.66
  -9  11   5   21.43    4.99
  -9  11   5   20.40    1.40
   9  11  -5   13.51    2.45
  -9 -11   5   14.94    2.30
  -8  11   5   11.12    4.48
   8  11  -5   14.93    2.78
  -8  11   5   17.15    1.59
  -8 -11   5    9.13    1.82
  -7  11   5  556.37   18.00
   7  11  -5  494.52   11.96
  -7  11   5  589.54    8.21
  -7 -11   5  512.47    8.30
   6  11  -5    0.40    2.06
  -6  11   5    2.82    1.42
  -6  11   5    1.27    3.50
   6  11  -5    0.59    0.43
  -6 -11   5    1.88    1.11
  -5 -11   5   85.18    2.64
  -5  11   5   90.64    8.06
   5  11  -5   70.35    0.89
  -5  11   5   92.90    3.87
   5  11  -5  101.40    5.14
  -4  11   5 1095.50   25.84
  -4  11   5 1211.56   13.88
   4  11  -5 1166.22   15.61
  -3  11   5  182.36   10.92
  -3  11   5  202.04    5.99
   3  11  -5  171.06    5.91
   2 -11  -5   96.86    2.57
   2  11  -5  101.65    4.64
  -2  11   5  107.53    4.57
   1 -11  -5  129.88    2.95
   1  11  -5  126.56    5.02
  -1  11   5  145.40    5.40
   0 -11  -5   10.65    1.11
   0  11   5   10.09    2.07
   0  11  -5   12.72    2.17
  -1 -11  -5   35.35    1.73
   1 -11   5   26.69    0.66
  -1  11  -5   30.46    2.72
  -1  11  -5   36.24    1.70
   1  11   5   27.50    2.83
   2  11   5  394.36    9.45
  -2 -11  -5  395.84    5.33
   2 -11   5  407.29    3.22
  -2  11  -5  376.21    8.32
  -2  11  -5  433.08    5.88
   3  11   5  454.16   10.34
  -3 -11  -5  446.83    5.91
   3 -11   5  456.63    4.15
  -3  11  -5  443.97    8.82
  -3  11  -5  463.19    6.73
   4  11   5  802.62   13.77
  -4 -11  -5  803.98    8.25
  -4  11  -5  739.83   11.37
  -4  11  -5  786.66    9.44
   5  11   5   13.25    2.76
  -5 -11  -5   11.25    1.54
  -5  11  -5   13.51    2.27
  -5  11  -5   15.36    1.93
  -6 -11  -5   15.46    1.79
  -6  11  -5   18.05    2.72
   6  11   5   20.07    2.94
  -6  11  -5   17.33    2.13
  -7 -11  -5  211.07    5.09
  -7  11  -5  206.06    6.60
  -7  11  -5  207.54    6.11
   7  11   5  235.33    7.82
   8  11   5  184.91    7.23
  -8 -11  -5  182.35    5.09
  -8  11  -5  166.50    6.21
  -8  11  -5  181.31    6.15
   9  11   5  280.84    8.85
  -9 -11  -5  260.49    6.48
  -9  11  -5  265.50    8.17
  -9  11  -5  267.07    7.96
 -10 -11  -5   15.20    2.44
 -10  11  -5   15.89    2.84
 -10  11  -5   13.16    2.81
  10  11   5   12.72    2.73
  11  11   5    2.58    2.26
 -11 -11  -5    5.97    2.18
 -11  11  -5    4.65    2.53
 -11  11  -5    2.43    2.53
  12  11   5   47.04    4.53
 -12 -11  -5   46.96    3.90
 -12  11  -5   44.44    4.42
 -12  11  -5   48.58    4.79
 -13 -11  -5   30.07    2.94
 -13 -11  -5   28.89    3.72
 -13  11  -5   28.87    3.94
 -13  11  -5   25.77    4.12
 -14 -11  -5   10.26    2.48
 -14  11  -5    8.40    3.46
 -14  11  -5   10.74    3.72
 -15  12   5   72.50    8.99
 -14  12   5    7.26    5.29
 -14 -12   5    1.52    2.70
 -13 -12   5   87.14    5.53
 -13  12   5   80.19    8.30
 -12  12   5    1.12    4.14
 -12 -12   5    2.29    2.29
 -11  12   5   14.05    4.83
 -11 -12   5   16.25    2.58
 -10  12   5   -0.59    3.89
 -10 -12   5    3.86    1.97
  -9  12   5  295.95   13.91
   9  12  -5  272.93    8.23
  -9 -12   5  296.62    7.51
  -9  12   5  299.79    5.23
  -8  12   5   20.01    5.03
   8  12  -5   23.54    3.26
  -8  12   5   31.95    2.19
  -8 -12   5   18.74    2.16
  -7  12   5  934.02   23.74
   7  12  -5  964.12   17.25
  -7 -12   5  980.48   11.02
  -6  12   5  206.42   11.46
  -6  12   5  243.23    6.25
  -6 -12   5  202.56    4.59
   6  12  -5  217.94    8.33
  -5  12   5  239.92   12.64
  -5  12   5  274.70    6.80
   5  12  -5  251.37    8.31
  -4  12   5   93.84    8.45
  -4  12   5   96.47    4.29
   4  12  -5   90.77    5.15
  -3  12   5  507.44   17.86
  -3  12   5  577.93   10.50
   3  12  -5  535.42   10.99
   2 -12  -5   72.33    2.27
  -2  12   5   75.55    4.09
   2  12  -5   70.69    4.17
   1 -12  -5  278.27    4.36
   1  12  -5  270.22    7.54
  -1  12   5  301.54    8.01
   0 -12  -5   65.41    2.24
   0  12  -5   65.11    3.96
   0  12   5   68.85    4.13
   1 -12   5  190.47    1.56
  -1 -12  -5  203.47    3.78
  -1  12  -5  195.27    6.27
   1  12   5  201.65    6.84
  -1  12  -5  200.77    3.83
  -2 -12  -5  157.17    3.49
   2 -12   5  160.55    2.11
  -2  12  -5  156.71    5.57
  -2  12  -5  165.78    4.00
   2  12   5  139.41    5.90
   3  12   5  141.53    6.01
   3 -12   5  157.40    2.51
  -3  12  -5  142.51    5.41
  -3 -12  -5  154.94    3.64
  -3  12  -5  152.12    4.17
   4  12   5 3135.58   28.12
  -4 -12  -5 3093.67   16.18
  -4  12  -5 3017.41   24.21
  -4  12  -5 3140.39   19.61
   5  12   5  101.01    5.31
  -5 -12  -5   94.58    3.19
  -5  12  -5   95.57    4.63
  -5  12  -5  102.99    4.09
  -6 -12  -5  191.71    4.66
   6  12   5  210.82    7.59
  -6  12  -5  190.37    6.66
  -6  12  -5  200.06    5.95
  -7 -12  -5   25.10    2.20
  -7  12  -5   22.80    2.94
   7  12   5   24.05    3.11
  -7  12  -5   25.86    2.85
  -8 -12  -5  257.23    6.05
  -8  12  -5  236.46    7.59
  -8  12  -5  260.90    7.75
   8  12   5  255.43    8.52
   9  12   5   46.99    4.20
  -9 -12  -5   36.92    2.86
  -9  12  -5   43.76    3.92
  -9  12  -5   40.67    3.72
 -10 -12  -5  110.89    4.76
 -10  12  -5   98.86    5.42
  10  12   5  110.89    5.96
 -10  12  -5  110.52    5.91
  11  12   5   39.23    4.25
 -11 -12  -5   41.47    3.49
 -11  12  -5   40.25    4.17
 -11  12  -5   41.05    4.20
 -12 -12  -5   39.09    3.65
 -12  12  -5   43.09    4.49
 -12  12  -5   36.06    4.35
  12  12   5   50.85    4.77
 -13 -12  -5    7.95    2.69
 -13  12  -5   12.52    3.64
 -13  12  -5    9.85    3.57
 -14 -12  -5   80.83    4.50
 -14  12  -5   57.68    5.52
 -14  12  -5   66.43    6.21
 -15  13   5   -2.52    5.99
 -14  13   5  119.91   10.55
 -13 -13   5   34.77    3.88
 -13  13   5   36.53    7.12
 -12  13   5   13.10    5.12
 -12 -13   5   13.04    2.62
 -11 -13   5  150.97    5.96
 -11  13   5  132.70   10.01
 -10 -13   5  112.31    4.91
 -10  13   5  102.53    8.95
  -9  13   5   -2.29    4.37
  -9  13   5    2.99    1.28
   9  13  -5    4.67    2.25
  -9 -13   5    3.94    1.73
  -8  13   5  202.18   12.08
   8  13  -5  185.49    7.95
  -8 -13   5  183.41    5.12
  -7  13   5  242.43   12.74
   7  13  -5  294.93   10.15
  -7  13   5  284.17    6.79
  -7 -13   5  298.97    5.85
   6  13  -5    4.72    2.70
  -6  13   5    5.97    3.88
  -6  13   5    4.28    1.79
  -6 -13   5    3.18    0.98
  -5  13   5   73.52    7.96
  -5  13   5   79.25    4.11
   5  13  -5   85.97    5.34
  -4  13   5  558.54   19.52
  -4  13   5  603.53   10.84
   4  13  -5  557.29   12.39
  -3  13   5  172.82   11.05
  -3  13   5  191.44    6.38
   3  13  -5  166.09    6.57
   2 -13  -5   58.65    2.22
  -2  13   5   66.90    4.02
   2  13  -5   59.83    4.18
   1 -13  -5  185.15    3.71
   1  13  -5  190.68    6.70
   0  13   5   10.34    2.29
   0 -13  -5    6.27    1.10
   0  13  -5    7.28    2.07
  -1 -13  -5   39.59    1.86
   1 -13   5   36.32    0.68
  -1  13  -5   39.55    3.28
   1  13   5   52.54    3.87
  -1  13  -5   33.15    1.76
  -2 -13  -5  270.49    4.61
   2 -13   5  277.00    2.73
  -2  13  -5  270.80    7.63
   2  13   5  272.88    8.22
  -2  13  -5  290.30    5.48
  -3 -13  -5  509.74    6.50
   3 -13   5  513.13    4.57
  -3  13  -5  486.52   10.13
  -3  13  -5  498.05    7.88
   3  13   5  557.42   11.75
   4  13   5  205.87    7.52
  -4 -13  -5  186.39    4.22
  -4  13  -5  187.08    6.55
  -4  13  -5  176.92    5.19
   5  13   5   41.60    3.83
  -5 -13  -5   34.16    2.23
  -5  13  -5   33.65    3.34
  -5  13  -5   33.72    2.68
   6  13   5   83.56    5.06
  -6 -13  -5   71.45    3.04
  -6  13  -5   76.88    4.42
  -6  13  -5   69.22    3.90
  -7 -13  -5  615.96    8.80
   7  13   5  628.96   13.31
  -7  13  -5  564.24   11.51
  -7  13  -5  632.71   11.39
  -8 -13  -5  106.92    4.11
  -8  13  -5  100.02    5.44
   8  13   5  107.41    5.85
  -8  13  -5  107.43    5.34
   9  13   5   23.99    3.40
  -9 -13  -5   19.90    2.34
  -9  13  -5   21.02    3.24
  -9  13  -5   21.52    3.15
  10  13   5   46.07    4.22
 -10 -13  -5   36.67    3.07
 -10  13  -5   39.31    4.09
 -10  13  -5   34.43    3.91
 -11 -13  -5    6.12    2.25
 -11  13  -5    7.42    2.93
  11  13   5    6.78    2.59
 -11  13  -5    8.60    2.97
  12  13   5    5.67    2.70
 -12 -13  -5    5.16    2.50
 -12  13  -5    6.13    3.17
 -12  13  -5    4.60    3.16
  13  13   5    2.04    2.63
 -13  13  -5    0.56    2.93
 -13  13  -5    3.31    3.28
 -14 -13  -5   20.50    3.12
 -14  13  -5   11.26    3.85
 -14  13  -5   22.54    4.86
 -15  14   5  167.26   12.83
 -14  14   5   32.76    7.29
 -13  14   5  144.21   11.38
 -12  14   5    1.05    4.69
 -12 -14   5   11.73    2.63
 -11 -14   5   57.83    3.94
 -11  14   5   54.42    7.78
 -10  14   5  272.82   14.09
 -10 -14   5  272.01    7.17
  -9  14   5  836.73   23.78
   9  14  -5  820.42   15.48
  -9 -14   5  857.27   11.59
  -8  14   5  365.73   16.11
   8  14  -5  368.09   11.35
  -8  14   5  414.20    8.31
  -8 -14   5  369.24    7.06
  -7  14   5   46.69    6.94
   7  14  -5   51.70    5.00
  -7  14   5   42.57    3.07
  -7 -14   5   49.94    2.51
   6  14  -5   42.96    4.51
  -6  14   5   39.35    6.62
  -6  14   5   43.50    3.13
  -5  14   5   93.56    8.97
  -5  14   5  103.12    4.81
   5  14  -5  110.89    6.51
  -4  14   5   34.55    6.32
  -4  14   5   42.11    3.32
   4  14  -5   28.75    3.53
  -3  14   5 1738.34   19.60
   3  14  -5 1642.54   21.18
   2 -14  -5 2361.97   12.75
   2  14  -5 2382.78   24.59
   1 -14  -5  150.41    3.40
  -1  14   5  145.60    6.11
   1  14  -5  145.23    6.01
   0 -14  -5   35.18    1.80
   0  14   5   28.90    3.18
   0  14  -5   35.17    3.38
  -1  14  -5  448.74    6.09
  -1 -14  -5  486.09    6.05
  -1  14  -5  494.63   10.67
   1  14   5  500.61   11.25
  -2 -14  -5   27.04    1.81
   2 -14   5   23.66    0.90
  -2  14  -5   24.98    2.92
   2  14   5   32.17    3.41
  -2  14  -5   30.85    2.21
  -3 -14  -5  710.26    7.72
   3 -14   5  722.12    5.41
  -3  14  -5  702.69   12.76
  -3  14  -5  708.99   10.00
  -4 -14  -5  823.47    8.65
  -4  14  -5  823.48   13.88
  -4  14  -5  822.49   11.33
   4  14   5  868.15   15.23
   5  14   5  104.90    5.56
  -5 -14  -5   88.72    3.20
  -5  14  -5   86.25    5.04
  -5  14  -5   94.77    4.39
   6  14   5  113.33    6.04
  -6 -14  -5  105.21    3.65
  -6  14  -5   96.93    5.12
  -6  14  -5  106.29    4.78
   7  14   5  689.14   14.10
  -7 -14  -5  639.70    8.99
  -7  14  -5  610.46   12.41
  -7  14  -5  661.09   12.08
  -8 -14  -5  371.83    7.36
  -8  14  -5  342.36    9.75
   8  14   5  365.57   10.41
  -8  14  -5  378.94    9.82
  -9 -14  -5   71.06    3.83
  -9  14  -5   64.40    4.78
  -9  14  -5   69.75    4.98
   9  14   5   78.95    5.15
  10  14   5  142.92    7.04
 -10 -14  -5  139.04    5.33
 -10  14  -5  138.22    7.01
 -10  14  -5  136.40    6.87
 -11 -14  -5   18.50    2.89
  11  14   5   21.87    3.49
 -11  14  -5   16.86    3.65
 -11  14  -5   16.03    3.20
  12  14   5   -0.68    2.76
 -12 -14  -5    1.86    2.33
 -12  14  -5    0.00    2.82
 -12  14  -5    1.88    3.28
  13  14   5   95.34    6.35
 -13  14  -5   82.00    6.29
 -13  14  -5   84.73    6.82
 -14  14  -5  156.31    8.80
 -14  14  -5  171.65    9.68
 -15  15   5    0.88    5.21
 -14  15   5   23.63    6.95
 -13  15   5   34.22    6.91
 -12  15   5  237.65   14.13
 -11 -15   5  198.77    6.55
 -11  15   5  220.00   13.59
 -10  15   5   87.94    8.97
 -10 -15   5   94.59    4.35
  -9  15   5   12.29    5.55
   9  15  -5    9.75    2.78
  -9  15   5    8.18    1.76
  -9 -15   5    8.20    1.77
  -8  15   5   -3.78    4.66
   8  15  -5    1.32    2.90
  -8  15   5   -1.29    1.60
  -8 -15   5    0.29    1.29
  -7  15   5  237.49   13.28
   7  15  -5  256.80   10.17
  -7  15   5  264.82    7.33
  -7 -15   5  239.17    4.91
   6  15  -5   87.17    6.41
  -6  15   5   90.79    8.95
  -6  15   5   94.03    4.71
  -5  15   5   40.78    6.81
  -5  15   5   43.36    3.47
   5  15  -5   33.86    4.07
  -4  15   5   92.40    9.17
  -4  15   5  105.93    5.18
   4  15  -5  104.31    6.21
  -3  15   5  189.13   12.18
  -3  15   5  204.09    7.13
   3  15  -5  227.24    8.55
   2 -15  -5  407.48    5.48
  -2  15   5  432.16   10.41
   2  15  -5  409.78   10.86
   1 -15  -5   14.46    1.65
  -1  15   5   15.44    2.69
   1  15  -5    7.73    2.51
   0 -15  -5  146.37    3.42
   0  15   5  153.34    6.56
   0  15  -5  124.51    6.09
  -1 -15  -5  181.99    3.81
   1  15   5  202.28    7.55
  -1  15  -5  183.14    7.25
  -2 -15  -5   26.61    1.78
   2 -15   5   24.38    0.94
  -2  15  -5   27.97    3.42
   2  15   5   22.12    3.04
  -2  15  -5   26.44    2.30
  -3 -15  -5   52.50    2.39
   3 -15   5   41.56    1.46
  -3  15  -5   43.32    3.94
   3  15   5   51.24    4.35
  -3  15  -5   68.97    3.45
  -4 -15  -5  122.57    3.60
  -4  15  -5  108.17    5.69
  -4  15  -5  138.29    5.10
   4  15   5  125.61    6.31
  -5 -15  -5    4.04    1.39
   5  15   5    1.75    2.19
  -5  15  -5    1.14    2.11
  -5  15  -5    4.18    1.98
  -6 -15  -5    5.19    1.48
  -6  15  -5    2.18    2.22
   6  15   5    5.33    2.62
  -6  15  -5    3.31    1.94
   7  15   5   18.72    3.19
  -7 -15  -5   16.32    2.04
  -7  15  -5   12.61    2.95
  -7  15  -5   15.49    2.76
  -8 -15  -5   31.14    2.60
   8  15   5   43.03    4.14
  -8  15  -5   30.66    3.82
  -8  15  -5   30.84    3.56
  -9 -15  -5   12.70    2.26
  -9  15  -5   12.48    3.12
   9  15   5   11.47    2.84
  -9  15  -5   11.77    2.99
  10  15   5   61.12    5.05
 -10 -15  -5   58.60    3.77
 -10  15  -5   55.25    4.96
 -10  15  -5   58.10    5.04
  11  15   5  112.18    6.45
 -11 -15  -5   97.42    4.92
 -11  15  -5   98.26    6.42
 -11  15  -5   95.43    6.45
 -12 -15  -5    3.78    2.46
 -12  15  -5    4.63    3.11
 -12  15  -5    5.15    3.47
  12  15   5    2.30    2.58
  13  15   5    6.92    3.14
 -13  15  -5    6.31    3.70
 -13  15  -5    6.46    3.65
 -14  16   5    0.27    5.10
 -13  16   5  401.31   18.65
 -12  16   5   77.55    9.25
 -11  16   5  252.42   14.56
 -10  16   5   26.35    6.22
  -9  16   5  317.59   16.00
  -9  16   5  330.45    7.80
   9  16  -5  295.86   10.25
  -9 -16   5  302.19    6.69
  -8  16   5   26.45    6.14
  -8  16   5   16.07    2.46
   8  16  -5   24.74    4.00
  -8 -16   5   19.06    1.95
  -7  16   5  264.49   14.30
   7  16  -5  285.25   11.11
  -7  16   5  293.73    8.05
  -7 -16   5  258.51    5.05
  -6  16   5    8.64    5.04
   6  16  -5    7.64    3.27
  -6  16   5   15.87    2.49
  -6 -16   5    8.30    0.93
  -5  16   5  498.79   19.82
  -5  16   5  539.69   11.44
   5  16  -5  494.52   13.94
  -4  16   5   38.83    3.55
  -4  16   5   32.14    6.55
   4  16  -5   30.56    4.10
  -3  16   5  348.78    9.65
   3  16  -5  321.11   10.61
   2 -16  -5   12.23    1.38
  -2  16   5   20.34    2.91
   2  16  -5   14.28    3.15
   1 -16  -5  527.13    6.42
  -1  16   5  554.50   12.25
   1  16  -5  513.96   12.47
   0  16   5  126.18    6.28
   0 -16  -5  121.32    3.22
   0  16  -5  118.23    6.26
  -1  16  -5  130.23    3.66
  -1 -16  -5  195.48    4.05
   1 -16   5  127.19    1.11
   1  16   5  197.63    7.70
  -1  16  -5  173.20    7.30
   2 -16   5   20.09    0.87
  -2 -16  -5   20.24    1.65
   2  16   5   28.63    3.44
  -2  16  -5   22.38    3.36
  -2  16  -5   20.91    2.26
  -3 -16  -5  243.03    4.71
  -3  16  -5  237.52    8.24
   3  16   5  258.72    8.82
  -3  16  -5  251.59    6.72
  -4 -16  -5   42.12    2.30
  -4  16  -5   41.81    3.95
   4  16   5   39.78    3.96
  -4  16  -5   43.28    3.22
  -5 -16  -5   22.48    2.04
  -5  16  -5   20.62    3.30
  -5  16  -5   25.59    2.86
   5  16   5   18.95    3.21
   6  16   5  352.29   10.50
  -6 -16  -5  355.07    6.56
  -6  16  -5  315.35    9.71
  -6  16  -5  349.14    9.06
  -7 -16  -5   14.40    2.14
  -7  16  -5   13.50    3.18
  -7  16  -5   13.33    2.91
   7  16   5   15.25    3.26
   8  16   5  156.60    7.33
  -8 -16  -5  146.84    4.84
  -8  16  -5  138.92    7.04
  -8  16  -5  145.34    6.82
  -9 -16  -5    1.63    1.75
   9  16   5    1.17    2.31
  -9  16  -5    4.72    2.96
  -9  16  -5    5.90    2.79
 -10 -16  -5  354.59    8.19
 -10  16  -5  331.70   10.99
 -10  16  -5  357.13   11.37
  10  16   5  384.57   11.49
  11  16   5   -0.02    2.62
 -11 -16  -5   -0.41    2.45
 -11  16  -5   -3.34    2.94
 -11  16  -5    7.13    3.25
 -12 -16  -5   26.20    3.48
  12  16   5   22.26    3.70
 -12  16  -5   24.73    4.33
 -12  16  -5   33.81    4.78
  13  16   5    2.79    2.76
 -13  16  -5    4.40    3.79
 -13  16  -5   -2.55    3.80
 -14  17   5    8.90    6.29
 -13  17   5   43.57    7.90
 -12  17   5  101.15   10.38
 -11  17   5   69.06    8.70
 -10  17   5  149.85   11.94
  -9  17   5   17.20    5.93
  -9  17   5   20.49    2.70
   9  17  -5   11.98    3.28
  -8  17   5    2.39    4.56
   8  17  -5    5.71    3.01
  -8  17   5    5.41    2.08
  -7  17   5    1.12    4.60
   7  17  -5    2.47    3.11
  -7  17   5    4.02    2.01
   6  17  -5    6.36    3.44
  -6  17   5    7.99    2.32
  -5  17   5  117.68   10.58
  -5  17   5  125.00    5.96
   5  17  -5   98.21    7.09
  -4  17   5  115.09   10.14
  -4  17   5  144.43    6.53
   4  17  -5  125.10    7.49
  -3  17   5   67.64    4.75
   3  17  -5   77.59    5.72
  -2  17   5  106.45    5.83
   2  17  -5  102.96    6.42
   1 -17  -5   80.64    2.83
  -1  17   5   91.26    5.54
   1  17  -5   59.51    5.05
   0 -17  -5    4.37    1.26
   0  17   5    1.79    2.24
   0  17  -5    3.84    2.54
  -1 -17  -5  139.52    3.53
   1  17   5  147.48    7.01
  -1  17  -5  133.30    6.98
  -2  17  -5  129.81    4.94
  -2 -17  -5  131.56    3.53
   2  17   5  141.30    6.95
  -2  17  -5  121.00    6.44
  -3 -17  -5   45.33    2.36
   3  17   5   44.27    4.04
  -3  17  -5   40.56    4.34
  -3  17  -5   53.03    3.62
   4  17   5    2.15    2.24
  -4 -17  -5    5.34    1.41
  -4  17  -5    9.74    2.86
  -4  17  -5    7.22    2.20
  -5 -17  -5   32.12    2.21
  -5  17  -5   31.71    4.01
  -5  17  -5   38.85    3.44
   5  17   5   42.16    4.24
  -6 -17  -5    6.41    1.68
   6  17   5    3.31    2.26
  -6  17  -5    5.77    2.62
  -6  17  -5    7.78    2.45
  -7 -17  -5   38.00    2.66
  -7  17  -5   38.25    4.24
  -7  17  -5   35.51    3.59
   8  17   5    5.87    2.74
  -8 -17  -5    6.35    1.87
  -8  17  -5    3.34    2.87
  -8  17  -5    6.72    2.88
   9  17   5   13.36    3.21
  -9 -17  -5   12.15    2.20
  -9  17  -5   14.04    3.49
  -9  17  -5   14.93    3.43
 -10 -17  -5   46.65    3.56
 -10  17  -5   43.36    4.98
  10  17   5   53.88    4.93
 -10  17  -5   49.26    5.04
  11  17   5    5.00    3.01
 -11 -17  -5    2.47    2.22
 -11  17  -5    0.49    3.14
 -11  17  -5    5.82    3.57
  12  17   5   17.82    3.46
 -12 -17  -5   21.44    3.32
 -12  17  -5   21.93    4.54
 -12  17  -5   23.28    4.40
  13  17   5   15.09    3.66
 -13  17  -5   13.48    4.24
 -14  18   5  150.57   13.45
 -13  18   5  170.48   13.72
 -12  18   5    5.94    5.12
 -11  18   5  241.50   15.18
 -10  18   5  217.94   14.21
  -9  18   5   16.09    5.80
  -9  18   5   17.21    2.67
   9  18  -5   18.19    3.57
  -8  18   5  534.71   21.03
  -8  18   5  572.25   11.71
   8  18  -5  570.44   15.91
  -7  18   5 1333.64   33.47
   7  18  -5 1350.99   24.58
   6  18  -5  206.01   10.09
  -6  18   5  211.26   13.69
  -6  18   5  234.98    8.07
   5  18  -5  131.35    8.27
  -5  18   5  140.20   11.73
  -5  18   5  153.30    6.67
  -4  18   5  242.91   14.61
  -4  18   5  258.34    8.75
   4  18  -5  218.23    9.96
   3  18  -5   23.52    3.84
  -3  18   5   20.34    3.16
   3 -18  -5   26.58    1.76
   2 -18  -5    9.72    1.49
  -2  18   5    7.38    2.38
   2  18  -5    6.79    2.94
   1 -18  -5  833.15    8.38
  -1  18   5  826.96   16.03
   1  18  -5  806.22   17.11
   0 -18  -5  511.13    6.57
   0  18   5  519.17   12.77
   0  18  -5  489.10   12.96
   1 -18   5   10.54    0.35
  -1 -18  -5   22.41    1.75
   1  18   5   23.32    3.54
  -1  18  -5   27.96    4.07
  -2 -18  -5  525.71    6.97
  -2  18  -5  508.47   13.09
  -3 -18  -5  220.36    4.68
   3  18   5  218.41    8.60
  -3  18  -5  219.93    8.57
  -3  18  -5  244.75    7.22
  -4 -18  -5   18.39    1.83
   4  18   5   23.45    3.53
  -4  18  -5   10.56    2.88
  -4  18  -5   18.50    2.82
  -5 -18  -5  302.32    5.83
  -5  18  -5  294.41   10.27
   5  18   5  331.21   10.53
  -5  18  -5  309.73    8.88
  -6 -18  -5  459.06    7.65
  -6  18  -5  445.66   12.60
  -6  18  -5  464.44   11.13
   6  18   5  489.77   12.91
   7  18   5   72.01    5.40
  -7 -18  -5   70.54    3.41
  -7  18  -5   66.87    5.55
  -7  18  -5   73.62    5.18
   8  18   5   38.45    4.46
  -8 -18  -5   42.09    3.07
  -8  18  -5   34.92    4.61
  -8  18  -5   40.48    4.43
   9  18   5   29.22    4.17
  -9 -18  -5   22.92    2.69
  -9  18  -5   15.05    3.85
  -9  18  -5   18.04    3.78
 -10 -18  -5   96.17    4.75
  10  18   5  103.89    6.52
 -10  18  -5   96.06    6.76
 -10  18  -5   87.78    6.46
 -11 -18  -5   96.85    5.03
 -11  18  -5   94.06    7.15
 -11  18  -5   97.80    7.01
  11  18   5  110.78    6.82
  12  18   5  268.39   10.33
 -12  18  -5  223.07   10.58
 -13  19   5  161.75   13.43
 -12  19   5   96.71   10.89
 -11  19   5   12.40    5.72
 -10  19   5    6.04    5.24
  -9  19   5   36.68    7.45
  -9  19   5   37.59    3.59
   9  19  -5   34.75    4.70
  -8  19   5   20.71    3.06
  -8  19   5   23.13    6.56
   8  19  -5    6.97    3.36
  -7  19   5   67.30    9.13
  -7  19   5   82.23    5.08
   6  19  -5  216.65   10.72
  -6  19   5  243.24    8.41
  -6  19   5  233.46   14.85
   5  19  -5  418.97   14.45
  -5  19   5  415.62   11.16
  -5  19   5  386.82   18.83
  -4  19   5   56.42    4.70
  -4  19   5   50.03    7.89
   4  19  -5   52.08    5.51
   3  19  -5   12.97    3.72
   3 -19  -5   13.97    1.75
  -3  19   5    9.12    2.69
  -2  19   5    9.11    2.74
   2 -19  -5    5.77    1.42
   2  19  -5   -0.18    2.83
   1 -19  -5   62.03    2.58
  -1  19   5   72.64    5.25
   1  19  -5   54.48    5.35
   0 -19  -5  287.57    5.08
   0  19   5  329.67   10.65
   0  19  -5  292.90   10.69
  -1 -19  -5  198.45    4.38
   1  19   5  208.75    8.66
  -1  19  -5  189.44    8.59
  -2 -19  -5   13.04    1.60
   2  19   5   18.11    3.58
  -2  19  -5   11.64    3.19
  -3 -19  -5  225.38    4.84
   3  19   5  250.75    9.48
  -3  19  -5  213.41    8.93
  -4 -19  -5   31.92    2.18
   4  19   5   35.80    4.06
  -4  19  -5   24.35    3.86
   5  19   5    6.18    2.74
  -5 -19  -5    3.65    1.41
  -5  19  -5    3.37    2.81
  -5  19  -5    5.08    2.58
   6  19   5   10.15    3.18
  -6 -19  -5   11.84    1.92
  -6  19  -5   11.37    3.29
  -6  19  -5    6.25    2.49
   7  19   5  168.59    8.08
  -7 -19  -5  162.29    4.95
  -7  19  -5  150.19    7.98
  -7  19  -5  180.78    7.77
  -8 -19  -5   19.60    2.53
  -8  19  -5   14.02    3.59
   8  19   5   14.83    3.75
  -8  19  -5   16.49    3.46
   9  19   5    4.98    3.10
  -9 -19  -5    0.28    1.87
  -9  19  -5    3.93    3.36
 -10 -19  -5   49.33    3.66
  10  19   5   63.20    5.41
 -10  19  -5   54.71    5.76
 -11 -19  -5   64.36    4.31
 -11  19  -5   62.10    6.22
  11  19   5   67.53    5.73
 -12  19  -5    4.45    3.83
  12  19   5    4.73    3.17
 -13  20   5    1.20    6.25
 -12  20   5   16.80    6.69
 -11  20   5  118.50   11.95
 -10  20   5    7.80    5.15
  -9  20   5  200.01   14.26
   9  20  -5  214.26   10.01
  -8  20   5   83.03    9.87
  -8  20   5   94.38    5.48
   8  20  -5   85.77    7.05
  -7  20   5   43.67    4.11
  -7  20   5   50.15    8.70
   7  20  -5   43.62    5.71
  -6  20   5   12.41    6.15
   6  20  -5    4.24    3.56
  -6  20   5   18.20    3.22
   5  20  -5  424.82   14.94
  -5  20   5  412.64   11.51
  -5  20   5  364.14   18.39
  -4  20   5   60.57    4.82
  -4  20   5   53.44    8.53
   4  20  -5   58.89    6.28
  -3  20   5  220.86    8.62
   3 -20  -5  203.18    4.33
   3  20  -5  202.57   10.24
  -2  20   5  213.75    8.81
   2 -20  -5  200.28    4.39
   2  20  -5  195.02    9.66
  -1  20   5   81.41    5.75
   1 -20  -5   88.59    3.01
   1  20  -5   82.94    6.51
   0 -20  -5   84.79    2.99
   0  20   5   97.84    6.13
   0  20  -5   82.76    6.63
  -1 -20  -5  179.19    4.23
   1  20   5  190.04    8.38
  -1  20  -5  185.58    8.84
  -2 -20  -5  128.44    3.76
   2  20   5  154.58    7.78
  -2  20  -5  130.07    7.59
  -3 -20  -5  445.32    6.77
   3  20   5  436.56   12.49
  -3  20  -5  435.33   13.10
   4  20   5   12.53    3.23
  -4 -20  -5   18.59    1.86
  -4  20  -5   13.21    3.53
   5  20   5   11.97    3.27
  -5 -20  -5   13.88    1.93
  -5  20  -5   15.62    3.71
  -6 -20  -5  183.55    5.10
  -6  20  -5  172.54    8.75
   6  20   5  213.99    9.09
  -7 -20  -5   56.25    3.19
  -7  20  -5   49.37    5.27
   7  20   5   60.18    5.38
   8  20   5   93.43    6.49
  -8 -20  -5   89.23    4.22
  -8  20  -5   85.01    6.85
   9  20   5   66.61    5.72
  -9 -20  -5   57.39    3.73
  -9  20  -5   51.84    5.83
 -10 -20  -5  167.61    6.15
  10  20   5  156.45    8.17
 -10  20  -5  144.40    9.05
 -11 -20  -5   34.58    3.56
 -11  20  -5   31.79    5.23
  11  20   5   33.08    4.40
 -12  20  -5   78.01    7.53
 -13  21   5  141.58   13.64
 -12  21   5  120.97   12.56
 -11  21   5   73.68   10.33
 -10  21   5   -0.97    5.98
  -9  21   5    2.01    5.74
   9  21  -5    2.26    3.20
  -8  21   5  122.08    6.55
  -8  21   5  138.45   12.55
   8  21  -5  117.61    8.24
  -7  21   5  484.81   12.55
  -7  21   5  449.55   21.62
   7  21  -5  416.83   14.99
  -6  21   5  272.37    9.78
   6  21  -5  282.76   12.94
  -6  21   5  267.42   16.49
   5  21  -5  152.73    9.68
  -5  21   5  145.56    7.43
  -5  21   5  123.72   11.78
   4  21  -5    5.92    3.79
  -4  21   5   -1.03    5.54
  -4  21   5    4.42    2.51
   3  21  -5    4.35    3.53
   3 -21  -5    7.24    1.44
  -3  21   5    8.77    3.02
  -2  21   5  163.57    7.86
   2 -21  -5  148.49    3.84
   2  21  -5  162.86    9.21
  -1  21   5   78.61    5.96
   1 -21  -5   77.78    2.89
   1  21  -5   77.96    6.73
   0  21   5   25.46    3.91
   0 -21  -5   25.15    1.85
   0  21  -5   27.49    4.78
  -1 -21  -5  391.82    6.17
   1  21   5  412.01   12.33
  -1  21  -5  378.49   12.91
  -2 -21  -5    2.21    1.33
   2  21   5    2.11    2.55
  -2  21  -5    1.98    2.92
  -3 -21  -5   29.81    2.14
   3  21   5   28.84    4.27
  -3  21  -5   30.54    4.36
  -4 -21  -5   20.96    2.08
  -4  21  -5   19.69    3.96
   4  21   5   15.57    3.46
  -5 -21  -5   57.21    2.95
   5  21   5   65.54    5.54
  -5  21  -5   50.42    5.59
   6  21   5    7.36    2.90
  -6 -21  -5    8.80    1.88
  -6  21  -5    7.99    3.40
  -7 -21  -5   20.14    2.51
  -7  21  -5   18.87    4.18
   7  21   5   22.98    3.99
   8  21   5  133.28    7.55
  -8 -21  -5  132.68    5.01
  -8  21  -5  135.59    8.30
  -9 -21  -5    3.05    2.11
  -9  21  -5    5.54    3.80
   9  21   5    4.86    3.09
  10  21   5    3.61    3.03
 -10 -21  -5   -0.09    2.21
 -10  21  -5    5.70    3.92
  11  21   5   45.07    5.13
 -11  21  -5   40.16    5.87
 -12  22   5   -2.10    6.38
 -11  22   5   40.62    8.12
 -10  22   5   95.93   11.61
  -9  22   5  479.46   21.96
   9  22  -5  461.57   15.14
  -8  22   5  282.40    9.89
  -8  22   5  270.49   17.39
   8  22  -5  258.67   12.26
  -7  22   5  103.25    6.32
  -7  22   5   96.75   10.95
   7  22  -5   76.03    7.56
  -6  22   5   85.76    5.98
  -6  22   5   81.11   10.44
  -5  22   5  118.29    6.88
   5  22  -5  124.46    8.88
  -5  22   5  128.37   12.41
   4  22  -5    3.55    3.66
  -4  22   5   14.44    6.67
  -4  22   5   10.31    3.03
  -3  22   5  745.46   16.56
   3 -22  -5  695.65    8.15
   3  22  -5  691.04   19.60
  -2  22   5  258.93   10.10
   2 -22  -5  237.16    4.84
   2  22  -5  216.83   11.13
   1  22  -5    4.94    3.52
   1 -22  -5    2.05    1.23
  -1  22   5    4.74    2.77
   0 -22  -5    7.67    1.41
   0  22   5   12.73    3.29
   0  22  -5    8.57    3.64
  -1 -22  -5   84.71    3.13
   1  22   5   93.64    6.60
  -1  22  -5   96.08    7.27
  -2 -22  -5   15.48    1.81
   2  22   5   12.28    3.28
  -2  22  -5   14.79    3.81
  -3 -22  -5   51.13    2.70
   3  22   5   48.51    5.20
  -3  22  -5   55.35    5.88
  -4 -22  -5  563.85    8.25
   4  22   5  492.27   14.08
  -4  22  -5  542.97   15.77
   5  22   5   20.77    3.87
  -5 -22  -5   21.17    2.27
  -5  22  -5    9.56    3.86
   6  22   5   14.49    3.49
  -6 -22  -5   10.83    1.95
  -6  22  -5   10.99    3.91
  -7 -22  -5  255.80    6.32
  -7  22  -5  256.89   11.44
   7  22   5  263.17   10.73
   8  22   5  269.08   10.77
  -8 -22  -5  235.64    6.46
  -8  22  -5  240.63   11.33
  -9 -22  -5    8.72    2.24
   9  22   5   12.00    4.04
  -9  22  -5   15.44    4.80
  10  22   5  117.63    7.65
 -10 -22  -5  107.89    5.17
 -10  22  -5  103.65    8.33
  11  22   5   29.46    4.41
 -11  22  -5   32.87    6.13
 -12  23   5   37.69    8.48
 -11  23   5   58.26    9.99
 -10  23   5   68.73   10.04
  -9  23   5    4.42    6.22
  -8  23   5  125.14    6.95
  -8  23   5  109.53   11.96
   8  23  -5  113.98    8.75
  -7  23   5   10.00    5.63
  -7  23   5   13.29    3.31
   7  23  -5    5.45    3.88
  -6  23   5   18.87    7.30
  -6  23   5   15.62    3.61
   6  23  -5   27.44    5.34
  -5  23   5   57.95    5.35
   5  23  -5   53.87    6.81
  -5  23   5   50.64    9.06
   4  23  -5  427.48   16.11
  -4  23   5  418.40   12.88
  -3  23   5  108.19    6.88
   3 -23  -5  116.96    3.61
   3  23  -5  121.14    9.21
  -2  23   5  110.85    7.13
   2 -23  -5   92.81    3.20
   2  23  -5   96.98    7.88
   1  23  -5   19.41    4.65
  -1  23   5   24.29    4.06
   1 -23  -5   18.25    1.86
   0  23  -5    1.31    3.23
   0 -23  -5    3.54    1.38
   0  23   5    6.43    3.08
  -1 -23  -5   21.69    1.89
   1  23   5   22.05    3.90
  -1  23  -5   20.71    4.49
  -2 -23  -5  113.74    3.73
   2  23   5  116.63    7.37
  -2  23  -5  109.42    7.88
   3  23   5  462.26   14.36
  -3  23  -5  422.89   14.83
  -4 -23  -5   17.21    2.05
   4  23   5   13.38    3.80
  -4  23  -5   17.36    4.19
   5  23   5   25.41    4.23
  -5 -23  -5   25.92    2.35
  -5  23  -5   27.48    5.04
   6  23   5    1.07    2.85
  -6 -23  -5    2.78    1.69
  -6  23  -5    5.16    3.77
   7  23   5   10.28    3.75
  -7 -23  -5    5.87    2.05
  -8 -23  -5   60.56    3.72
  -8  23  -5   60.56    6.60
   8  23   5   72.58    6.26
   9  23   5   91.35    7.07
  -9 -23  -5   87.83    4.48
  -9  23  -5   86.04    7.63
  10  23   5   23.87    4.58
 -10 -23  -5   21.22    2.91
 -10  23  -5   22.20    5.14
 -12  24   5    2.26    7.58
 -11  24   5  289.66   18.76
 -10  24   5    4.63    6.61
  -9  24   5   30.08    8.87
  -8  24   5   -1.88    7.28
  -8  24   5    8.49    3.06
   8  24  -5    5.33    4.13
  -7  24   5  266.67   10.48
   7  24  -5  254.26   12.76
  -6  24   5   67.37    5.66
  -6  24   5   68.10    9.82
   6  24  -5   57.99    7.43
  -5  24   5   56.80    5.37
   5  24  -5   58.66    7.15
  -5  24   5   53.26    9.50
   4  24  -5    6.54    4.22
   4 -24  -5   12.62    1.72
  -4  24   5   11.72    3.30
   3  24  -5   78.29    8.03
  -3  24   5   72.49    6.01
   3 -24  -5   77.79    3.12
  -2  24   5   56.82    5.53
   2 -24  -5   38.17    2.31
   2  24  -5   38.66    6.02
  -1  24   5  199.51    9.36
   1 -24  -5  220.12    4.95
   1  24  -5  215.96   11.58
   0  24   5  238.26   10.42
   0  24  -5  212.30   11.48
   1  24   5   43.48    5.19
  -1 -24  -5   39.82    2.40
  -1  24  -5   41.96    5.64
  -2 -24  -5   35.90    2.45
   2  24   5   46.57    5.34
  -2  24  -5   34.18    5.22
  -3 -24  -5  105.86    3.76
   3  24   5   96.20    6.98
  -3  24  -5   97.59    7.83
  -4 -24  -5  265.19    5.87
   4  24   5  266.82   11.12
  -4  24  -5  249.83   12.06
  -5 -24  -5  120.77    4.25
   5  24   5  130.16    7.98
  -5  24  -5  118.68    8.81
  -6 -24  -5  114.44    4.40
   6  24   5  122.65    7.73
  -6  24  -5  125.30    8.93
   7  24   5    1.22    3.05
  -7 -24  -5    0.56    1.78
  -7  24  -5   -1.18    3.87
  -8 -24  -5   69.49    3.99
  -8  24  -5   66.97    7.33
   8  24   5   71.23    6.50
  -9 -24  -5    7.69    2.36
   9  24   5    3.26    3.28
  -9  24  -5    8.20    4.66
 -10  24  -5    5.41    4.58
  10  24   5    5.76    3.45
 -11  25   5   75.45   11.11
 -10  25   5   37.06    9.32
  -9  25   5   66.86   10.46
  -8  25   5   66.22   10.87
   8  25  -5   63.09    6.93
  -8  25   5   48.74    5.10
  -7  25   5  183.28   15.53
   7  25  -5  200.56   11.70
  -7  25   5  173.01    8.73
  -6  25   5   16.57    7.37
   6  25  -5   10.27    4.69
  -6  25   5    8.45    3.37
  -5  25   5    2.16    6.16
  -5  25   5    9.18    3.34
   5  25  -5   14.99    5.17
  -4  25   5  178.14    9.15
   4  25  -5  178.75   11.55
   4 -25  -5  199.83    4.83
   3  25  -5   54.51    7.22
  -3  25   5   49.53    5.45
   3 -25  -5   49.65    2.70
  -2  25   5  115.50    7.59
   2 -25  -5  107.57    3.64
   2  25  -5  103.08    8.75
  -1  25   5  164.04    8.85
   1 -25  -5  163.56    4.39
   1  25  -5  167.76   10.77
   0  25  -5    2.38    4.07
   0 -25  -5    4.89    1.57
   0  25   5    4.63    2.98
   1  25   5   75.56    6.52
  -1 -25  -5   67.12    2.99
  -1  25  -5   67.25    7.32
  -2 -25  -5  220.15    5.25
   2  25   5  243.89   10.66
  -2  25  -5  208.96   11.56
  -3 -25  -5  113.82    3.97
   3  25   5  123.05    8.00
  -3  25  -5  109.17    8.61
  -4 -25  -5   26.51    2.38
   4  25   5   21.35    4.31
  -4  25  -5   31.72    5.50
  -5 -25  -5   58.07    3.25
   5  25   5   57.57    5.99
  -5  25  -5   56.20    6.51
   6  25   5   18.29    4.07
  -6 -25  -5   19.92    2.44
  -6  25  -5   27.41    5.59
  -7 -25  -5   56.03    3.56
   7  25   5   60.56    5.94
  -7  25  -5   64.12    7.32
  -8 -25  -5   59.71    3.87
  -8  25  -5   62.81    7.39
   8  25   5   63.37    6.04
   9  25   5  114.61    7.81
  -9 -25  -5  106.15    5.03
  -9  25  -5  109.14    9.50
 -11  26   5   64.62   11.24
 -10  26   5   25.34    8.74
  -9  26   5   14.95    7.86
  -8  26   5   61.19   10.36
   8  26  -5   69.36    7.54
  -8  26   5   55.21    5.44
  -7  26   5  125.22   13.41
   7  26  -5  144.96   10.60
  -7  26   5  125.87    7.88
  -6  26   5   24.17    8.60
   6  26  -5   14.66    5.18
  -6  26   5   15.06    3.84
  -5  26   5   69.80    6.19
   5  26  -5   64.53    7.86
  -5  26   5   68.79   10.31
   4  26  -5   19.43    5.29
  -4  26   5   26.54    4.16
   4 -26  -5   22.11    2.11
   3  26  -5   11.94    4.72
   3 -26  -5   12.29    1.81
  -3  26   5   13.02    3.89
   2  26  -5   39.37    6.39
  -2  26   5   32.72    4.80
   2 -26  -5   44.22    2.61
  -1  26   5  374.80   13.42
   1 -26  -5  413.97    6.82
   1  26  -5  384.18   16.47
   0  26   5  266.39   11.42
   0 -26  -5  261.82    5.51
   0  26  -5  253.32   13.10
   1  26   5  183.93    9.71
  -1 -26  -5  163.92    4.59
  -1  26  -5  158.51   10.89
  -2  26  -5   21.43    5.33
  -2 -26  -5   16.47    2.05
   2  26   5   17.55    4.34
  -3 -26  -5    1.91    1.53
   3  26   5    5.80    3.25
  -3  26  -5    9.20    4.61
  -4 -26  -5   18.71    2.32
   4  26   5   17.41    4.12
  -4  26  -5    9.58    4.72
  -5 -26  -5  180.33    5.28
   5  26   5  181.23    9.68
  -5  26  -5  180.82   11.25
  -6 -26  -5  119.79    4.54
   6  26   5  128.45    8.28
  -6  26  -5  122.03    9.47
  -7 -26  -5   24.16    2.67
   7  26   5   26.98    4.72
  -7  26  -5   22.59    5.67
  -8 -26  -5  111.90    4.88
  -8  26  -5  122.18    9.67
   8  26   5  135.47    8.80
  -9  26  -5    2.06    4.37
 -10  27   5   46.32   10.44
  -9  27   5    6.32    8.34
  -8  27   5   76.61   11.70
   8  27  -5   77.11    7.99
  -8  27   5   59.50    5.78
  -7  27   5   11.05    7.06
  -7  27   5   15.23    3.88
   7  27  -5   11.72    4.94
  -6  27   5  298.41   19.46
   6  27  -5  274.98   14.56
  -6  27   5  263.53   11.08
  -5  27   5   45.78    5.59
   5  27  -5   45.32    7.40
   4 -27  -5   11.24    1.83
   4  27  -5    8.96    5.40
  -4  27   5    9.60    3.57
   3  27  -5   13.74    4.97
   3 -27  -5   14.44    1.97
  -3  27   5   14.26    4.13
   2  27  -5  242.69   13.56
  -2  27   5  199.18   10.12
   2 -27  -5  231.87    5.34
   1  27  -5   27.04    6.43
   1 -27  -5   27.78    2.28
  -1  27   5   19.89    4.15
   0  27   5  263.96   11.54
   0 -27  -5  265.81    5.67
   0  27  -5  250.36   13.52
  -1 -27  -5  116.05    3.97
   1  27   5  125.97    8.37
  -1  27  -5  124.69    9.95
   2  27   5   44.80    5.54
  -2 -27  -5   47.69    2.87
  -2  27  -5   41.01    6.58
  -3  27  -5   19.10    5.48
  -3 -27  -5   25.02    2.33
   3  27   5   25.42    4.55
  -4 -27  -5  189.29    5.30
   4  27   5  201.32   10.77
  -4  27  -5  184.12   11.45
  -5 -27  -5  197.60    5.60
   5  27   5  200.92   10.51
  -5  27  -5  190.79   11.99
  -6 -27  -5   21.89    2.49
  -6  27  -5   14.68    5.22
  -7 -27  -5   92.00    4.36
   7  27   5  100.71    7.91
  -7  27  -5   90.36    9.01
   8  27   5   16.57    4.51
  -8 -27  -5   10.13    2.44
  -8  27  -5   11.59    4.99
  -9  28   5  132.68   14.32
  -8  28   5    6.24    7.38
  -8  28   5   12.11    3.65
   8  28  -5    2.16    4.44
  -7  28   5   -1.16    7.69
  -7  28   5   -0.52    2.97
   7  28  -5    4.49    4.37
  -6  28   5   31.22    8.44
  -6  28   5   21.47    4.24
   6  28  -5   31.20    6.53
  -5  28   5   30.13    4.94
   5 -28  -5   28.44    2.41
   5  28  -5   37.11    6.98
   4 -28  -5   19.87    2.13
  -4  28   5   16.50    4.19
   4  28  -5   20.26    5.89
  -3  28   5   60.77    6.38
   3  28  -5   60.21    8.07
   3 -28  -5   62.66    3.05
   2 -28  -5   14.74    1.96
   2  28  -5   15.89    5.55
  -2  28   5   21.91    4.36
   1  28  -5    6.87    5.00
   1 -28  -5    5.84    1.68
  -1  28   5    9.11    3.39
   0  28  -5    5.94    4.99
   0 -28  -5   11.95    1.84
   0  28   5   16.10    4.18
  -1  28  -5    2.29    4.27
  -1 -28  -5    2.54    1.62
   1  28   5   -0.08    3.28
  -2  28  -5   18.45    5.71
  -2 -28  -5   16.13    2.15
   2  28   5   17.54    4.41
  -3  28  -5    1.43    4.46
  -3 -28  -5    1.76    1.66
   3  28   5    1.81    3.43
  -4  28  -5   25.41    5.93
  -4 -28  -5   18.80    2.29
   4  28   5   25.57    4.95
  -5  28  -5   17.62    5.50
  -5 -28  -5   13.21    2.20
   5  28   5   15.55    4.61
  -6  28  -5   18.97    5.78
   6  28   5   15.84    4.43
  -6 -28  -5   14.81    2.35
   7  28   5    7.14    3.56
  -7 -28  -5    8.14    2.29
  -7  28  -5   12.52    5.50
  -9  29   5   36.58   10.41
  -8  29   5   45.28   10.20
   8  29  -5   49.82    7.01
  -7  29   5   -1.90    3.37
  -7  29   5   -3.33    7.63
   7  29  -5    4.48    4.89
  -6  29   5  287.73   19.98
   6  29  -5  278.00   14.88
  -6  29   5  232.54   11.19
   5  29  -5   66.24    8.37
   5 -29  -5   66.97    3.26
  -5  29   5   60.03    6.48
   4 -29  -5   17.37    2.20
  -4  29   5   20.00    4.50
   4  29  -5   18.05    6.16
   3  29  -5   15.88    5.89
   3 -29  -5   12.11    1.92
  -3  29   5    7.92    3.90
   2  29  -5   60.50    8.21
  -2  29   5   60.42    6.42
   2 -29  -5   64.58    3.11
   1  29  -5   28.51    7.07
   1 -29  -5   21.78    2.30
  -1  29   5   18.48    4.58
   0  29  -5  253.53   14.60
   0  29   5  226.11   11.28
   0 -29  -5  250.96    5.83
   1  29   5  139.91    9.25
  -1 -29  -5  146.20    4.56
  -1  29  -5  133.19   11.09
  -2  29  -5   19.93    5.69
  -2 -29  -5   16.20    2.10
   2  29   5   23.37    4.93
  -3  29  -5   18.89    5.79
  -3 -29  -5   20.35    2.36
   3  29   5   22.81    4.72
  -4  29  -5   28.99    6.63
  -4 -29  -5   33.28    2.82
   4  29   5   31.57    5.64
  -5  29  -5    8.16    5.29
  -5 -29  -5    7.19    2.07
   5  29   5   12.72    4.29
   6  29   5    8.72    4.17
  -6  29  -5   10.34    5.65
  -6 -29  -5    9.36    2.34
  -8  30   5   79.07   12.44
   8  30  -5   56.26    7.82
  -7  30   5   10.68    3.86
  -7  30   5   11.06    8.09
   7  30  -5   24.82    5.99
  -6  30   5   15.49    4.45
   6  30  -5   27.48    6.49
  -5  30   5    0.87    3.24
   5 -30  -5    4.57    1.83
   5  30  -5    7.17    5.31
  -4  30   5   36.21    5.54
   4 -30  -5   43.75    2.82
   4  30  -5   47.20    7.63
  -3  30   5  121.05    8.74
   3  30  -5  154.63   12.25
   3 -30  -5  144.53    4.67
   2  30  -5  133.90   11.21
  -2  30   5  133.73    9.19
   2 -30  -5  141.07    4.56
   1  30  -5   79.49    9.63
  -1  30   5   61.99    6.58
   1 -30  -5   62.69    3.18
   0  30  -5   34.17    7.31
   0 -30  -5   30.27    2.53
   0  30   5   22.24    4.43
  -1  30  -5   52.11    7.88
   1  30   5   34.10    5.78
  -1 -30  -5   50.06    3.01
   2  30   5   90.62    7.89
  -2 -30  -5   94.26    3.98
  -2  30  -5   91.11    9.82
   3  30   5   85.99    7.74
  -3 -30  -5   91.18    3.95
  -3  30  -5   84.44    9.51
  -4 -30  -5  117.24    4.53
   4  30   5  130.28    9.21
  -4  30  -5   92.29   10.11
  -5 -30  -5  101.88    4.45
   5  30   5  117.01    8.89
  -5  30  -5   96.31   10.10
  -6 -30  -5   46.70    3.44
  -6  30  -5   46.90    8.11
   8  31  -5   96.73    9.49
  -7  31   5   37.03   10.22
   7  31  -5   51.53    7.84
  -7  31   5   45.16    6.10
  -6  31   5    0.63    3.40
   6 -31  -5    5.08    1.95
   6  31  -5    7.99    5.26
   5 -31  -5   41.55    2.85
  -5  31   5   27.27    5.06
   5  31  -5   42.11    7.50
   4  31  -5  233.56   15.12
   4 -31  -5  241.33    5.94
   3  31  -5   44.79    8.38
   3 -31  -5   31.96    2.60
  -3  31   5   27.31    5.23
  -2  31   5   62.76    7.15
   2  31  -5   55.19    8.68
   2 -31  -5   57.66    3.19
   1  31  -5   55.02    8.60
  -1  31   5   62.41    6.86
   1 -31  -5   54.19    3.13
   0  31  -5    6.73    5.49
   0 -31  -5    5.94    1.92
   0  31   5    4.43    3.91
  -1  31  -5   17.09    6.74
   1  31   5   26.56    5.32
  -1 -31  -5   20.01    2.36
  -2  31  -5  448.54   20.45
   2  31   5  428.26   16.21
  -2 -31  -5  444.06    8.06
   3  31   5  164.09   10.55
  -3 -31  -5  160.07    5.15
  -3  31  -5  156.22   12.64
  -4  31  -5   -2.12    5.07
  -4 -31  -5   -0.19    1.92
   4  31   5    3.04    4.02
  -5  31  -5   20.22    6.61
  -5 -31  -5   12.60    2.33
   8  32  -5   -4.22    5.15
   7  32  -5    0.52    5.06
  -7  32   5    3.43    3.76
   6 -32  -5   24.29    2.56
  -6  32   5   17.83    4.75
   6  32  -5   20.45    6.54
  -5  32   5    6.32    3.89
   5 -32  -5    5.01    1.92
   5  32  -5   -2.61    5.95
  -4  32   5   14.97    4.39
   4 -32  -5   10.60    2.07
   4  32  -5    6.27    5.32
   3 -32  -5    1.29    1.76
  -3  32   5    3.10    4.00
   3  32  -5    5.98    5.61
   2  32  -5    2.60    5.55
   2 -32  -5   -0.48    1.77
  -2  32   5    2.09    3.73
   1  32  -5   54.57    8.47
  -1  32   5   54.71    6.68
   1 -32  -5   59.83    3.32
   0  32  -5   16.52    6.41
   0 -32  -5   10.26    2.00
   0  32   5   16.24    4.77
  -1  32  -5    0.40    5.50
  -1 -32  -5    4.85    1.92
   1  32   5    3.72    3.83
  -2  32  -5   22.88    6.95
  -2 -32  -5   15.39    2.27
   2  32   5   27.88    5.97
  -3 -32  -5    2.07    2.03
   3  32   5    2.83    4.03
  -4 -32  -5    1.06    1.94
  -7  33   5    6.14    3.59
   7  33  -5   15.28    6.21
  -6  33   5   24.45    5.05
   6  33  -5   14.84    6.13
  -5  33   5    0.40    3.70
   5 -33  -5    2.85    1.94
   5  33  -5    1.39    5.50
  -4  33   5  152.39   10.23
   4  33  -5  169.57   13.66
   4 -33  -5  185.90    5.38
  -3  33   5   48.27    6.58
   3  33  -5   54.16    9.11
   3 -33  -5   47.55    3.06
  -2  33   5  107.14    8.98
   2  33  -5  115.76   11.89
   2 -33  -5  124.27    4.47
   1  33  -5   82.75   10.34
  -1  33   5   68.50    7.22
   1 -33  -5   75.55    3.69
   0  33  -5   -0.73    5.71
   0 -33  -5    4.32    1.89
   0  33   5   -2.10    4.09
  -1  33  -5  115.03   11.69
   1  33   5   83.53    7.98
  -1 -33  -5   95.11    4.22
  -2  33  -5   45.18    8.53
   2  33   5   50.01    6.77
  -2 -33  -5   49.76    3.26
  -7  34   5   16.89    4.78
   7  34  -5   28.10    7.17
  -6  34   5    2.69    3.91
   6  34  -5    4.20    5.73
  -5  34   5   13.99    4.83
   5  34  -5   23.90    6.94
   4  34  -5   53.83    8.90
  -4  34   5   25.90    5.65
  -3  34   5   -1.32    3.99
   3  34  -5    4.48    6.06
   2  34  -5   12.33    6.22
   2 -34  -5    9.15    2.12
  -2  34   5    8.24    4.33
  -1  34   5   50.78    6.86
   1  34  -5   65.65   10.05
   1 -34  -5   62.10    3.53
   0  34  -5    1.72    6.07
   0 -34  -5    6.92    2.17
   0  34   5    1.41    4.08
  -6  35   5  156.23   10.76
  -5  35   5   29.02    5.64
  -4  35   5  137.96   10.05
  -3  35   5   11.73    5.15
  -2  35   5   75.82    8.40
 -17   0   6    6.78    4.84
 -16   0   6   53.50    7.17
 -15   0   6  107.22    8.64
 -14   0   6   34.75    5.30
 -13   0   6  350.27   13.44
 -12   0   6  288.15   11.88
 -11   0   6  111.06    7.46
 -10   0   6    4.40    2.96
  -9   0   6  815.52   17.87
  -8   0   6   19.54    3.86
  -7   0   6 1044.93   20.05
   7   0  -6 1125.82    8.82
   6   0  -6  573.35    9.08
   6   0  -6  563.31    6.24
  -5   0   6  434.89   13.10
   5   0  -6  508.06    6.03
   5   0  -6  484.79    8.53
  -4   0   6  193.85    8.65
   4   0  -6  202.04    3.87
   3   0  -6   29.60    1.20
   3   0  -6   25.31    1.64
   3   0  -6   29.05    2.91
   2   0  -6  910.47    5.79
   2   0  -6  862.13    8.36
   2   0  -6  830.57   14.36
   1   0  -6  285.51    9.82
   1   0  -6  308.13    5.22
   1   0  -6  327.15    3.62
   0   0  -6 1404.77   11.53
   0   0  -6 1390.40    7.72
  -1   0  -6  322.10    5.62
  -1   0  -6  326.24    4.09
  -2   0  -6   43.75    2.46
  -2   0  -6   45.64    1.81
  -3   0  -6 1414.58   12.38
  -3   0  -6 1450.81    9.91
  -4   0  -6 1278.89   12.22
  -4   0  -6 1225.41    9.97
  -5   0  -6  125.72    4.23
  -5   0  -6  127.79    3.71
  -6   0  -6  327.81    6.80
  -6   0  -6  326.87    6.22
  -7   0  -6    6.97    1.92
  -7   0  -6    6.38    1.78
  -8   0  -6   28.23    2.61
  -8   0  -6   27.22    2.56
  -9   0  -6   28.65    2.71
  -9   0  -6   28.79    2.78
 -10   0  -6  426.02    8.90
 -10   0  -6  457.19    9.53
 -11   0  -6  115.35    5.05
 -11   0  -6  108.26    5.37
 -12   0  -6  274.05    8.00
 -12   0  -6  282.04    8.93
 -13   0  -6    5.13    2.55
 -13   0  -6    7.65    3.00
 -14   0  -6    2.60    2.54
 -17  -1   6   52.39    7.08
 -17   1   6   61.57    7.69
 -16  -1   6  270.13   13.07
 -16   1   6  291.58   14.30
 -15  -1   6   82.92    7.61
 -15   1   6   87.73    8.06
 -14  -1   6   93.91    7.50
 -14   1   6   96.74    8.03
 -13  -1   6   10.77    4.15
 -13   1   6    4.32    3.54
 -12  -1   6    1.76    3.05
 -12   1   6    5.65    3.84
 -11  -1   6   10.13    3.76
 -11   1   6   11.56    3.55
 -10   1   6   15.88    4.00
 -10  -1   6   20.90    3.91
  -9  -1   6  329.64   11.19
  -9   1   6  383.05   12.64
  -8  -1   6  267.74   10.11
  -8   1   6  249.54   10.49
  -7  -1   6  400.63   12.21
   7  -1  -6  413.22    5.09
   7   1  -6  418.54    5.90
  -6  -1   6   39.09    4.41
  -6   1   6   44.41    4.81
   6  -1  -6   62.12    3.24
   6  -1  -6   51.42    2.00
   6   1  -6   37.00    2.57
   6   1  -6   56.50    2.31
  -5   1   6   57.46    5.74
  -5  -1   6   40.56    4.83
   5  -1  -6   60.02    2.23
   5   1  -6   64.35    2.51
   5  -1  -6   60.64    3.36
   5   1  -6   39.72    2.70
  -4   1   6   52.52    5.12
   4  -1  -6   68.42    2.28
   4   1  -6   77.57    2.77
   4   1  -6   68.51    3.45
   3  -1  -6   43.06    1.42
   3   1  -6   48.08    1.42
   3  -1  -6   44.65    1.93
   3   1  -6   47.10    2.17
   3   1  -6   37.24    2.90
   2  -1  -6  116.06    3.17
   2  -1  -6  113.25    2.20
   2   1  -6  119.08    2.12
   2   1  -6  120.15    3.38
   2   1  -6   92.91    4.77
   1   1  -6  215.70    8.18
   1  -1  -6  221.15    4.39
   1   1  -6  216.08    4.59
   1  -1  -6  215.49    3.03
   1   1  -6  215.38    2.85
   0   1  -6  250.32    5.06
   0  -1  -6  234.41    3.35
   0   1  -6  244.86    3.25
   0  -1  -6  261.20    5.02
  -1   1  -6   39.30    2.32
  -1  -1  -6   39.77    1.62
  -1   1  -6   40.46    1.53
  -1  -1  -6   42.13    2.40
  -2  -1  -6   28.67    2.45
  -2   1  -6   14.04    1.70
  -2  -1  -6   23.55    1.68
  -2   1  -6   14.71    1.25
  -3   1  -6   32.83    2.49
  -3  -1  -6   37.70    2.71
  -3  -1  -6   31.20    1.92
  -3   1  -6   21.02    1.65
  -4  -1  -6  106.26    4.12
  -4   1  -6   93.49    3.84
  -4  -1  -6   94.87    3.07
  -4   1  -6   79.14    2.85
  -5  -1  -6   98.96    3.78
  -5   1  -6   84.61    3.62
  -5  -1  -6   88.33    3.12
  -5   1  -6   86.34    3.11
  -6  -1  -6  146.27    4.61
  -6   1  -6  138.26    4.70
  -6  -1  -6  131.92    4.05
  -6   1  -6  129.04    4.09
  -7  -1  -6   56.53    3.17
  -7   1  -6   57.32    3.27
  -7  -1  -6   58.15    3.06
  -7   1  -6   61.31    3.10
  -8  -1  -6    7.60    2.26
  -8  -1  -6    5.22    1.94
  -8   1  -6    6.62    2.02
  -8   1  -6    7.07    1.95
  -9   1  -6   12.90    2.26
  -9  -1  -6   13.83    2.30
  -9  -1  -6   10.98    2.24
  -9   1  -6   12.42    2.24
 -10  -1  -6   49.18    3.62
 -10   1  -6   49.39    3.77
 -10  -1  -6   48.89    3.67
 -10   1  -6   45.74    3.65
 -11  -1  -6   45.65    3.50
 -11   1  -6   41.52    3.58
 -11  -1  -6   48.18    3.93
 -11   1  -6   43.58    3.84
 -12  -1  -6   61.41    4.28
 -12   1  -6   51.83    4.25
 -12  -1  -6   56.98    4.62
 -12   1  -6   50.78    4.30
 -13  -1  -6   13.84    2.87
 -13   1  -6   11.26    2.82
 -13  -1  -6   14.42    3.28
 -13   1  -6   14.00    3.37
 -14  -1  -6   11.95    3.01
 -14   1  -6   14.02    3.16
 -17  -2   6   10.12    4.83
 -17   2   6    6.91    5.24
 -16  -2   6  169.83   10.34
 -16   2   6  147.50   10.60
 -15  -2   6  332.85   13.61
 -15   2   6  344.32   15.03
 -14  -2   6    1.24    3.42
 -14   2   6    5.38    3.99
 -13  -2   6  125.06    7.96
 -13   2   6  125.52    9.04
 -12  -2   6    7.48    3.63
 -12   2   6    5.30    3.53
 -11  -2   6  207.43    9.59
 -11   2   6  218.11   10.51
 -10  -2   6   59.09    5.36
 -10   2   6   50.28    5.67
  -9  -2   6  435.01   12.43
  -9   2   6  424.03   13.78
  -8   2   6  392.20   13.06
  -8  -2   6  394.88   11.80
  -7  -2   6   91.77    6.01
  -7   2   6   95.29    6.94
   7  -2  -6  107.81    2.51
   7   2  -6  105.40    3.34
  -6  -2   6  574.55   13.67
  -6   2   6  594.67   15.80
   6  -2  -6  640.54    6.20
   6   2  -6  622.61    7.31
   6   2  -6  674.79    9.15
   6  -2  -6  665.85   10.36
  -5   2   6  981.71   20.76
  -5  -2   6 1021.58   18.49
   5  -2  -6 1008.67   13.07
   5  -2  -6 1059.20    8.11
   5   2  -6 1050.58    9.49
   5   2  -6 1076.00   11.49
  -4   2   6  233.29    9.98
   4  -2  -6  243.71    4.06
   4   2  -6  253.99    4.71
   4   2  -6  251.06    5.84
   3  -2  -6   98.36    2.17
   3  -2  -6   94.35    2.68
   3   2  -6  101.03    1.84
   3   2  -6  103.62    3.32
   3   2  -6   96.28    3.97
   2  -2  -6  121.10    3.21
   2   2  -6  108.76    1.93
   2   2  -6  113.31    3.41
   2  -2  -6  100.37    2.19
   2   2  -6  105.52    4.75
   1   2  -6  323.42    9.27
   1  -2  -6  337.81    3.86
   1   2  -6  326.81    5.50
   1   2  -6  349.32    3.49
   1  -2  -6  345.29    5.32
   0   2  -6  351.93   11.02
   0  -2  -6  406.57    5.97
   0   2  -6  384.54    6.16
   0  -2  -6  395.25    4.35
   0   2  -6  392.36    3.90
  -1   2  -6   16.06    3.69
  -1  -2  -6   15.01    1.66
  -1   2  -6   12.60    1.62
  -1  -2  -6   16.27    1.22
  -1   2  -6   14.15    1.09
  -2  -2  -6  314.10    5.70
  -2   2  -6  282.65    5.68
  -2  -2  -6  306.13    4.36
  -2   2  -6  256.60    3.90
  -3  -2  -6   41.71    2.47
  -3   2  -6   36.03    2.44
  -3  -2  -6   38.79    1.93
  -3   2  -6   33.55    1.77
  -4   2  -6  326.65    6.50
  -4  -2  -6  343.92    5.38
  -4   2  -6  307.79    5.16
  -4  -2  -6  344.91    6.49
  -5  -2  -6   26.81    2.49
  -5   2  -6   15.06    2.02
  -5  -2  -6   29.47    2.38
  -5   2  -6   15.80    1.67
  -6  -2  -6  203.67    5.47
  -6   2  -6  188.26    5.34
  -6  -2  -6  195.33    4.86
  -6   2  -6  186.67    4.78
  -7  -2  -6    7.27    1.76
  -7   2  -6    6.12    1.77
  -7  -2  -6    4.63    1.66
  -7   2  -6    7.03    1.73
  -8  -2  -6  401.35    7.89
  -8   2  -6  381.46    7.89
  -8  -2  -6  389.74    7.72
  -8   2  -6  415.46    8.08
  -9   2  -6   23.27    2.57
  -9  -2  -6   26.90    2.70
  -9  -2  -6   20.59    2.45
  -9   2  -6   23.53    2.74
 -10  -2  -6   24.36    2.75
 -10   2  -6   20.75    2.82
 -10  -2  -6   24.29    2.81
 -10   2  -6   19.56    2.74
 -11  -2  -6   33.68    3.18
 -11   2  -6   34.14    3.46
 -11  -2  -6   31.32    3.23
 -11   2  -6   27.83    3.33
 -12  -2  -6   37.15    3.38
 -12   2  -6   40.05    3.87
 -12  -2  -6   44.17    4.01
 -12   2  -6   42.90    4.04
 -13  -2  -6   10.00    2.62
 -13   2  -6   11.32    2.89
 -13  -2  -6    7.46    2.90
 -13   2  -6    7.97    3.04
 -17  -3   6   -1.41    4.05
 -16  -3   6   31.64    5.37
 -16   3   6   34.91    6.58
 -15  -3   6  111.58    8.15
 -15   3   6  120.68    9.47
 -14  -3   6  109.74    7.69
 -14   3   6  127.62    9.78
 -13  -3   6   40.70    5.20
 -13   3   6   26.31    5.15
 -12  -3   6    5.82    3.20
 -12   3   6   13.06    4.54
 -11  -3   6   79.81    6.04
 -11   3   6   68.02    6.49
 -10  -3   6   28.50    4.20
 -10   3   6   28.49    4.82
  -9  -3   6  109.27    6.66
  -9   3   6  117.11    7.91
  -8   3   6  379.05   13.07
   8   3  -6  363.28    6.71
  -8  -3   6  389.27   11.22
  -7  -3   6  633.77   14.27
  -7   3   6  571.27   16.04
   7  -3  -6  647.07    5.72
   7   3  -6  662.39    8.58
  -6  -3   6   35.16    3.95
  -6   3   6   39.52    4.93
   6  -3  -6   37.11    1.59
   6   3  -6   39.54    2.23
   6  -3  -6   51.57    3.31
   6   3  -6   38.53    2.44
   5  -3  -6  347.51    8.11
  -5   3   6  325.26   12.46
  -5  -3   6  289.44    9.66
   5  -3  -6  355.72    4.66
   5   3  -6  352.13    5.80
   5   3  -6  340.67    5.96
   4   3  -6  574.23    4.19
   4  -3  -6  583.01    6.21
   4   3  -6  579.99    7.41
   4   3  -6  574.22    7.96
   3  -3  -6   81.96    2.04
   3   3  -6   92.26    1.64
   3  -3  -6   80.18    2.45
   3   3  -6   83.20    2.94
   3   3  -6   81.02    3.33
   2  -3  -6  990.49    6.67
   2   3  -6 1046.95    5.46
   2   3  -6 1101.66   10.82
   2   3  -6 1004.07   12.90
   1   3  -6  462.85   10.22
   1  -3  -6  458.25    4.65
   1   3  -6  447.49    6.75
   1   3  -6  450.62    3.77
   0   3   6   75.66    3.71
   0   3  -6   64.02    5.00
   0  -3  -6   74.59    2.04
   0   3  -6   70.58    2.96
   0   3  -6   73.87    1.75
  -1   3  -6   26.38    4.16
  -1   3  -6   40.97    2.48
  -1  -3  -6   38.39    1.67
  -1   3  -6   39.48    1.55
   1   3   6   46.08    3.12
  -2   3  -6   95.79    3.74
  -2  -3  -6   95.23    2.75
  -2   3  -6   89.54    2.52
   2   3   6   72.61    4.21
  -3   3  -6   13.96    1.89
  -3  -3  -6   13.17    1.44
  -3   3  -6   13.16    1.39
  -4  -3  -6  180.47    4.64
  -4   3  -6  175.76    4.86
  -4  -3  -6  179.17    3.94
  -4   3  -6  171.50    3.91
  -5  -3  -6   89.53    3.53
  -5   3  -6   67.27    3.31
  -5  -3  -6   94.30    3.22
  -5   3  -6   71.75    2.89
  -6  -3  -6   80.44    3.56
  -6   3  -6   75.91    3.68
  -6  -3  -6   72.56    3.17
  -6   3  -6   73.58    3.26
  -7  -3  -6   42.70    2.82
  -7   3  -6   47.90    3.10
  -7  -3  -6   44.44    2.70
  -7   3  -6   43.32    2.84
  -8  -3  -6   23.97    2.70
  -8   3  -6   16.52    2.68
  -8  -3  -6   14.42    2.39
  -8   3  -6   14.08    2.49
  -9  -3  -6   67.83    3.78
  -9   3  -6   68.00    3.97
  -9  -3  -6   63.36    3.62
  -9   3  -6   71.72    4.01
 -10  -3  -6   21.15    2.52
 -10   3  -6   18.61    2.78
 -10  -3  -6   21.72    2.86
 -10   3  -6   21.73    2.90
 -11  -3  -6   38.24    3.35
 -11   3  -6   32.56    3.37
 -11  -3  -6   35.93    3.49
 -11   3  -6   34.93    3.60
 -12  -3  -6   69.64    4.36
 -12   3  -6   68.59    4.70
 -12  -3  -6   68.96    4.81
 -12   3  -6   62.92    4.74
 -13  -3  -6    7.78    2.52
 -13   3  -6    1.57    2.40
 -13  -3  -6    4.59    3.00
 -13   3  -6    4.62    2.91
 -16  -4   6   44.37    5.78
 -16   4   6   67.68    8.60
 -15  -4   6   89.11    7.30
 -15   4   6  104.78    9.38
 -14  -4   6   42.29    5.16
 -14   4   6   55.28    6.93
 -13  -4   6    9.28    3.59
 -13   4   6    9.01    4.30
 -12  -4   6  237.42    9.83
 -12   4   6  205.57   10.86
 -11  -4   6 1489.00   23.01
 -11   4   6 1435.21   26.89
 -10  -4   6  524.92   13.55
 -10   4   6  514.96   15.96
  -9   4   6   13.93    4.14
  -9  -4   6    5.72    2.81
  -8   4   6   28.33    4.97
   8   4  -6   20.79    2.11
  -8  -4   6   24.96    3.62
  -7  -4   6   15.95    3.14
  -7   4   6   19.34    4.47
   7  -4  -6   24.27    1.32
   7   4  -6   20.19    2.07
  -6  -4   6   31.16    3.76
  -6   4   6   29.60    4.87
   6  -4  -6   36.41    1.55
   6   4  -6   34.92    2.31
   6  -4  -6   33.17    2.90
  -5  -4   6 2131.09   24.47
   5  -4  -6 2312.28   11.53
   5   4  -6 2229.80   14.96
   5   4  -6 2263.19   13.78
   4  -4  -6 2395.97   12.15
   4   4  -6 2458.16    8.02
   4   4  -6 2365.27   15.25
   4   4  -6 2451.34   14.48
   3  -4  -6   35.09    1.44
  -3   4   6   33.44    2.34
   3   4  -6   38.31    1.03
   3   4  -6   32.85    2.09
   3   4  -6   38.47    2.19
   2  -4  -6   98.31    2.29
   2   4  -6   97.64    1.60
   2   4  -6   99.82    3.41
  -2   4   6   98.49    3.85
   2   4  -6  104.32    3.83
   1  -4  -6  106.16    2.39
   1   4  -6  104.24    3.53
   1   4  -6  108.16    1.80
  -1   4   6  103.36    4.13
   1   4  -6  116.32    4.95
   0   4  -6  125.90    6.40
   0  -4  -6  128.41    2.72
   0   4  -6  130.84    3.98
   0   4  -6  125.02    2.21
   0   4   6  137.28    4.85
  -1   4  -6  610.31   14.75
  -1  -4  -6  653.08    6.17
  -1   4  -6  614.31    8.56
  -1   4  -6  617.67    5.34
   1   4   6  615.07   10.30
  -2   4  -6 2041.75   15.85
  -2  -4  -6 2096.92   11.50
  -2   4  -6 2109.42   11.05
   2   4   6 2089.45   19.35
  -3   4  -6  436.08    7.58
  -3  -4  -6  432.05    5.63
  -3   4  -6  438.62    5.64
   3   4   6  437.85    9.34
   4   4   6   84.16    4.47
  -4   4  -6   88.64    3.74
  -4  -4  -6   90.44    2.90
  -4   4  -6   86.49    2.91
  -5   4  -6   65.83    3.41
  -5  -4  -6   73.29    2.80
  -5   4  -6   64.74    2.82
  -6  -4  -6  229.96    5.55
  -6   4  -6  220.46    6.01
  -6  -4  -6  227.90    5.05
  -6   4  -6  228.94    5.36
  -7  -4  -6   11.74    2.06
  -7   4  -6   10.66    2.09
  -7  -4  -6   13.65    1.97
  -7   4  -6   13.38    2.03
  -8  -4  -6  684.09   10.12
  -8   4  -6  659.18   10.98
  -8  -4  -6  666.33   10.01
  -8   4  -6  660.64   10.36
  -9   4  -6  177.36    6.46
  -9  -4  -6  170.83    5.40
  -9  -4  -6  161.35    5.44
  -9   4  -6  157.87    5.63
 -10  -4  -6    4.79    1.98
 -10   4  -6    0.05    1.99
 -10  -4  -6    1.51    2.06
 -10   4  -6    2.70    2.18
 -11  -4  -6   26.01    2.90
 -11   4  -6   25.72    3.27
 -11  -4  -6   23.36    3.01
 -11   4  -6   24.25    3.28
 -12  -4  -6   99.06    4.96
 -12   4  -6   89.89    5.15
 -12  -4  -6   93.73    5.17
 -12   4  -6   94.34    5.59
 -13  -4  -6   22.46    3.19
 -13   4  -6   18.33    3.35
 -13  -4  -6   15.19    3.19
 -13   4  -6   18.12    3.64
 -16  -5   6  240.82   11.60
 -16   5   6  262.97   14.37
 -15  -5   6  142.48    8.75
 -15   5   6  135.26   10.51
 -14  -5   6    5.30    3.05
 -14   5   6   -1.56    4.08
 -13   5   6   12.09    4.74
 -13  -5   6   11.15    3.58
 -12   5   6   31.77    5.38
 -12  -5   6   40.75    4.54
 -11   5   6   15.22    4.62
 -11  -5   6   12.23    3.18
 -10  -5   6  301.12   10.19
 -10   5   6  314.58   12.95
  -9  -5   6  314.54    9.81
  -9   5   6  298.65   12.76
  -8   5   6  485.83   15.88
  -8  -5   6  495.58   11.91
   8   5  -6  481.70    8.93
  -7  -5   6  277.39    8.84
  -7   5   6  308.87   12.51
   7  -5  -6  326.65    3.92
   7   5  -6  312.21    6.97
  -6  -5   6  561.40   12.17
  -6   5   6  534.83   16.49
   6  -5  -6  610.23    5.67
   6   5  -6  616.63    6.90
   6   5  -6  605.40    9.09
  -5   5   6   18.16    4.46
  -5  -5   6   15.63    2.81
   5   5  -6   14.17    1.73
   5   5  -6   15.50    1.30
  -4   5   6  211.34   10.85
   4   5  -6  267.16    2.49
   4   5  -6  245.51    5.36
   4   5  -6  255.61    4.11
  -4   5   6  241.23    5.32
   3  -5  -6   68.35    1.99
  -3   5   6   65.77    3.13
   3   5  -6   70.01    1.25
   3   5  -6   64.21    2.89
   3   5  -6   79.76    2.51
   2   5  -6   39.47    1.00
   2   5  -6   35.64    2.42
   2   5  -6   33.79    2.03
   2  -5  -6   34.47    1.51
  -2   5   6   44.74    2.78
   1  -5  -6   36.24    1.52
   1   5  -6   38.34    2.34
   1   5  -6   39.37    1.11
  -1   5   6   37.57    2.66
   1   5  -6   37.25    2.73
   0   5  -6  507.54   11.33
   0  -5  -6  505.32    5.34
   0   5  -6  483.85    7.67
   0   5  -6  510.85    4.25
   0   5   6  502.08    9.15
  -1   5  -6  801.60   16.45
  -1  -5  -6  816.41    6.94
  -1   5  -6  805.25   10.07
  -1   5  -6  823.97    6.21
   1   5   6  799.23   11.75
   2   5   6  227.50    6.79
   2  -5   6  216.88    2.89
  -2  -5  -6  258.92    4.25
  -2   5  -6  254.62    5.94
  -2   5  -6  240.28    3.87
   3   5   6   18.64    2.44
  -3   5  -6   24.27    2.37
  -3  -5  -6   28.25    1.75
  -3   5  -6   23.75    1.61
  -4   5  -6   13.69    2.04
  -4  -5  -6   14.99    1.47
   4   5   6   15.98    2.41
  -4   5  -6   12.30    1.48
  -5   5  -6   54.16    3.32
  -5  -5  -6   60.41    2.62
  -5   5  -6   60.54    2.77
   5   5   6   58.02    4.01
  -6   5  -6  155.63    5.39
  -6  -5  -6  162.07    4.40
  -6   5  -6  165.51    4.81
   6   5   6  156.71    6.35
  -7  -5  -6  222.10    5.63
  -7   5  -6  215.88    6.63
  -7  -5  -6  212.65    5.29
  -7   5  -6  212.21    5.70
  -8  -5  -6   94.51    4.15
  -8   5  -6   80.65    4.47
  -8  -5  -6   78.45    3.93
  -8   5  -6   77.32    4.05
  -9  -5  -6   74.67    3.85
  -9   5  -6   61.62    4.02
  -9  -5  -6   69.26    3.77
  -9   5  -6   71.15    4.08
 -10  -5  -6   13.25    2.59
 -10   5  -6    6.51    2.46
 -10  -5  -6    8.32    2.20
 -10   5  -6    4.36    2.17
 -11  -5  -6   11.68    2.47
 -11   5  -6   14.14    2.84
 -11  -5  -6   11.69    2.76
 -11   5  -6   11.30    2.79
 -12  -5  -6    7.46    2.50
 -12   5  -6    4.24    2.60
 -12  -5  -6    1.19    2.43
 -12   5  -6    3.43    2.62
 -13   5  -6   61.15    4.69
 -13  -5  -6   74.71    5.36
 -13   5  -6   77.67    5.62
 -13  -5  -6   83.65    4.82
 -16   6   6   65.52    8.35
 -15  -6   6   20.08    4.33
 -15   6   6   21.06    5.82
 -14   6   6   31.97    6.18
 -14  -6   6   27.91    4.66
 -13  -6   6   64.91    5.79
 -13   6   6   75.29    8.09
 -12  -6   6   31.19    4.10
 -12   6   6   48.01    6.52
 -11  -6   6   80.69    5.70
 -11   6   6   76.11    7.36
 -10   6   6   32.02    5.35
 -10  -6   6   29.34    3.73
  -9   6   6  213.03   11.07
  -9  -6   6  216.77    8.14
  -8   6   6  173.22   10.23
  -8  -6   6  158.79    6.82
   8   6  -6  162.74    5.67
  -7  -6   6    3.31    2.17
  -7   6   6    4.03    3.63
   7  -6  -6    7.81    0.88
   7   6  -6    8.95    1.87
  -6  -6   6    6.98    2.36
  -6   6   6    5.98    3.61
   6   6  -6   10.66    1.80
  -5   6   6   33.76    5.52
  -5  -6   6   40.38    3.55
  -5   6   6   38.23    2.28
   5   6  -6   50.77    1.78
   5   6  -6   50.90    2.94
  -4   6   6  488.27   16.33
   4   6  -6  528.24    3.16
   4   6  -6  508.49    7.99
   4   6  -6  509.23    4.87
  -4   6   6  554.16    8.18
   3  -6  -6  313.35    4.17
   3   6  -6  298.56    2.27
   3   6  -6  307.73    6.13
  -3   6   6  320.48    6.58
   3   6  -6  310.72    3.86
   2  -6  -6  543.43    5.49
   2   6  -6  482.77    3.05
  -2   6   6  559.91    9.06
   2   6  -6  516.51    7.96
   2   6  -6  511.25    5.90
   1  -6  -6  124.80    2.68
  -1   6   6  125.39    4.54
   1   6  -6  124.60    4.03
   1   6  -6  124.68    1.80
   1   6  -6  128.48    4.07
   0   6  -6  453.58    9.68
   0  -6  -6  467.90    5.20
   0   6   6  463.81    8.87
   0   6  -6  458.00    7.73
   0   6  -6  472.26    4.09
  -1   6  -6  308.23    9.91
  -1  -6  -6  321.89    4.52
  -1   6  -6  310.93    6.58
   1   6   6  330.45    7.82
  -1   6  -6  336.21    4.03
   2  -6   6  356.76    3.57
  -2  -6  -6  371.17    5.10
  -2   6  -6  351.94    7.08
  -2   6  -6  343.18    4.57
   2   6   6  376.11    8.64
  -3  -6  -6   51.37    2.20
  -3   6  -6   43.74    2.88
  -3   6  -6   43.51    2.04
   3   6   6   43.11    3.43
   4   6   6  101.38    4.95
  -4   6  -6   86.88    4.01
  -4  -6  -6   96.41    3.04
  -4   6  -6   89.21    3.05
   5   6   6   63.07    4.09
  -5   6  -6   48.67    3.21
  -5  -6  -6   65.43    2.72
  -5   6  -6   65.94    2.88
  -6   6  -6  315.78    7.44
  -6  -6  -6  333.12    6.16
  -6   6  -6  326.92    6.53
   6   6   6  324.26    8.80
  -7   6  -6  136.57    5.27
  -7  -6  -6  141.42    4.44
  -7   6  -6  141.36    4.85
   7   6   6  144.97    6.28
  -8  -6  -6  266.23    6.29
  -8   6  -6  248.84    7.15
  -8  -6  -6  257.33    6.37
  -8   6  -6  269.10    6.91
  -9  -6  -6   16.63    2.40
  -9   6  -6    8.39    2.46
  -9  -6  -6    6.57    1.93
  -9   6  -6    8.74    2.23
 -10  -6  -6  375.75    8.16
 -10   6  -6  338.05    8.86
 -10  -6  -6  371.58    8.68
 -10   6  -6  353.94    9.09
 -11  -6  -6    3.69    2.06
 -11   6  -6   -0.18    2.20
 -11  -6  -6    0.04    2.21
 -11   6  -6    0.52    2.31
 -12  -6  -6   94.38    4.66
 -12   6  -6   89.76    5.37
 -12  -6  -6   99.35    5.37
 -12   6  -6  106.16    6.08
 -13  -6  -6   26.19    3.30
 -13   6  -6   19.24    3.51
 -13  -6  -6   22.74    3.50
 -13   6  -6   26.68    3.98
 -16   7   6   55.35    8.22
 -15   7   6   78.92    8.80
 -14   7   6   22.27    5.62
 -14  -7   6   19.10    4.06
 -13   7   6   -0.22    4.09
 -13  -7   6    6.42    3.01
 -12  -7   6  176.41    8.02
 -12   7   6  162.04   10.63
 -11   7   6    4.55    4.03
 -11  -7   6    5.73    2.80
 -10  -7   6  164.98    7.16
 -10   7   6  164.00   10.25
  -9   7   6  116.68    8.58
  -9  -7   6  145.97    6.79
   8   7  -6  110.06    4.98
  -8   7   6  106.64    8.45
  -8  -7   6  105.56    5.48
  -7  -7   6   16.86    2.74
  -7   7   6   16.94    4.62
   7   7  -6   17.14    2.33
  -6  -7   6  569.67   11.14
  -6   7   6  522.86   17.58
  -6   7   6  591.67    7.68
   6   7  -6  556.21    9.82
  -5   7   6  729.23   20.41
  -5  -7   6  797.09   12.22
   5   7  -6  765.22    5.41
   5   7  -6  803.57   11.20
  -4   7   6  971.11   23.50
   4   7  -6  970.21    3.73
   4   7  -6  911.70    5.09
  -3   7   6 1057.20   12.24
   3  -7  -6  979.20    7.40
   3   7  -6 1018.04   11.55
   3   7  -6  806.23    4.12
  -2   7   6   19.54    2.16
   2  -7  -6   18.39    1.28
   2   7  -6   10.11    0.44
   2   7  -6   16.06    1.92
   2   7  -6   12.03    0.71
  -1   7   6   65.08    3.52
   1  -7  -6   69.42    2.14
   1   7  -6   60.44    3.06
   1   7  -6   57.35    1.19
   1   7  -6   69.07    2.46
   0   7  -6  137.96    5.14
   0   7   6  163.75    5.52
   0  -7  -6  152.85    3.14
   0   7  -6  154.46    4.77
   0   7  -6  145.07    2.27
   1   7   6  279.77    7.47
  -1  -7  -6  274.76    4.25
  -1   7  -6  260.60    6.18
  -1   7  -6  292.14    3.82
   2  -7   6   22.74    1.00
   2   7   6   24.44    2.65
  -2  -7  -6   23.73    1.57
  -2   7  -6   19.33    2.20
  -2   7  -6   24.39    1.46
  -3  -7  -6  306.64    5.03
  -3   7  -6  295.39    6.74
   3   7   6  296.92    7.94
  -3   7  -6  315.51    5.03
  -4  -7  -6  242.88    4.71
  -4   7  -6  246.26    6.46
  -4   7  -6  254.01    4.97
   4   7   6  240.12    7.32
  -5   7  -6   36.21    2.83
  -5  -7  -6   38.46    2.29
  -5   7  -6   39.63    2.43
   5   7   6   53.75    3.86
   6   7   6   38.68    3.56
  -6   7  -6   29.17    2.82
  -6  -7  -6   33.49    2.36
  -6   7  -6   31.80    2.53
  -7   7  -6  468.88    9.53
  -7  -7  -6  498.87    8.10
  -7   7  -6  486.68    8.67
   7   7   6  529.06   11.57
   8   7   6   42.79    3.94
  -8   7  -6   37.92    3.29
  -8  -7  -6   40.81    2.86
  -8   7  -6   38.62    3.13
  -9  -7  -6  105.28    4.35
  -9   7  -6   89.86    4.81
  -9  -7  -6   96.71    4.46
  -9   7  -6   93.68    4.68
 -10  -7  -6   25.71    3.13
 -10   7  -6   16.12    3.01
 -10  -7  -6   11.65    2.49
 -10   7  -6   14.73    2.91
 -11  -7  -6    5.47    2.25
 -11   7  -6    3.95    2.50
 -11  -7  -6    1.23    2.14
 -11   7  -6    2.18    2.37
 -12  -7  -6   29.96    3.17
 -12   7  -6   22.84    3.58
 -12  -7  -6   29.35    3.57
 -12   7  -6   25.37    3.63
 -13  -7  -6  129.41    5.63
 -13   7  -6  124.30    6.50
 -13   7  -6  104.90    6.42
 -16   8   6   -1.67    5.52
 -15   8   6   21.58    6.10
 -14   8   6    3.44    5.20
 -13  -8   6  362.36   11.71
 -13   8   6  390.80   16.43
 -12  -8   6  168.59    7.85
 -12   8   6  188.25   11.43
 -11  -8   6   51.88    4.52
 -11   8   6   57.31    7.13
 -10   8   6   17.63    5.02
 -10  -8   6   13.22    2.81
  -9   8   6   28.68    5.18
  -9  -8   6   24.86    3.28
  -8  -8   6   16.37    2.79
   8   8  -6   18.63    2.86
  -8   8   6   18.43    4.75
  -7   8   6  508.91   17.22
   7   8  -6  492.27   10.35
  -7  -8   6  506.92   10.62
  -6  -8   6  550.01   10.51
  -6   8   6  572.01   18.69
   6   8  -6  562.85   10.24
   5   8  -6    2.90    0.39
  -5   8   6    4.52    1.42
   5   8  -6    2.64    0.50
   5   8  -6    1.06    1.54
  -4   8   6  150.34    9.87
   4   8  -6  192.51    5.64
  -4   8   6  168.72    4.87
   3  -8  -6 1169.82    8.28
   3   8  -6 1198.07   13.19
  -3   8   6 1250.13   13.43
   2  -8  -6   23.08    1.43
   2   8  -6   23.32    2.28
  -2   8   6   28.93    2.48
   1  -8  -6   83.57    2.42
   1   8  -6   82.29    3.73
  -1   8   6   76.69    3.91
   0   8  -6  565.19    8.63
   0  -8  -6  579.95    6.04
   0   8  -6  575.12    9.22
   0   8  -6  504.27    4.11
   0   8   6  601.01   10.52
  -1   8  -6  107.14    5.66
  -1  -8  -6  113.37    2.88
  -1   8  -6  105.16    4.31
  -1   8  -6  122.32    2.52
   1   8   6  125.97    5.12
   2  -8   6   19.31    0.92
  -2  -8  -6   22.36    1.58
  -2   8  -6   20.04    2.32
  -2   8  -6   24.04    1.47
   2   8   6   19.50    2.58
   3   8   6  313.52    8.35
  -3  -8  -6  309.76    5.05
  -3   8  -6  303.93    7.05
  -3   8  -6  313.66    5.15
   4   8   6  493.12   10.42
  -4  -8  -6  488.30    6.67
  -4   8  -6  459.89    8.83
  -4   8  -6  487.91    6.98
  -5  -8  -6   13.44    1.76
   5   8   6   13.53    2.58
  -5   8  -6    8.18    2.16
  -5   8  -6   13.68    1.83
  -6   8  -6  378.44    8.54
  -6  -8  -6  400.79    6.84
  -6   8  -6  401.11    7.55
   6   8   6  409.70   10.12
   7   8   6   63.72    4.55
  -7   8  -6   48.41    3.74
  -7  -8  -6   56.97    3.04
  -7   8  -6   52.06    3.26
  -8   8  -6    3.35    2.03
  -8  -8  -6    8.03    1.90
  -8   8  -6    7.71    2.08
   8   8   6    3.79    2.31
  -9   8  -6  168.00    6.39
  -9  -8  -6  178.20    5.66
   9   8   6  188.42    7.66
  -9   8  -6  180.65    6.44
 -10  -8  -6  428.34    8.54
 -10   8  -6  410.18   10.13
 -10  -8  -6  425.60    9.13
 -10   8  -6  407.28    9.95
 -11  -8  -6   24.34    3.09
 -11   8  -6   15.64    3.10
 -11  -8  -6   14.02    2.69
 -11   8  -6   15.43    3.14
 -12  -8  -6   28.23    3.11
 -12   8  -6   29.11    3.78
 -12  -8  -6   27.94    3.58
 -12   8  -6   22.79    3.61
 -13  -8  -6   85.54    4.90
 -13   8  -6   86.99    5.76
 -13   8  -6   83.33    6.11
 -16   9   6   34.35    7.75
 -15   9   6   48.73    7.51
 -14   9   6  170.23   12.30
 -13  -9   6   64.20    5.33
 -13   9   6   67.96    7.87
 -12  -9   6  123.33    6.64
 -12   9   6  125.15   10.02
 -11  -9   6   65.47    4.79
 -11   9   6   62.24    7.55
 -10   9   6    4.70    4.50
 -10  -9   6    9.07    2.58
  -9   9   6   69.71    7.68
  -9  -9   6   69.37    4.57
   8   9  -6  350.28    9.47
  -8   9   6  363.81   15.05
  -8   9   6  394.34    5.50
  -8  -9   6  349.94    8.86
  -7   9   6   23.12    5.13
  -7   9   6   29.20    1.98
   7   9  -6   18.26    2.83
  -7  -9   6   19.24    2.65
  -6  -9   6  102.64    4.58
  -6   9   6  106.68    8.89
   6   9  -6   99.28    4.99
  -6   9   6  123.58    3.95
  -5   9   6  556.47   18.93
  -5   9   6  611.43    8.91
   5   9  -6  572.62   10.56
  -4   9   6   42.73    6.02
  -4   9   6   43.37    2.72
   4   9  -6   42.30    3.11
   3  -9  -6   63.47    2.14
  -3   9   6   69.02    3.70
   3   9  -6   62.79    3.55
   2  -9  -6  539.26    5.85
  -2   9   6  548.23    9.72
   2   9  -6  511.36    9.04
   1  -9  -6 1101.23    8.40
  -1   9   6 1084.41   14.21
   1   9  -6 1055.41   12.83
   0  -9  -6   40.07    1.84
   0   9  -6   38.79    2.81
   0   9   6   38.28    3.14
   0   9  -6   32.01    1.07
   0   9  -6   47.87    2.07
  -1   9  -6  139.85    5.99
  -1  -9  -6  163.48    3.48
  -1   9  -6  147.88    5.12
   1   9   6  173.43    6.10
  -1   9  -6  155.68    2.85
   2  -9   6    5.14    0.62
  -2  -9  -6    8.88    1.28
  -2   9  -6    7.83    1.98
  -2   9  -6    7.12    1.08
   2   9   6    8.90    2.18
   3   9   6   14.27    2.46
  -3  -9  -6   19.83    1.65
  -3   9  -6   21.22    2.36
  -3   9  -6   19.07    1.58
   4   9   6  168.60    6.42
  -4  -9  -6  151.08    3.86
  -4   9  -6  152.04    5.50
  -4   9  -6  149.55    4.04
   5   9   6  792.48   13.75
  -5  -9  -6  808.68    9.09
  -5   9  -6  788.49    9.80
  -6  -9  -6  147.42    4.29
  -6   9  -6  137.73    5.60
   6   9   6  152.30    6.38
  -6   9  -6  154.43    4.83
  -7   9  -6   14.13    2.64
  -7  -9  -6   10.17    1.85
  -7   9  -6   10.44    2.08
   7   9   6   10.79    2.68
   8   9   6  307.85    9.48
  -8   9  -6  294.63    8.33
  -8  -9  -6  297.66    6.77
  -8   9  -6  293.10    7.60
   9   9   6  112.51    6.19
  -9   9  -6  106.17    5.40
  -9  -9  -6  105.56    4.56
  -9   9  -6  107.38    5.13
 -10   9  -6   10.97    2.91
 -10  -9  -6   12.65    2.56
 -10   9  -6   11.69    2.72
 -11  -9  -6  336.41    7.94
 -11   9  -6  313.59    9.42
 -11  -9  -6  316.12    8.81
 -11   9  -6  318.33    9.61
 -12  -9  -6   53.70    3.91
 -12   9  -6   49.13    4.54
 -12  -9  -6   53.79    4.24
 -12   9  -6   58.29    4.98
 -13  -9  -6    4.82    2.38
 -13   9  -6    4.62    3.10
 -13   9  -6    0.33    2.82
 -15  10   6   38.53    7.39
 -14  10   6   12.50    5.71
 -13  10   6   43.38    6.97
 -12  10   6    6.29    4.89
 -11 -10   6   77.06    5.10
 -11  10   6   78.09    8.57
 -10  10   6   27.77    5.66
 -10 -10   6   25.19    3.25
  -9  10   6    8.58    5.01
  -9 -10   6    9.73    2.39
   8  10  -6   29.82    3.49
  -8  10   6   19.95    5.31
  -8  10   6   19.03    1.58
  -8 -10   6   24.94    2.85
  -7  10   6  728.35   21.38
   7  10  -6  726.06   13.99
  -7 -10   6  723.88   11.48
  -6  10   6  384.74    7.02
   6  10  -6  414.12   10.00
  -5  10   6  284.74   14.27
  -5  10   6  338.10    7.00
   5  10  -6  304.66    8.27
  -4  10   6  213.78   12.00
  -4  10   6  249.31    6.35
   4  10  -6  206.93    6.58
  -3  10   6    1.93    1.49
   3 -10  -6    2.72    0.95
   3  10  -6    4.41    1.90
  -2  10   6  228.03    6.51
   2 -10  -6  187.04    3.58
   2  10  -6  191.69    5.97
   1 -10  -6  100.29    2.76
  -1  10   6   88.47    4.40
   1  10  -6  101.14    4.41
   0 -10  -6  203.70    3.82
   0  10   6  216.12    6.75
   0  10  -6  208.90    6.06
  -1 -10  -6   68.68    2.41
   1  10   6   58.57    3.93
  -1  10  -6   58.64    3.45
  -1  10  -6   67.56    1.98
   2 -10   6  247.98    2.62
  -2 -10  -6  262.31    4.58
  -2  10  -6  259.59    6.99
   2  10   6  259.33    7.70
  -2  10  -6  260.55    4.30
  -3 -10  -6   10.88    1.47
  -3  10  -6   12.33    2.26
  -3  10  -6   10.85    1.46
   3  10   6   14.74    2.48
  -4 -10  -6   74.20    2.84
  -4  10  -6   73.92    4.19
  -4  10  -6   74.07    3.02
   4  10   6   87.33    4.89
  -5 -10  -6   10.01    1.58
   5  10   6   10.69    2.48
  -5  10  -6    7.45    2.20
  -5  10  -6   11.97    1.87
   6  10   6   78.35    4.84
  -6 -10  -6   68.33    3.06
  -6  10  -6   70.69    4.21
  -6  10  -6   70.45    3.55
  -7 -10  -6  164.99    4.78
  -7  10  -6  154.74    6.21
   7  10   6  186.35    7.17
  -7  10  -6  151.16    5.23
  -8 -10  -6  154.82    5.09
  -8  10  -6  139.96    6.05
  -8  10  -6  155.99    5.72
   8  10   6  166.89    7.18
   9  10   6   50.90    4.45
  -9  10  -6   54.19    4.30
  -9 -10  -6   57.48    3.56
  -9  10  -6   58.62    4.08
  10  10   6   48.15    4.68
 -10  10  -6   46.32    4.21
 -10 -10  -6   45.41    3.70
 -10  10  -6   38.13    3.77
 -11 -10  -6   20.37    2.85
 -11  10  -6   20.09    3.53
 -11 -10  -6   19.58    3.04
 -11  10  -6   12.11    3.13
 -12 -10  -6   27.34    3.14
 -12  10  -6   30.77    4.16
 -12 -10  -6   24.33    3.40
 -12  10  -6   25.45    3.81
 -13 -10  -6   -0.82    2.25
 -13  10  -6    1.06    2.90
 -13  10  -6    0.92    3.09
 -15  11   6    4.37    5.13
 -14  11   6  207.84   13.59
 -13  11   6   58.65    8.16
 -12  11   6   92.52    9.22
 -11  11   6   22.33    5.81
 -10  11   6   11.18    4.63
 -10 -11   6   13.62    2.58
  -9  11   6    1.90    4.10
  -9 -11   6    1.64    1.87
  -8  11   6  436.44   17.56
   8  11  -6  426.60   11.25
  -8  11   6  469.06    6.84
  -8 -11   6  441.56    9.34
  -7 -11   6   10.87    1.87
   7  11  -6    7.11    2.60
  -7  11   6   10.59    4.88
  -7  11   6   15.24    1.76
  -6  11   6   80.01    8.39
  -6  11   6   94.69    3.80
   6  11  -6   80.30    4.98
  -5  11   6    4.48    4.68
  -5  11   6    9.91    1.86
   5  11  -6    5.16    2.17
  -4  11   6  512.03   18.73
   4  11  -6  552.27   11.28
  -3  11   6   71.72    3.99
   3 -11  -6   71.18    2.37
   3  11  -6   73.64    4.19
  -2  11   6  315.85    8.15
   2 -11  -6  288.04    4.54
   2  11  -6  287.50    7.70
  -1  11   6 1310.79   16.44
   1 -11  -6 1219.61    9.16
   1  11  -6 1199.28   15.08
   0 -11  -6   15.38    1.37
   0  11  -6   15.59    2.30
   0  11   6   13.29    2.33
  -1 -11  -6  182.46    3.82
   1  11   6  187.15    6.67
  -1  11  -6  178.04    5.97
  -1  11  -6  156.34    3.12
   2 -11   6   38.83    1.08
  -2 -11  -6   46.52    2.15
   2  11   6   38.64    3.39
  -2  11  -6   47.37    3.44
  -2  11  -6   47.60    2.10
  -3 -11  -6  330.43    5.52
  -3  11  -6  300.59    7.72
   3  11   6  332.43    9.08
  -3  11  -6  337.29    5.78
  -4 -11  -6   10.66    1.53
  -4  11  -6    8.75    2.10
   4  11   6   17.37    2.81
  -4  11  -6    9.59    1.62
  -5 -11  -6  136.28    4.00
  -5  11  -6  121.90    5.45
  -5  11  -6  132.76    4.47
   5  11   6  143.71    6.41
   6  11   6   71.66    4.83
  -6 -11  -6   69.81    3.15
  -6  11  -6   70.91    4.38
  -6  11  -6   68.74    3.57
   7  11   6    5.23    2.43
  -7 -11  -6    8.78    1.81
  -7  11  -6    8.36    2.53
  -7  11  -6    8.49    2.04
  -8 -11  -6   66.02    3.49
  -8  11  -6   68.10    4.63
   8  11   6   88.49    5.40
  -8  11  -6   60.72    3.99
   9  11   6  100.75    5.92
  -9 -11  -6   97.68    4.36
  -9  11  -6   87.90    5.25
  -9  11  -6   98.08    5.02
 -10 -11  -6    9.21    2.35
 -10  11  -6    9.21    2.91
  10  11   6   13.62    3.12
 -10  11  -6   11.97    2.72
 -11 -11  -6  173.03    6.56
 -11  11  -6  177.72    7.70
 -11  11  -6  168.43    7.73
 -12 -11  -6   53.09    3.81
 -12  11  -6   49.61    4.80
 -12 -11  -6   49.24    4.21
 -12  11  -6   44.00    4.80
 -13  11  -6    1.96    3.04
 -13  11  -6    3.02    3.22
 -15  12   6   15.42    6.19
 -14  12   6   15.03    5.61
 -13  12   6    7.53    5.57
 -12  12   6  107.13   10.03
 -11  12   6  402.40   17.88
 -10  12   6  342.95   16.37
  -9  12   6    7.53    5.03
  -8  12   6   85.94    8.71
   8  12  -6   68.95    5.29
  -8  12   6   98.64    3.51
   7  12  -6   -0.05    2.52
  -7  12   6    2.92    1.37
   6  12  -6    4.75    2.58
  -6  12   6    3.54    4.78
  -6  12   6    6.26    1.72
  -5  12   6  206.54    5.85
  -5  12   6  182.30   12.45
   5  12  -6  199.92    7.65
  -4  12   6  528.18    9.70
  -4  12   6  481.94   18.56
   4  12  -6  482.22   11.08
  -3  12   6  742.29   11.89
   3 -12  -6  708.30    7.17
   3  12  -6  693.46   12.45
  -2  12   6   24.25    2.79
   2 -12  -6   18.25    1.60
   2  12  -6   13.40    2.57
  -1  12   6   37.19    3.27
   1 -12  -6   39.41    1.93
   1  12  -6   33.07    3.23
   0 -12  -6    4.19    1.13
   0  12  -6    3.10    1.96
   0  12   6    4.03    2.07
   1  12   6  198.63    7.03
  -1 -12  -6  187.17    3.92
  -1  12  -6  184.38    6.32
  -1  12  -6  155.27    2.88
   2  12   6  642.49   12.59
  -2 -12  -6  589.79    7.02
  -2  12  -6  583.76   10.91
  -2  12  -6  577.57    7.23
  -3 -12  -6  348.03    5.63
   3  12   6  385.27    9.92
  -3  12  -6  331.20    8.61
  -3  12  -6  358.42    6.30
  -4 -12  -6  140.77    3.92
  -4  12  -6  125.63    5.42
   4  12   6  129.13    6.01
  -4  12  -6  135.61    4.42
  -5 -12  -6  569.23    7.92
  -5  12  -6  526.78   10.86
   5  12   6  562.30   12.28
  -5  12  -6  571.70    9.31
  -6 -12  -6   77.32    3.32
  -6  12  -6   72.79    4.70
  -6  12  -6   76.86    3.92
   6  12   6   89.17    5.37
   7  12   6   52.11    4.52
  -7 -12  -6   63.44    3.31
  -7  12  -6   53.88    4.29
  -7  12  -6   58.37    3.78
  -8 -12  -6  233.04    6.14
   8  12   6  248.39    8.84
  -8  12  -6  233.26    8.08
  -8  12  -6  238.37    7.59
  -9 -12  -6   50.23    3.41
  -9  12  -6   44.27    4.23
  -9  12  -6   50.43    4.19
   9  12   6   57.41    4.72
  10  12   6    0.06    2.61
 -10 -12  -6   -1.53    2.06
 -10  12  -6   -0.31    2.53
 -10  12  -6   -1.99    2.64
  11  12   6   10.66    3.28
 -11 -12  -6   15.44    2.81
 -11  12  -6   13.65    3.35
 -11  12  -6   13.89    3.29
 -12 -12  -6   68.21    4.20
 -12 -12  -6   62.22    4.50
 -12  12  -6   66.19    5.55
 -12  12  -6   57.07    5.38
 -15  13   6    7.93    6.21
 -14  13   6   40.39    7.89
 -13  13   6   -0.78    5.07
 -12  13   6  208.94   13.48
 -11  13   6    3.67    5.12
 -10  13   6  398.93   17.85
  -9  13   6  471.51   18.92
  -8  13   6  194.65   12.65
   8  13  -6  197.19    8.63
  -8  13   6  219.77    5.43
  -7  13   6  117.33    4.34
  -7  13   6  108.22    9.99
  -6  13   6  239.61   14.27
   6  13  -6  253.72    9.16
  -6  13   6  268.97    6.82
  -5  13   6  106.63    9.64
   5  13  -6  125.65    6.35
  -5  13   6  133.18    5.07
  -4  13   6  787.02   24.09
   4  13  -6  781.37   14.44
   3 -13  -6  333.21    5.05
   3  13  -6  350.83    9.63
   2 -13  -6   26.98    1.68
   2  13  -6   21.92    2.98
  -2  13   6   31.02    3.02
   1 -13  -6   19.15    1.55
  -1  13   6   13.83    2.50
   1  13  -6   19.50    2.80
   0  13   6  362.79    9.27
   0 -13  -6  332.79    5.13
   0  13  -6  331.20    8.66
   1  13   6  843.27   14.49
  -1 -13  -6  811.36    8.09
  -1  13  -6  792.07   13.44
   2  13   6   20.60    3.10
  -2 -13  -6   18.86    1.64
  -2  13  -6   19.17    2.76
  -2  13  -6   17.68    1.58
   3  13   6  206.22    7.58
  -3 -13  -6  208.65    4.49
  -3  13  -6  192.21    6.78
  -3  13  -6  222.55    5.27
  -4 -13  -6   68.18    2.85
   4  13   6   67.60    4.66
  -4  13  -6   64.96    4.25
  -4  13  -6   63.40    3.24
  -5 -13  -6   37.59    2.39
  -5  13  -6   36.39    3.55
   5  13   6   32.72    3.62
  -5  13  -6   38.60    3.02
  -6 -13  -6  222.80    5.41
  -6  13  -6  213.63    7.55
  -6  13  -6  232.89    6.62
   6  13   6  225.62    8.27
  -7 -13  -6  508.92    8.43
  -7  13  -6  480.62   11.27
  -7  13  -6  509.85   10.27
   7  13   6  514.69   12.60
   8  13   6  108.35    6.12
  -8 -13  -6  108.74    4.44
  -8  13  -6  110.32    5.94
  -8  13  -6  121.90    5.63
  -9 -13  -6   20.96    2.66
   9  13   6   17.30    3.12
  -9  13  -6   15.84    3.24
  -9  13  -6   21.53    3.17
  10  13   6   55.42    5.02
 -10 -13  -6   51.93    3.77
 -10  13  -6   58.26    4.95
 -10  13  -6   50.99    4.60
 -11 -13  -6   46.49    3.92
 -11  13  -6   35.58    4.41
  11  13   6   43.65    4.64
 -11  13  -6   41.58    4.46
 -12  13  -6    1.97    3.15
 -14  14   6   -0.88    5.50
 -13  14   6   13.44    6.60
 -12  14   6   12.53    5.91
 -11  14   6    7.85    5.65
 -10  14   6   26.61    6.62
  -9  14   6   27.73    6.50
  -8  14   6  198.45    5.44
  -8  14   6  185.33   12.31
   8  14  -6  181.44    8.73
   7  14  -6   17.43    3.62
  -7  14   6   13.28    5.29
  -7  14   6   24.32    2.42
  -6  14   6  491.22   20.14
   6  14  -6  460.82   12.97
  -5  14   6   62.50    8.37
  -5  14   6   62.62    3.77
   5  14  -6   59.44    4.80
  -4  14   6   10.63    5.08
  -4  14   6   11.54    2.23
   4  14  -6    9.09    2.81
   3 -14  -6  130.61    3.36
   3  14  -6  117.70    6.02
  -3  14   6  133.82    5.54
   2 -14  -6   41.63    2.03
   2  14  -6   39.65    3.68
  -2  14   6   57.07    3.95
   1 -14  -6   22.31    1.70
   1  14  -6   22.92    3.24
  -1  14   6   22.28    2.98
   0 -14  -6    6.62    1.33
   0  14   6    5.61    2.14
   0  14  -6    8.51    2.47
  -1 -14  -6    7.72    1.32
   1  14   6    9.27    2.46
  -1  14  -6    6.05    2.26
   2  14   6   40.52    3.73
  -2 -14  -6   26.80    1.86
  -2  14  -6   26.20    3.16
   3  14   6   19.44    3.26
  -3 -14  -6   12.28    1.59
  -3  14  -6   15.05    2.93
   4  14   6    7.99    2.49
  -4 -14  -6   10.84    1.60
  -4  14  -6   10.72    2.67
  -4  14  -6   10.42    1.89
   5  14   6    4.31    2.22
  -5 -14  -6    1.67    1.40
  -5  14  -6    0.21    2.07
  -5  14  -6    0.38    1.66
  -6 -14  -6   61.16    3.15
  -6  14  -6   61.94    4.51
   6  14   6   71.33    5.05
  -6  14  -6   56.26    3.82
  -7 -14  -6    3.27    1.73
  -7  14  -6    5.93    2.59
  -7  14  -6    7.67    2.42
   7  14   6    5.21    2.29
   8  14   6  141.40    7.05
  -8 -14  -6  117.01    4.58
  -8  14  -6  116.69    6.35
  -8  14  -6  113.88    5.69
   9  14   6   86.73    5.81
  -9 -14  -6   78.44    4.17
  -9  14  -6   73.47    5.48
  -9  14  -6   86.08    5.33
 -10 -14  -6   13.96    2.55
 -10  14  -6   11.21    3.26
  10  14   6   12.41    3.29
  11  14   6    0.38    2.90
 -11 -14  -6    3.26    2.38
 -11  14  -6    8.45    3.46
  12  14   6    1.53    2.81
 -12  14  -6   -1.30    3.37
 -14  15   6   28.04    7.41
 -13  15   6    1.52    5.70
 -12  15   6   90.78   10.35
 -11  15   6   48.63    8.38
 -10  15   6  414.34   18.90
  -9  15   6  284.67   15.83
  -8  15   6   73.18    9.00
   8  15  -6   72.49    6.15
  -8  15   6   75.93    3.71
   7  15  -6    6.86    3.51
  -7  15   6    6.35    5.45
  -7  15   6    7.49    1.88
  -6  15   6  542.13   21.38
   6  15  -6  550.63   14.51
  -5  15   6  126.63   10.97
  -5  15   6  139.18    5.62
   5  15  -6  126.15    7.03
  -4  15   6  168.96   12.33
  -4  15   6  182.75    6.62
   4  15  -6  176.19    8.00
   3 -15  -6 1430.60   10.71
   3  15  -6 1406.68   20.35
   2 -15  -6   32.38    1.90
   2  15  -6   31.28    3.79
  -2  15   6   33.40    3.38
   1 -15  -6   60.81    2.44
   1  15  -6   58.42    4.46
  -1  15   6   58.64    4.23
   0 -15  -6  285.16    4.96
   0  15  -6  286.19    9.13
   0  15   6  326.91    9.45
  -1 -15  -6  475.22    6.54
  -1  15  -6  462.61   11.09
   1  15   6  505.49   11.76
   2  15   6   20.63    3.09
  -2 -15  -6   22.83    1.82
  -2  15  -6   17.19    2.96
   3  15   6  579.04   12.95
  -3 -15  -6  591.54    7.71
  -3  15  -6  553.23   12.24
  -4 -15  -6    9.59    1.65
  -4  15  -6    7.79    2.65
   4  15   6   11.00    2.58
   5  15   6  228.32    8.55
  -5 -15  -6  213.92    5.20
  -5  15  -6  185.26    7.53
  -6 -15  -6   77.97    3.49
   6  15   6   88.32    5.63
  -6  15  -6   73.28    5.14
  -7 -15  -6  320.20    6.89
  -7  15  -6  304.17    9.75
   7  15   6  324.11   10.35
  -8 -15  -6   15.14    2.26
  -8  15  -6   18.60    3.66
   8  15   6   22.38    3.67
   9  15   6   86.99    5.97
  -9 -15  -6   90.26    4.43
  -9  15  -6   81.09    5.83
  10  15   6   16.90    3.51
 -10 -15  -6   14.81    2.72
 -10  15  -6   10.30    3.41
  11  15   6   35.35    4.59
 -11 -15  -6   39.84    3.85
 -11  15  -6   32.94    4.57
 -12  15  -6   11.70    3.88
 -14  16   6   22.15    7.45
 -13  16   6   33.40    8.04
 -12  16   6  215.42   15.09
 -11  16   6  114.75   11.47
 -10  16   6  138.91   12.11
  -9  16   6  173.21   13.11
  -8  16   6   99.31   10.50
   8  16  -6   97.11    7.12
  -8  16   6   98.54    4.38
   7  16  -6   50.06    5.40
  -7  16   6   55.59    8.10
  -6  16   6  171.59   13.04
   6  16  -6  154.00    8.62
  -5  16   6  269.10   15.53
  -5  16   6  320.82    8.55
   5  16  -6  275.20   10.48
  -4  16   6   98.22    5.06
   4  16  -6   93.61    6.21
   3 -16  -6  177.53    4.03
  -3  16   6  157.24    6.52
   3  16  -6  156.91    7.62
   2 -16  -6  136.20    3.57
  -2  16   6  155.79    6.56
   2  16  -6  132.30    6.77
   1 -16  -6   59.79    2.52
   1  16  -6   54.07    4.76
  -1  16   6   59.14    4.42
   0 -16  -6   89.74    2.98
   0  16  -6   81.47    5.48
   0  16   6  110.21    5.81
  -1 -16  -6   70.73    2.73
  -1  16  -6   72.25    5.25
   1  16   6   84.21    5.29
  -2 -16  -6  148.89    3.91
  -2  16  -6  141.79    6.70
   2  16   6  144.60    6.76
   3  16   6  144.08    6.76
  -3 -16  -6  151.73    4.07
  -3  16  -6  128.92    6.64
   4  16   6   27.37    3.71
  -4 -16  -6   22.29    2.00
  -4  16  -6   20.85    3.21
   5  16   6   41.74    4.23
  -5 -16  -6   31.23    2.31
  -5  16  -6   27.75    3.73
   6  16   6   10.02    2.94
  -6 -16  -6    9.73    1.94
  -6  16  -6    9.30    2.85
  -7 -16  -6  144.34    4.89
   7  16   6  157.42    7.45
  -7  16  -6  136.98    7.12
  -8 -16  -6  106.10    4.49
  -8  16  -6   92.45    6.24
   8  16   6  111.11    6.48
   9  16   6   50.94    4.90
  -9 -16  -6   53.32    3.72
  -9  16  -6   54.04    5.13
  10  16   6    6.45    3.06
 -10 -16  -6    4.04    2.24
 -10  16  -6    0.02    2.84
 -11 -16  -6   27.73    3.42
 -11  16  -6   22.64    4.38
  11  16   6   37.26    4.48
 -14  17   6  245.44   17.31
 -13  17   6   59.56    9.63
 -12  17   6   41.21    8.29
 -11  17   6  104.52   10.77
 -10  17   6    1.84    5.21
  -9  17   6  206.76   14.23
  -8  17   6   48.34    8.52
   8  17  -6   65.53    6.23
  -8  17   6   60.40    3.82
   7  17  -6  869.93   19.89
  -7  17   6  817.62   27.46
  -7  17   6  911.78   14.03
   6  17  -6    8.50    3.39
  -6  17   6    3.42    5.61
  -6  17   6    4.75    2.15
  -5  17   6   77.81    9.50
  -5  17   6   98.81    5.18
   5  17  -6   71.92    6.16
  -4  17   6   28.80    3.38
   4  17  -6   34.09    4.41
  -3  17   6   17.85    2.87
   3  17  -6   18.29    3.52
   2 -17  -6  542.73    6.95
  -2  17   6  562.34   12.59
   2  17  -6  524.83   13.30
   1 -17  -6  295.38    5.19
  -1  17   6  301.73    9.37
   1  17  -6  293.61   10.12
   0 -17  -6   60.00    2.60
   0  17  -6   62.61    5.02
   0  17   6   77.97    5.11
  -1 -17  -6  116.45    3.47
  -1  17  -6  107.32    6.23
   1  17   6  129.51    6.47
  -2 -17  -6  146.69    3.95
  -2  17  -6  146.10    7.20
   2  17   6  164.68    7.35
  -3 -17  -6   79.19    3.11
  -3  17  -6   72.33    5.56
   3  17   6   90.01    5.75
   4  17   6  256.43    9.35
  -4 -17  -6  254.82    5.47
  -4  17  -6  249.45    9.45
  -5 -17  -6  603.09    8.56
  -5  17  -6  557.66   13.62
   6  17   6   24.60    3.71
  -6 -17  -6   24.68    2.37
  -6  17  -6   24.12    3.81
  -7 -17  -6  282.47    6.74
   7  17   6  305.57   10.54
  -7  17  -6  255.14    9.78
  -8 -17  -6    3.54    1.97
   8  17   6    4.89    2.93
  -8  17  -6    4.89    3.19
  -9 -17  -6  279.73    7.34
  -9  17  -6  253.98   10.28
  10  17   6   23.63    4.03
 -10 -17  -6   22.01    3.07
 -10  17  -6   18.37    4.10
 -11  17  -6   88.20    7.03
  11  17   6  107.72    6.91
 -13  18   6    7.42    6.08
 -12  18   6    5.55    6.11
 -11  18   6   10.64    6.58
 -10  18   6    3.18    5.48
  -9  18   6    4.44    5.46
  -8  18   6   23.41    7.10
   8  18  -6   33.45    4.88
  -8  18   6   34.36    3.25
   7  18  -6  122.49    8.18
  -7  18   6  124.15   11.84
  -7  18   6  139.92    5.99
   6  18  -6   14.53    4.17
  -6  18   6   13.17    6.08
  -6  18   6   12.51    2.55
  -5  18   6   33.66    7.15
  -5  18   6   44.67    3.91
   5  18  -6   52.36    5.62
   4  18  -6    2.79    3.16
   4 -18  -6    3.52    1.21
  -4  18   6    2.77    2.45
   3 -18  -6   45.51    2.52
  -3  18   6   34.65    3.66
   3  18  -6   34.25    4.50
   2 -18  -6   53.32    2.53
  -2  18   6   52.42    4.48
   2  18  -6   53.59    5.24
   1 -18  -6  423.46    6.22
  -1  18   6  470.61   12.00
   1  18  -6  414.49   12.27
   0 -18  -6  208.85    4.51
   0  18   6  222.24    8.39
   0  18  -6  202.25    8.71
   1  18   6   16.43    3.00
  -1 -18  -6   19.56    1.78
  -1  18  -6   21.57    3.65
   2  18   6    7.87    2.58
  -2 -18  -6    2.78    1.27
  -2  18  -6    3.05    2.65
  -3 -18  -6    1.61    1.39
   3  18   6    2.82    2.57
  -3  18  -6   -1.59    2.78
  -4 -18  -6    8.03    1.75
   4  18   6   10.54    3.02
  -4  18  -6    8.69    3.20
  -5 -18  -6    8.97    1.83
   5  18   6   13.16    3.17
  -5  18  -6   13.04    3.68
  -6 -18  -6   13.75    2.11
  -6  18  -6    9.73    3.23
   6  18   6   12.36    3.21
   7  18   6   29.56    4.03
  -7 -18  -6   32.09    2.73
  -7  18  -6   27.13    4.52
  -8 -18  -6   17.25    2.55
   8  18   6   19.02    3.65
  -8  18  -6   16.49    3.87
  -9 -18  -6    8.22    2.42
  -9  18  -6    9.31    3.75
   9  18   6    7.49    3.10
  10  18   6   31.56    4.50
 -10 -18  -6   30.82    3.38
 -10  18  -6   29.57    4.86
 -11  18  -6    4.25    3.78
 -13  19   6    0.24    6.49
 -12  19   6  150.46   13.63
 -11  19   6   35.07    8.39
 -10  19   6  154.97   13.25
  -9  19   6    3.19    6.31
  -8  19   6  305.87   18.01
   8  19  -6  297.71   12.53
  -8  19   6  337.80    9.10
   7  19  -6  524.72   16.84
  -7  19   6  506.70   22.74
   6  19  -6   60.40    6.40
  -6  19   6   64.77    9.30
  -6  19   6   68.06    4.69
   5  19  -6   16.04    4.46
  -5  19   6   18.87    5.99
  -5  19   6   26.73    3.38
   4  19  -6   19.92    4.39
   4 -19  -6   16.87    1.70
  -4  19   6   13.24    2.85
   3 -19  -6   45.12    2.40
  -3  19   6   47.24    4.27
   3  19  -6   37.61    4.98
   2 -19  -6  409.95    6.38
  -2  19   6  428.53   11.58
   2  19  -6  389.65   12.81
   1 -19  -6   39.27    2.26
  -1  19   6   48.51    4.57
   1  19  -6   40.40    4.71
   0  19   6    5.63    2.51
   0 -19  -6    6.18    1.40
   0  19  -6    6.90    3.27
  -1 -19  -6   50.03    2.52
   1  19   6   51.20    4.71
  -1  19  -6   49.33    4.95
  -2 -19  -6   25.30    2.07
   2  19   6   25.62    3.72
  -2  19  -6   26.06    4.02
  -3 -19  -6   44.66    2.58
  -3  19  -6   41.77    4.84
   3  19   6   51.92    4.90
  -4 -19  -6   70.79    3.25
  -4  19  -6   57.49    5.28
   4  19   6   72.40    5.53
   5  19   6  605.01   14.68
  -5 -19  -6  580.92    8.80
  -5  19  -6  546.61   14.69
  -6 -19  -6   15.07    2.20
  -6  19  -6   12.37    3.56
   6  19   6   18.30    3.88
   7  19   6  177.62    8.45
  -7 -19  -6  163.81    5.25
  -7  19  -6  163.96    8.90
   8  19   6    5.88    3.25
  -8 -19  -6    6.21    2.14
  -8  19  -6    3.56    3.49
  -9 -19  -6  152.75    5.71
  -9  19  -6  141.73    8.54
   9  19   6  165.48    8.32
  10  19   6   -1.23    3.14
 -10 -19  -6   -0.56    2.29
 -10  19  -6    5.00    3.90
 -12  20   6  215.44   16.34
 -11  20   6   33.84    8.62
 -10  20   6  182.70   15.09
  -9  20   6  122.66   12.98
  -8  20   6   17.60    7.63
   8  20  -6    8.78    3.82
  -8  20   6   17.99    2.95
   7  20  -6   46.74    6.10
  -7  20   6   50.95    8.77
  -7  20   6   65.72    4.80
   6  20  -6  336.34   13.79
  -6  20   6  317.56   18.50
  -6  20   6  363.20   10.41
  -5  20   6  232.68   15.80
  -5  20   6  235.39    8.65
   5  20  -6  212.45   11.08
  -4  20   6  313.90   10.15
   4 -20  -6  291.83    5.45
   4  20  -6  270.50   12.11
   3 -20  -6  155.85    4.12
  -3  20   6  153.88    7.27
   3  20  -6  140.63    8.58
   2 -20  -6  284.12    5.39
  -2  20   6  285.69    9.83
   2  20  -6  268.47   11.32
   1 -20  -6    4.27    1.37
   1  20  -6    0.65    3.04
  -1  20   6   -0.72    2.66
   0 -20  -6   22.29    1.99
   0  20   6   23.51    3.64
   0  20  -6   15.58    3.71
  -1 -20  -6  101.34    3.48
   1  20   6  103.90    6.51
  -1  20  -6   91.97    6.70
  -2 -20  -6   32.57    2.31
   2  20   6   42.55    4.74
  -2  20  -6   31.67    4.51
   3  20   6   19.04    3.32
  -3 -20  -6   19.32    2.00
  -3  20  -6   15.85    3.73
  -4 -20  -6  119.53    4.12
  -4  20  -6  119.63    7.55
   4  20   6  122.42    7.09
  -5 -20  -6    4.67    1.86
   5  20   6    8.08    3.01
  -5  20  -6    5.18    3.37
   6  20   6   44.80    4.97
  -6 -20  -6   38.50    2.89
  -6  20  -6   32.71    4.98
   7  20   6   30.28    4.33
  -7 -20  -6   29.76    2.79
  -7  20  -6   25.40    4.48
   8  20   6    2.01    2.80
  -8 -20  -6    3.76    2.01
  -8  20  -6    4.39    3.29
  -9 -20  -6   89.17    4.59
   9  20   6   94.85    6.70
  -9  20  -6   81.88    7.13
 -10  20  -6   49.75    5.99
  10  20   6   56.94    5.53
 -12  21   6  114.38   13.18
 -11  21   6   15.81    7.36
 -10  21   6  537.32   25.41
  -9  21   6  263.54   17.79
  -8  21   6   23.64    7.48
   8  21  -6   34.75    5.71
  -8  21   6   33.70    3.70
   7  21  -6   35.36    6.05
  -7  21   6   24.64    7.89
  -7  21   6   38.53    4.02
   6  21  -6  603.17   18.79
  -6  21   6  569.68   24.64
  -6  21   6  649.02   14.10
   5  21  -6  242.68   12.16
  -5  21   6  249.94   16.74
  -5  21   6  289.61    9.75
   4  21  -6   24.64    5.09
   4 -21  -6   19.99    1.89
  -4  21   6   15.34    3.15
   3 -21  -6  528.17    7.47
  -3  21   6  565.91   13.95
   3  21  -6  495.79   15.87
   2 -21  -6   12.43    1.70
  -2  21   6   20.76    3.46
   2  21  -6   18.61    4.62
   1 -21  -6   34.69    2.28
  -1  21   6   40.73    4.48
   1  21  -6   32.76    4.90
   0 -21  -6  360.42    6.23
   0  21   6  360.48   11.43
   0  21  -6  373.66   13.32
  -1 -21  -6  631.60    8.29
   1  21   6  653.33   15.56
  -1  21  -6  605.83   16.40
   2  21   6    2.25    2.53
  -2 -21  -6    2.16    1.44
  -2  21  -6    4.30    3.24
  -3 -21  -6  145.87    4.38
  -3  21  -6  135.70    8.32
   4  21   6    9.96    3.16
  -4 -21  -6   10.78    1.91
  -4  21  -6   12.14    3.80
  -5 -21  -6   48.82    2.97
  -5  21  -6   47.62    5.50
   5  21   6   56.75    5.38
   6  21   6   29.03    4.15
  -6 -21  -6   31.87    2.73
  -6  21  -6   28.98    4.95
  -7 -21  -6   87.84    4.19
   7  21   6   95.70    6.71
  -7  21  -6   75.66    6.60
   8  21   6   88.31    6.53
  -8 -21  -6   72.90    4.07
  -8  21  -6   68.17    6.71
  -9 -21  -6    6.01    2.30
   9  21   6    2.87    2.88
  -9  21  -6    6.26    3.96
 -12  22   6   10.99    7.38
 -11  22   6   65.86   10.74
 -10  22   6   12.69    8.36
  -9  22   6    9.08    6.81
  -8  22   6   16.56    6.90
   8  22  -6   32.79    5.70
  -7  22   6    3.98    6.92
   7  22  -6   -0.77    3.94
  -7  22   6    1.95    2.39
   6  22  -6  135.19    9.61
  -6  22   6  114.76   12.61
  -6  22   6  121.87    6.63
   5  22  -6  129.39    9.47
  -5  22   6  165.05    7.70
   4 -22  -6   83.80    3.24
  -4  22   6   87.19    5.91
   4  22  -6   78.89    7.53
   3  22  -6   15.20    4.53
   3 -22  -6   14.79    1.82
  -3  22   6   20.63    3.76
   2  22  -6   14.89    4.40
   2 -22  -6   10.26    1.65
  -2  22   6    6.29    2.79
   1 -22  -6    3.90    1.54
  -1  22   6    4.49    2.88
   1  22  -6    9.35    3.82
   0 -22  -6   10.35    1.63
   0  22   6   10.61    3.16
   0  22  -6   14.01    4.03
  -1 -22  -6    9.25    1.74
  -1  22  -6   12.13    4.13
   1  22   6    9.40    3.17
  -2 -22  -6   92.01    3.54
   2  22   6  103.70    6.87
  -2  22  -6   99.66    7.34
   3  22   6    8.93    3.25
  -3 -22  -6    7.90    1.77
  -3  22  -6    8.08    3.58
   4  22   6   17.45    3.92
  -4 -22  -6   10.57    1.92
  -4  22  -6   12.33    3.73
  -5 -22  -6   25.61    2.49
  -5  22  -6   29.84    5.03
   5  22   6   36.90    4.74
   6  22   6   56.41    5.53
  -6 -22  -6   51.69    3.30
  -6  22  -6   43.66    5.38
  -7 -22  -6    9.13    2.26
   7  22   6    8.14    3.51
   8  22   6   55.26    5.67
  -8 -22  -6   48.90    3.58
  -8  22  -6   50.21    6.26
   9  22   6   15.52    4.23
  -9 -22  -6   13.77    2.80
  -9  22  -6   13.25    4.63
 -11  23   6   -2.73    7.53
 -10  23   6   58.29   10.55
  -9  23   6  218.56   17.07
  -8  23   6    5.78    7.03
   8  23  -6    3.67    4.07
  -7  23   6    7.57    7.03
   7  23  -6    6.09    4.37
  -7  23   6    6.90    2.71
   6  23  -6   54.64    6.73
  -6  23   6   56.14   10.17
  -6  23   6   51.00    4.92
   5  23  -6   32.08    5.78
   5 -23  -6   32.77    2.32
  -5  23   6   46.17    4.70
  -4  23   6  142.36    7.66
   4 -23  -6  141.47    4.17
   4  23  -6  129.92    9.78
   3 -23  -6  107.94    3.68
  -3  23   6  113.46    6.98
   3  23  -6   99.94    8.40
   2 -23  -6   95.23    3.44
  -2  23   6   95.61    6.46
   2  23  -6   91.36    7.97
   1 -23  -6    7.08    1.63
  -1  23   6    4.95    3.01
   1  23  -6    9.90    4.39
   0 -23  -6   98.36    3.60
   0  23   6   95.00    6.62
   0  23  -6   96.71    7.93
  -1 -23  -6  180.79    4.72
   1  23   6  173.32    8.75
  -1  23  -6  177.23   10.01
   2  23   6   26.28    4.16
  -2 -23  -6   30.45    2.33
  -2  23  -6   30.53    5.29
  -3 -23  -6  292.86    6.18
   3  23   6  332.34   11.89
  -3  23  -6  278.86   12.33
   4  23   6   13.95    3.54
  -4 -23  -6   12.74    2.09
  -4  23  -6    8.09    3.77
   5  23   6    4.18    2.84
  -5 -23  -6    6.84    1.86
  -5  23  -6    7.43    4.09
   6  23   6   72.20    6.30
  -6 -23  -6   59.61    3.51
  -6  23  -6   57.07    6.61
  -7 -23  -6  190.70    5.97
  -7  23  -6  169.10   10.25
  -8 -23  -6    8.73    2.32
  -8  23  -6   10.85    4.38
   8  23   6   14.86    4.22
 -11  24   6  258.44   19.94
 -10  24   6  224.38   18.04
  -9  24   6  105.51   13.03
  -8  24   6  -13.99    7.82
   8  24  -6    2.07    4.08
  -7  24   6    5.70    6.55
   7  24  -6   12.72    4.72
  -7  24   6   14.88    3.48
   6  24  -6   62.74    7.77
  -6  24   6   90.57   11.79
  -6  24   6   77.21    5.82
   5  24  -6  244.17   13.40
   5 -24  -6  249.08    5.57
  -5  24   6  262.97   10.30
   4  24  -6  189.51   11.80
   4 -24  -6  200.63    5.04
  -4  24   6  189.37    8.93
   3  24  -6   11.38    4.46
   3 -24  -6    6.42    1.61
  -3  24   6    4.95    2.96
   2 -24  -6   77.54    3.19
  -2  24   6   93.64    6.52
   2  24  -6   75.20    7.84
   1 -24  -6    2.94    1.47
  -1  24   6    4.67    2.92
   0 -24  -6   10.15    1.74
   0  24   6   10.02    3.44
   0  24  -6   15.06    4.75
  -1 -24  -6  152.25    4.49
  -1  24  -6  139.13    9.65
  -2 -24  -6  399.53    7.16
   2  24   6  441.80   13.88
  -2  24  -6  388.33   14.77
  -3 -24  -6   99.88    3.85
   3  24   6   95.27    6.87
  -3  24  -6  102.97    8.39
   4  24   6    6.41    3.43
  -4 -24  -6    3.13    1.68
   5  24   6   11.98    3.82
  -5 -24  -6    7.75    1.99
  -5  24  -6    5.93    4.14
  -6 -24  -6    3.74    1.97
   6  24   6    6.71    3.32
  -6  24  -6   13.00    4.60
  -7 -24  -6   11.99    2.46
   7  24   6   18.88    4.40
  -7  24  -6   17.24    4.95
   8  24   6   67.39    6.52
  -8 -24  -6   63.11    4.14
  -8  24  -6   61.97    7.15
 -10  25   6   19.81    8.44
  -9  25   6   26.19    8.65
  -8  25   6  304.44   20.76
  -7  25   6   26.39    7.90
  -7  25   6   31.61    4.22
   7  25  -6   25.74    5.74
  -6  25   6   42.43    9.64
  -6  25   6   39.20    4.58
   6  25  -6   35.64    6.72
  -5  25   6  105.73    6.90
   5 -25  -6   85.49    3.57
   4  25  -6   20.76    5.25
   4 -25  -6   15.75    2.02
  -4  25   6   12.78    3.78
   3  25  -6    4.93    4.35
   3 -25  -6    2.21    1.58
  -3  25   6    7.93    3.25
   2 -25  -6  199.39    4.99
  -2  25   6  205.58    9.63
   2  25  -6  183.90   11.36
   1 -25  -6  264.87    5.78
  -1  25   6  294.32   11.40
   1  25  -6  258.76   13.55
   0  25  -6   -2.94    4.14
   0 -25  -6    1.12    1.47
   0  25   6    0.79    3.13
  -1 -25  -6    5.31    1.64
   1  25   6   -0.29    3.24
  -1  25  -6    2.98    3.91
  -2 -25  -6    5.45    1.75
   2  25   6    8.13    3.86
  -2  25  -6    8.59    4.66
  -3 -25  -6   29.78    2.62
   3  25   6   39.69    4.95
  -3  25  -6   36.08    5.87
   4  25   6   26.66    4.53
  -4 -25  -6   27.68    2.58
  -4  25  -6   26.13    5.76
  -5 -25  -6  208.48    5.88
  -5  25  -6  207.04   11.77
   5  25   6  239.17   10.90
  -6 -25  -6   36.48    3.18
  -6  25  -6   33.63    6.13
  -7 -25  -6    4.71    2.35
   7  25   6    5.36    3.65
  -7  25  -6    7.32    4.50
  -9  26   6   33.74   10.05
  -8  26   6   14.31    7.86
  -7  26   6   22.98    7.79
   7  26  -6   21.49    5.95
  -7  26   6   24.68    4.13
   6  26  -6    2.75    4.45
  -6  26   6    0.00    2.92
   5  26  -6  184.38   12.39
   5 -26  -6  177.12    4.84
  -5  26   6  179.91    9.07
   4  26  -6   11.03    5.50
   4 -26  -6   10.57    1.94
  -4  26   6   13.02    3.83
   3  26  -6  142.78   10.71
   3 -26  -6  150.02    4.59
  -3  26   6  147.82    8.45
   2 -26  -6  103.79    3.83
  -2  26   6  109.39    7.53
   2  26  -6  101.75    9.32
   1  26  -6    1.58    4.25
   1 -26  -6    5.10    1.70
  -1  26   6    2.04    2.94
   0 -26  -6  141.74    4.48
   0  26   6  139.39    8.42
   0  26  -6  129.33    9.85
  -1  26  -6   18.34    5.20
  -1 -26  -6   14.42    2.12
   1  26   6   10.64    4.04
  -2 -26  -6   89.10    3.85
   2  26   6   94.21    7.28
  -2  26  -6   87.34    8.21
   3  26   6   14.03    4.03
  -3 -26  -6    8.98    1.92
  -3  26  -6    6.79    4.41
  -4 -26  -6  114.76    4.47
   4  26   6  128.48    8.41
  -4  26  -6  120.36    9.42
   5  26   6    7.21    3.41
  -5 -26  -6    5.15    1.88
  -5  26  -6    1.99    4.73
  -6 -26  -6   24.51    2.78
   6  26   6   35.10    4.95
  -6  26  -6   23.21    5.74
  -7  26  -6    9.99    5.21
  -9  27   6    3.36    8.01
  -8  27   6   95.20   13.51
  -7  27   6   10.81    7.36
   7  27  -6   17.23    5.96
  -7  27   6   14.67    3.77
   6 -27  -6   16.34    2.14
   6  27  -6   11.67    5.41
  -6  27   6   19.57    4.03
   5  27  -6  247.97   14.57
   5 -27  -6  257.73    5.97
  -5  27   6  281.40   11.43
   4  27  -6    2.32    4.96
   4 -27  -6   -1.39    1.57
  -4  27   6    4.15    3.10
   3  27  -6    6.50    5.20
   3 -27  -6    2.37    1.66
  -3  27   6    7.07    3.29
   2  27  -6   25.00    6.26
   2 -27  -6   37.54    2.58
  -2  27   6   31.28    4.85
   1 -27  -6  273.02    6.07
  -1  27   6  284.87   11.77
   1  27  -6  257.07   14.24
   0  27  -6    2.72    4.64
   0 -27  -6    2.58    1.70
   0  27   6    5.35    3.58
  -1  27  -6   31.61    6.41
  -1 -27  -6   31.80    2.57
   1  27   6   32.15    4.93
  -2  27  -6    5.83    4.83
  -2 -27  -6    4.15    1.85
   2  27   6   14.07    3.78
   3  27   6    2.55    3.52
  -3 -27  -6    2.31    1.82
  -3  27  -6    4.11    4.45
  -4 -27  -6   73.69    3.80
   4  27   6   68.62    6.55
  -4  27  -6   69.39    8.16
  -5 -27  -6  115.24    4.67
   5  27   6  149.34    9.06
  -5  27  -6  135.45   10.75
  -6 -27  -6   43.20    3.45
  -6  27  -6   43.67    7.07
   6  27   6   54.77    6.13
  -8  28   6   34.05   10.47
  -7  28   6   72.31   12.40
  -7  28   6   64.79    6.23
   7  28  -6   54.73    7.82
   6  28  -6  110.59   10.68
  -6  28   6  113.28    7.86
   6 -28  -6  126.55    4.43
   5 -28  -6   34.05    2.66
   5  28  -6   36.78    7.40
  -5  28   6   24.39    4.30
   4  28  -6    7.81    5.61
   4 -28  -6    6.33    1.76
  -4  28   6   12.45    4.28
   3  28  -6  317.33   16.47
   3 -28  -6  323.31    6.71
  -3  28   6  307.98   12.46
   2  28  -6   65.77    8.53
   2 -28  -6   71.87    3.48
  -2  28   6   60.80    6.22
   1  28  -6   37.55    7.23
   1 -28  -6   42.46    2.90
  -1  28   6   42.13    5.37
   0 -28  -6  203.64    5.40
   0  28   6  223.47   10.91
   0  28  -6  175.29   12.40
  -1  28  -6   13.19    5.65
  -1 -28  -6    5.51    1.87
   1  28   6   10.48    4.09
  -2  28  -6    6.32    4.93
  -2 -28  -6    0.95    1.72
   2  28   6    1.39    3.65
  -3 -28  -6   88.23    4.04
   3  28   6   96.62    7.60
  -3  28  -6   90.86    9.19
  -4 -28  -6  137.57    4.93
   4  28   6  134.92    8.81
  -4  28  -6  134.82   10.74
   5  28   6   10.99    4.25
  -5 -28  -6   10.92    2.29
  -5  28  -6   10.75    5.11
   7  29  -6   12.31    6.22
  -7  29   6    3.03    3.32
  -6  29   6   46.75    5.71
   6  29  -6   63.42    8.51
   6 -29  -6   63.39    3.39
   5  29  -6  103.96   10.40
  -5  29   6   88.86    7.31
   5 -29  -6  109.65    4.26
   4 -29  -6   19.01    2.28
   4  29  -6   11.72    5.51
  -4  29   6   19.46    4.33
   3  29  -6   20.78    6.11
   3 -29  -6   22.13    2.42
  -3  29   6   24.96    4.48
   2  29  -6    8.97    5.84
   2 -29  -6    6.94    1.97
  -2  29   6    6.35    3.52
   1 -29  -6   41.05    2.92
  -1  29   6   44.14    5.72
   1  29  -6   60.26    8.50
   0 -29  -6   36.77    2.74
   0  29   6   31.97    5.21
   0  29  -6   45.75    8.03
  -1 -29  -6   68.97    3.61
   1  29   6   81.51    7.56
  -1  29  -6   60.99    8.29
  -2  29  -6    4.07    5.15
  -2 -29  -6    8.04    2.08
   2  29   6   11.70    4.25
  -3  29  -6   28.46    6.41
  -3 -29  -6   27.58    2.73
   3  29   6   39.77    5.55
  -4  29  -6   10.69    5.37
   4  29   6    8.67    3.82
  -4 -29  -6    8.36    2.26
   7  30  -6   24.33    6.62
   6 -30  -6    6.38    2.05
   6  30  -6    9.26    5.80
  -6  30   6   -0.69    3.63
   5  30  -6   63.72    8.68
  -5  30   6   62.61    6.38
   5 -30  -6   67.14    3.55
   4  30  -6  188.05   13.56
  -4  30   6  170.72    9.88
   4 -30  -6  166.16    5.18
   3  30  -6   21.54    6.51
   3 -30  -6   21.67    2.33
  -3  30   6   13.69    4.02
   2  30  -6   54.77    8.52
   2 -30  -6   61.03    3.36
  -2  30   6   51.12    6.22
   1  30  -6  132.70   11.83
   1 -30  -6  130.36    4.60
  -1  30   6  116.24    8.52
   0 -30  -6  124.03    4.46
   0  30   6  115.29    8.50
   0  30  -6  117.85   11.33
  -1  30  -6   37.09    7.34
  -1 -30  -6   31.88    2.85
   1  30   6   32.27    5.80
  -2 -30  -6   94.05    4.14
   2  30   6   89.51    7.77
  -2  30  -6  104.19   10.19
  -3  30  -6   -1.88    5.03
  -3 -30  -6    2.77    2.09
   3  30   6    3.57    3.73
   7  31  -6   28.28    7.15
   6  31  -6   17.10    6.45
  -6  31   6   17.59    4.40
   5 -31  -6    7.35    2.09
   5  31  -6    5.64    6.03
  -5  31   6    9.44    4.02
   4 -31  -6    0.19    1.91
  -4  31   6    3.24    3.52
   4  31  -6   -3.12    5.74
   3  31  -6   -0.18    5.45
   3 -31  -6    2.76    2.00
  -3  31   6    6.57    4.09
   2  31  -6    8.74    6.46
   2 -31  -6    2.94    1.87
  -2  31   6    2.06    3.93
   1  31  -6   22.62    7.05
   1 -31  -6   25.76    2.58
  -1  31   6   19.63    5.10
   0  31  -6   33.96    7.88
   0 -31  -6   35.89    2.89
   0  31   6   41.78    5.88
  -1  31  -6   30.78    7.75
  -1 -31  -6   19.57    2.60
   1  31   6   20.53    4.86
  -2  31  -6    1.98    5.38
  -2 -31  -6   -1.15    1.98
   2  31   6    0.48    3.68
   7  32  -6   23.06    6.89
   6  32  -6   -1.22    5.88
  -6  32   6    6.50    3.90
  -5  32   6  174.96   10.33
   5  32  -6  188.99   13.81
   4  32  -6  110.23   11.69
  -4  32   6  101.19    8.22
   3  32  -6   23.01    7.09
  -3  32   6   21.82    5.03
   2  32  -6   37.85    7.98
   2 -32  -6   32.40    2.83
  -2  32   6   23.00    4.89
   1  32  -6    6.00    6.39
   1 -32  -6   -0.01    1.89
  -1  32   6    2.60    3.84
   0  32  -6   13.52    6.84
   0  32   6   12.08    4.33
   1  32   6   69.11    7.57
   6  33  -6    1.69    5.53
  -6  33   6    7.09    4.20
   5  33  -6   11.20    6.21
  -5  33   6    1.93    3.47
   4  33  -6   -1.41    6.43
  -4  33   6    3.59    3.59
   3  33  -6   16.83    6.93
  -3  33   6    2.50    3.90
  -2  33   6   -0.47    4.00
  -1  33   6   15.04    4.60
  -5  34   6    9.91    4.45
  -4  34   6   44.69    6.50
 -15   0   7   -5.69    5.06
 -14   0   7   -0.54    4.20
 -13   0   7    1.52    3.94
 -12   0   7    5.61    4.02
 -11   0   7    4.76    3.73
 -10   0   7    3.89    3.31
  -9   0   7    9.83    4.25
  -8   0   7    4.24    3.71
  -7   0   7   10.53    4.02
   7   0  -7   17.27    1.74
  -6   0   7    3.48    3.49
   6   0  -7    9.37    1.49
   5   0  -7    1.19    1.05
   4   0  -7   12.67    1.08
   4   0  -7   19.59    1.88
   3   0  -7   24.88    1.41
   3   0  -7   47.37    2.70
   2   0  -7    6.13    0.96
   2   0  -7    7.97    1.60
   1   0  -7   14.35    1.91
   1   0  -7   13.02    1.31
   0   0  -7    1.82    1.40
   0   0  -7    1.00    0.80
  -1   0  -7    1.23    1.51
  -1   0  -7    0.77    0.91
  -2   0  -7   21.42    2.42
  -2   0  -7   11.86    1.38
  -3   0  -7   73.73    3.82
  -3   0  -7   43.26    2.39
  -4   0  -7   21.56    2.61
  -4   0  -7   10.33    1.68
  -5   0  -7    3.29    1.65
  -5   0  -7    2.26    1.31
  -6   0  -7   -1.39    1.73
  -6   0  -7    2.03    1.48
  -7   0  -7    2.26    1.88
  -7   0  -7   -2.10    1.63
  -8   0  -7    2.97    1.90
  -8   0  -7    1.50    1.78
  -9   0  -7    5.40    2.44
  -9   0  -7    6.49    2.18
 -10   0  -7    2.30    2.36
 -10   0  -7    1.45    2.29
 -11   0  -7    7.41    2.69
 -11   0  -7    7.94    2.70
 -12   0  -7   -0.67    2.44
 -12   0  -7   -0.52    2.65
 -16   1   7   29.31    6.56
 -15  -1   7   88.26    8.71
 -15   1   7  107.62    9.74
 -14  -1   7  138.33    9.70
 -14   1   7  151.37   10.54
 -13  -1   7  173.14   10.38
 -13   1   7  173.91   10.81
 -12  -1   7    3.29    3.90
 -12   1   7    2.09    3.89
 -11  -1   7    6.27    3.79
 -11   1   7   14.04    4.58
 -10  -1   7  255.32   11.29
 -10   1   7  250.97   12.03
  -9  -1   7  436.92   14.82
  -9   1   7  444.45   15.64
  -8  -1   7  112.24    7.69
  -8   1   7  115.81    8.24
  -7  -1   7  547.32   15.95
  -7   1   7  577.80   17.26
   7  -1  -7  621.50    7.16
   7   1  -7  614.20    7.81
  -6   1   7  190.72   10.15
  -6  -1   7  189.02    9.62
   6  -1  -7  234.68    4.56
   6   1  -7  242.82    4.91
   5   1  -7   35.40    1.44
   5  -1  -7   36.26    2.02
   5   1  -7   36.39    2.14
   4  -1  -7  396.17    4.36
   4   1  -7  405.03    4.16
   4  -1  -7  369.88    5.70
   4   1  -7  377.91    6.26
   3  -1  -7 1310.24    7.77
   3   1  -7 1291.76    7.17
   3  -1  -7 1280.59   10.88
   3   1  -7 1248.54   11.42
   2  -1  -7  124.22    3.63
   2  -1  -7  121.50    2.48
   2   1  -7  121.64    2.34
   2   1  -7  122.15    3.76
   1  -1  -7  221.86    4.87
   1   1  -7  207.02    4.82
   1  -1  -7  224.80    3.42
   1   1  -7  224.24    3.26
   0  -1  -7    7.94    1.82
   0   1  -7    4.93    1.48
   0  -1  -7    4.35    0.93
   0   1  -7    3.94    0.89
  -1  -1  -7  116.49    4.20
  -1   1  -7   29.05    2.35
  -1  -1  -7   98.21    2.77
  -1   1  -7   31.58    1.65
  -2  -1  -7  227.79    5.46
  -2   1  -7  234.46    5.77
  -2  -1  -7  226.77    4.11
  -2   1  -7  239.33    4.09
  -3  -1  -7 1361.78   13.32
  -3   1  -7 1385.14   13.87
  -3  -1  -7 1342.40   10.41
  -3   1  -7 1420.88   10.74
  -4  -1  -7  370.39    7.28
  -4   1  -7  349.91    7.26
  -4  -1  -7  355.50    5.88
  -4   1  -7  347.68    5.84
  -5  -1  -7   68.13    3.56
  -5   1  -7   64.50    3.57
  -5  -1  -7   64.25    2.92
  -5   1  -7   65.34    3.01
  -6  -1  -7   17.08    2.28
  -6   1  -7   24.62    2.60
  -6  -1  -7   26.52    2.35
  -6   1  -7   26.63    2.32
  -7  -1  -7   27.31    2.73
  -7   1  -7   21.59    2.54
  -7  -1  -7   25.71    2.45
  -7   1  -7   24.30    2.37
  -8  -1  -7    5.77    2.32
  -8   1  -7    1.94    1.95
  -8  -1  -7    4.26    1.84
  -8   1  -7    2.17    1.78
  -9  -1  -7  206.43    6.62
  -9   1  -7  204.70    6.78
  -9  -1  -7  211.02    6.62
  -9   1  -7  216.71    6.68
 -10  -1  -7   74.03    4.41
 -10   1  -7   83.80    4.86
 -10  -1  -7   81.83    4.67
 -10   1  -7   85.01    4.78
 -11  -1  -7   16.99    2.97
 -11   1  -7   16.26    2.98
 -11  -1  -7   14.65    3.14
 -11   1  -7   15.74    3.02
 -12  -1  -7    6.40    2.56
 -12   1  -7   10.50    2.90
 -12  -1  -7   10.64    3.02
 -12   1  -7    8.38    3.03
 -16   2   7    5.79    5.51
 -15   2   7  222.35   13.16
 -14  -2   7  235.23   12.15
 -14   2   7  206.74   12.53
 -13  -2   7   66.31    6.99
 -13   2   7   78.59    8.10
 -12  -2   7   11.46    4.27
 -12   2   7    9.59    4.36
 -11  -2   7   -0.70    3.38
 -11   2   7    3.06    3.85
 -10  -2   7   21.26    4.35
 -10   2   7   32.54    5.43
  -9  -2   7  275.89   11.53
  -9   2   7  277.79   12.69
  -8  -2   7  375.15   12.85
  -8   2   7  316.03   13.03
  -7  -2   7  607.35   16.36
  -7   2   7  558.07   17.39
   7  -2  -7  639.21    6.97
   7   2  -7  620.42    8.38
  -6   2   7  984.11   22.94
  -6  -2   7  993.28   20.32
   6   2  -7 1067.65   10.66
   5   2  -7   11.52    0.95
   5  -2  -7   12.41    1.37
   5   2  -7   16.72    1.75
   4  -2  -7   29.86    1.46
   4   2  -7   30.32    1.29
   4  -2  -7   30.23    1.98
   4   2  -7   29.18    2.24
   3  -2  -7  141.48    2.74
   3  -2  -7  143.84    3.72
   3   2  -7  149.95    2.46
   3   2  -7  157.05    4.42
   2  -2  -7  453.75    6.62
   2  -2  -7  449.93    4.75
   2   2  -7  446.91    4.17
   2   2  -7  426.09    7.01
   1  -2  -7  451.39    6.75
   1  -2  -7  464.62    5.00
   1   2  -7  437.43    7.22
   1   2  -7  456.17    4.42
   0  -2  -7  245.00    5.19
   0   2  -7  230.79    5.36
   0  -2  -7  245.65    3.77
   0   2  -7  248.16    3.51
  -1  -2  -7  297.29    5.97
  -1   2  -7  287.98    6.03
  -1  -2  -7  295.10    4.38
  -1   2  -7  287.75    4.11
  -2  -2  -7   37.08    2.57
  -2   2  -7   35.31    2.52
  -2  -2  -7   35.12    1.87
  -2   2  -7   36.63    1.82
  -3  -2  -7   32.97    2.80
  -3   2  -7   40.26    2.97
  -3  -2  -7   26.86    2.05
  -3   2  -7   24.11    1.87
  -4  -2  -7  137.48    4.52
  -4   2  -7  130.54    4.57
  -4  -2  -7  139.72    3.73
  -4   2  -7  134.85    3.78
  -5  -2  -7  149.16    4.91
  -5   2  -7  139.97    4.99
  -5  -2  -7  147.68    4.19
  -5   2  -7  141.33    4.20
  -6  -2  -7   37.31    2.88
  -6   2  -7   43.76    3.16
  -6  -2  -7   46.81    2.74
  -6   2  -7   45.04    2.78
  -7  -2  -7   14.83    2.36
  -7   2  -7   16.18    2.45
  -7  -2  -7   14.16    2.09
  -7   2  -7   16.19    2.29
  -8  -2  -7   53.80    3.60
  -8   2  -7   53.33    3.70
  -8  -2  -7   48.85    3.32
  -8   2  -7   51.59    3.38
  -9  -2  -7    6.20    2.30
  -9   2  -7    0.01    2.10
  -9  -2  -7    0.82    1.97
  -9   2  -7    1.99    2.03
 -10  -2  -7   57.74    4.04
 -10   2  -7   54.58    4.19
 -10  -2  -7   50.72    3.85
 -10   2  -7   47.19    3.96
 -11  -2  -7   57.23    4.12
 -11   2  -7   59.03    4.52
 -11  -2  -7   55.72    4.26
 -11   2  -7   62.85    4.64
 -12  -2  -7    8.18    2.89
 -12   2  -7    1.00    2.55
 -12  -2  -7    5.08    2.76
 -12   2  -7   11.34    3.34
 -16   3   7   55.69    8.26
 -15   3   7  234.98   14.00
 -14   3   7   41.16    6.91
 -13  -3   7    0.12    3.57
 -13   3   7   -0.91    4.56
 -12  -3   7  271.98   11.92
 -12   3   7  326.73   14.79
 -11   3   7  257.80   12.74
 -11  -3   7  235.51   10.64
 -10  -3   7    5.79    3.65
 -10   3   7    9.26    4.24
  -9  -3   7   21.08    4.21
  -9   3   7   14.40    4.76
  -8  -3   7   75.88    6.17
  -8   3   7   77.02    7.30
  -7  -3   7   86.45    6.62
  -7   3   7   95.02    8.19
   7  -3  -7   93.95    2.73
   7   3  -7   97.44    3.81
  -6   3   7  121.53    8.97
  -6  -3   7  106.26    6.86
   6  -3  -7  133.18    3.28
   6   3  -7  132.07    4.10
  -5   3   7  365.49   14.22
   5   3  -7  428.65    4.01
   5  -3  -7  423.31    5.83
   5   3  -7  421.40    7.12
   4  -3  -7  192.10    3.35
   4   3  -7  189.01    2.59
   4  -3  -7  188.92    4.09
   4   3  -7  181.00    4.73
   3  -3  -7   32.62    2.07
   3  -3  -7   27.02    1.50
   3   3  -7   26.95    1.18
   3   3  -7   26.60    2.18
   2  -3  -7  262.22    5.10
   2  -3  -7  259.67    3.79
   2   3  -7  259.61    3.08
   2   3  -7  246.00    5.52
   1  -3  -7  680.60    8.22
   1  -3  -7  687.09    6.19
   1   3  -7  661.33    9.02
   1   3  -7  666.99    5.14
   0  -3  -7  180.19    4.54
   0  -3  -7  174.17    3.35
   0   3  -7  163.50    4.78
   0   3  -7  172.07    2.99
  -1  -3  -7  492.95    7.47
  -1   3  -7  483.38    8.08
  -1  -3  -7  483.26    5.60
  -1   3  -7  466.26    5.12
  -2  -3  -7   71.65    3.21
  -2   3  -7   65.39    3.35
  -2  -3  -7   69.84    2.44
  -2   3  -7   66.72    2.30
  -3  -3  -7   56.09    3.08
  -3   3  -7   51.03    3.13
  -3  -3  -7   54.74    2.42
  -3   3  -7   54.34    2.31
  -4  -3  -7   26.84    2.41
  -4   3  -7   25.42    2.50
  -4  -3  -7   29.04    2.03
  -4   3  -7   27.78    1.99
  -5  -3  -7  506.08    8.67
  -5   3  -7  470.79    8.99
  -5  -3  -7  511.40    7.46
  -5   3  -7  490.13    7.51
  -6  -3  -7   69.56    3.53
  -6   3  -7   81.92    4.13
  -6  -3  -7   79.06    3.38
  -6   3  -7   81.34    3.58
  -7  -3  -7  203.53    5.94
  -7   3  -7  202.52    6.42
  -7  -3  -7  206.14    5.68
  -7   3  -7  215.41    5.91
  -8  -3  -7   80.45    4.12
  -8   3  -7   77.72    4.52
  -8  -3  -7   76.52    3.94
  -8   3  -7   81.97    4.14
  -9  -3  -7   11.91    2.48
  -9   3  -7   12.50    2.57
  -9  -3  -7   15.32    2.54
  -9   3  -7   12.09    2.39
 -10  -3  -7    5.70    2.33
 -10   3  -7    3.63    2.61
 -10  -3  -7    3.62    2.27
 -10   3  -7    2.86    2.42
 -11  -3  -7  128.23    5.68
 -11   3  -7  118.06    5.85
 -11  -3  -7  123.03    5.94
 -11   3  -7  120.49    6.03
 -12  -3  -7   40.35    3.70
 -12   3  -7   42.58    4.30
 -12  -3  -7   38.68    4.12
 -12   3  -7   40.73    4.35
 -16   4   7   12.10    6.14
 -15   4   7   14.54    5.91
 -14   4   7    2.52    4.48
 -13  -4   7    0.22    3.79
 -13   4   7   -2.02    4.67
 -12  -4   7   21.38    4.32
 -12   4   7   16.84    5.06
 -11  -4   7    2.60    3.38
 -11   4   7   -2.63    4.35
 -10  -4   7    0.10    3.28
 -10   4   7   10.05    4.83
  -9  -4   7   21.99    4.34
  -9   4   7   26.23    5.14
  -8  -4   7    5.17    2.88
  -8   4   7   -0.45    4.02
  -7  -4   7   38.05    4.73
  -7   4   7   45.51    6.12
   7  -4  -7   38.75    1.87
   7   4  -7   51.19    3.06
  -6   4   7   44.10    6.42
  -6  -4   7   62.76    5.40
   6  -4  -7   56.32    2.21
   6   4  -7   59.62    3.10
  -5   4   7    4.89    3.69
   5   4  -7    6.50    0.81
   5  -4  -7    9.93    1.40
   5   4  -7    9.27    1.83
   4  -4  -7  582.70    5.80
   4  -4  -7  584.53    6.90
   4   4  -7  589.10    4.16
   4   4  -7  573.37    8.40
   3  -4  -7  597.37    7.19
   3  -4  -7  590.26    5.73
   3   4  -7  620.02    4.29
   3   4  -7  557.80    8.37
   2  -4  -7  180.34    4.14
   2  -4  -7  168.02    3.18
   2   4  -7  181.79    2.45
   2   4  -7  173.34    4.78
   1  -4  -7   62.24    2.75
   1  -4  -7   57.25    2.03
   1   4  -7   56.00    3.05
   1   4  -7   57.37    1.58
   0  -4  -7  505.84    7.20
   0  -4  -7  501.62    5.56
   0   4  -7  524.76    8.96
   0   4  -7  495.07    4.77
  -1  -4  -7   29.63    2.45
  -1  -4  -7   16.61    1.50
  -1   4  -7   20.62    2.45
  -1   4  -7   15.59    1.32
  -2  -4  -7   24.93    2.10
  -2   4  -7   24.23    2.39
  -2  -4  -7   25.08    1.72
  -2   4  -7   22.01    1.54
  -3  -4  -7   11.01    1.87
  -3  -4  -7   10.75    1.43
  -3   4  -7    9.16    1.90
  -3   4  -7    8.60    1.30
  -4  -4  -7  109.81    3.99
  -4   4  -7  102.60    4.33
  -4  -4  -7  106.31    3.32
  -4   4  -7   98.52    3.22
  -5  -4  -7   14.39    2.43
  -5   4  -7    7.54    2.15
  -5  -4  -7   11.22    1.75
  -5   4  -7    6.05    1.75
  -6  -4  -7   20.14    2.44
  -6   4  -7   15.79    2.52
  -6  -4  -7   19.46    2.21
  -6   4  -7   19.46    2.09
  -7  -4  -7   61.42    3.65
  -7   4  -7   54.14    3.83
  -7  -4  -7   58.19    3.35
  -7   4  -7   60.54    3.48
  -8  -4  -7   10.12    2.34
  -8   4  -7   12.36    2.78
  -8  -4  -7   10.74    2.14
  -8   4  -7    8.46    2.18
  -9  -4  -7    1.43    1.93
  -9   4  -7   -3.65    2.39
  -9  -4  -7    2.46    2.16
  -9   4  -7    1.28    1.98
 -10  -4  -7   11.98    2.42
 -10   4  -7   14.79    2.92
 -10  -4  -7   11.60    2.54
 -10   4  -7    9.83    2.51
 -11  -4  -7    7.53    2.67
 -11   4  -7    7.83    2.91
 -11  -4  -7    3.61    2.43
 -11   4  -7    4.94    2.79
 -12  -4  -7    8.42    2.81
 -12   4  -7    5.46    2.91
 -12  -4  -7    1.92    2.70
 -12   4  -7    3.34    2.71
 -16   5   7   -2.55    5.52
 -15   5   7  271.13   15.19
 -14   5   7   10.48    5.41
 -13   5   7   -0.05    4.61
 -12  -5   7  260.04   11.22
 -12   5   7  283.89   14.32
 -11   5   7  284.84   14.09
 -11  -5   7  260.71   10.83
 -10  -5   7    6.60    3.39
 -10   5   7    5.58    4.49
  -9  -5   7   53.67    5.34
  -9   5   7   73.61    7.73
  -8  -5   7  217.54    9.19
  -8   5   7  228.42   11.99
  -7  -5   7  467.37   13.05
  -7   5   7  470.98   17.17
   7  -5  -7  486.40    5.57
   7   5  -7  471.15    8.80
  -6   5   7  487.61   17.65
  -6  -5   7  544.24   13.09
   6  -5  -7  571.88    6.37
   6   5  -7  558.32    9.14
  -5   5   7  664.07   19.81
   5   5  -7  737.32    4.64
   5  -5  -7  702.47    7.32
   5   5  -7  694.77    9.77
   4  -5  -7  145.69    3.56
   4  -5  -7  133.40    2.96
   4   5  -7  136.97    1.93
   4   5  -7  133.35    4.37
   3  -5  -7   12.20    1.41
   3  -5  -7   12.44    1.20
   3   5  -7   10.28    0.73
   3   5  -7   10.72    1.86
   2  -5  -7    4.22    0.91
   2   5  -7    4.07    0.59
   2   5  -7    4.47    1.49
   1  -5  -7   55.87    2.01
  -1   5   7   50.77    3.32
   1   5  -7   53.49    3.04
   1   5  -7   58.08    1.53
   0  -5  -7   15.23    1.48
   0   5   7    8.14    2.09
   0   5  -7   19.61    2.37
   0   5  -7   16.27    1.18
   1   5   7  837.22   13.10
  -1  -5  -7  832.11    7.61
  -1   5  -7  829.69   11.05
  -1   5  -7  816.18    6.78
   2   5   7  166.95    6.14
  -2  -5  -7  147.91    3.48
  -2   5  -7  143.66    4.95
  -2   5  -7  132.37    3.13
  -3   5  -7  104.61    4.50
  -3  -5  -7  106.91    3.24
  -3   5  -7  105.50    3.09
  -4   5  -7    5.58    1.95
  -4  -5  -7    4.48    1.41
  -4   5  -7    6.02    1.40
  -5   5  -7  295.20    7.55
  -5  -5  -7  294.84    6.55
  -5  -5  -7  301.26    5.87
  -5   5  -7  290.98    5.95
  -6  -5  -7   26.87    2.68
  -6   5  -7   22.39    2.83
  -6  -5  -7   20.71    2.21
  -6   5  -7   21.19    2.28
  -7  -5  -7  193.93    5.83
  -7   5  -7  179.62    6.34
  -7  -5  -7  173.56    5.19
  -7   5  -7  186.35    5.61
  -8  -5  -7  179.01    5.83
  -8   5  -7  170.84    6.36
  -8  -5  -7  181.12    5.80
  -8   5  -7  178.21    6.02
  -9  -5  -7    8.60    2.20
  -9   5  -7    3.00    2.29
  -9  -5  -7    5.97    2.21
  -9   5  -7    5.30    2.25
 -10  -5  -7    3.55    2.14
 -10   5  -7    0.58    2.40
 -10  -5  -7    2.82    2.15
 -10   5  -7    1.70    2.35
 -11  -5  -7   26.59    3.15
 -11   5  -7   24.97    3.51
 -11  -5  -7   24.39    3.40
 -11   5  -7   21.15    3.29
 -12  -5  -7   85.15    5.36
 -12   5  -7   83.86    5.65
 -16   6   7  166.61   12.93
 -15   6   7   40.36    7.36
 -14   6   7  275.69   15.14
 -13   6   7  133.95   11.13
 -12   6   7   78.01    8.54
 -11   6   7   20.06    5.72
 -10   6   7  131.48   10.24
 -10  -6   7  125.19    7.49
  -9  -6   7   10.05    3.21
  -9   6   7    2.32    4.00
  -8  -6   7  120.53    6.85
  -8   6   7  122.60    9.49
  -7   6   7 1491.45   31.06
  -7  -6   7 1562.53   22.74
   7  -6  -7 1627.40   10.09
   7   6  -7 1588.90   16.89
  -6   6   7  606.74   19.82
   6  -6  -7  655.51    6.80
   6   6  -7  642.61   10.42
  -5   6   7   18.03    5.19
   5  -6  -7   22.24    1.63
   5   6  -7   20.15    0.85
   5   6  -7   17.93    2.22
   4  -6  -7  334.18    4.63
   4   6  -7  324.25    2.66
   4   6  -7  331.65    7.01
  -3   6   7   23.07    2.46
   3  -6  -7   25.35    1.55
   3   6  -7   19.61    0.77
   3   6  -7   21.16    2.21
   2  -6  -7   29.36    1.56
   2   6  -7   24.33    0.90
   2   6  -7   24.39    2.28
  -2   6   7   34.51    2.74
   1  -6  -7  220.60    3.83
   1   6  -7  198.61    5.58
  -1   6   7  229.97    6.50
   1   6  -7  198.97    2.63
   0  -6  -7  782.64    7.26
   0   6   7  765.23   12.17
   0   6  -7  721.01   10.45
   0   6  -7  772.73    5.84
  -1  -6  -7  176.51    3.72
  -1   6  -7  169.08    5.33
   1   6   7  176.81    6.14
  -1   6  -7  169.51    3.15
  -2  -6  -7   28.22    1.82
  -2   6  -7   26.88    2.56
  -2   6  -7   27.66    1.66
   2   6   7   21.80    2.83
  -3   6  -7   88.41    4.23
  -3  -6  -7  103.88    3.25
  -3   6  -7  102.42    3.17
   3   6   7   90.35    4.86
  -4  -6  -7    4.13    1.33
  -4   6  -7    4.61    1.85
   4   6   7    3.00    2.15
  -4   6  -7    2.33    1.18
  -5   6  -7   25.79    2.90
  -5  -6  -7   23.60    2.04
  -5   6  -7   25.47    2.21
  -6  -6  -7  237.21    6.17
  -6   6  -7  230.67    6.96
  -6  -6  -7  234.65    5.55
  -6   6  -7  240.51    5.86
  -7  -6  -7  183.09    5.75
  -7   6  -7  166.53    6.19
  -7  -6  -7  173.55    5.15
  -7   6  -7  184.57    5.76
  -8  -6  -7   32.10    3.07
  -8   6  -7   28.13    3.35
  -8  -6  -7   29.01    2.78
  -8   6  -7   24.82    2.75
  -9  -6  -7   18.25    2.60
  -9   6  -7   12.77    2.92
  -9  -6  -7   15.89    2.54
  -9   6  -7   11.47    2.52
 -10  -6  -7    4.13    2.50
 -10   6  -7    2.04    2.48
 -10  -6  -7    5.24    2.43
 -10   6  -7    2.26    2.21
 -11  -6  -7    5.65    2.49
 -11   6  -7    4.28    2.67
 -11  -6  -7    0.80    2.33
 -11   6  -7    6.27    2.72
 -12  -6  -7   77.67    5.31
 -12   6  -7   66.07    5.15
 -15   7   7   38.21    7.89
 -14   7   7  125.48   11.14
 -13   7   7  113.85   10.25
 -12   7   7    4.64    4.82
 -11   7   7   15.87    5.49
 -10   7   7  216.28   12.62
  -9  -7   7   47.11    4.87
  -9   7   7   50.17    6.99
  -8  -7   7   15.01    3.22
  -8   7   7   17.66    5.26
  -7   7   7  451.61   17.90
  -7  -7   7  422.95   11.32
   7  -7  -7  431.64    5.24
   7   7  -7  444.07    9.60
  -6   7   7   12.55    4.38
   6  -7  -7   18.77    1.40
   6   7  -7   17.50    2.42
  -5   7   7    7.98    4.76
   5   7  -7    6.06    1.85
   4  -7  -7   45.04    1.93
  -4   7   7   47.12    3.01
   4   7  -7   41.30    3.00
  -3   7   7  584.26    9.79
   3  -7  -7  546.61    6.02
   3   7  -7  520.96    9.03
   2  -7  -7    9.25    1.19
   2   7  -7    8.99    1.91
  -2   7   7   15.18    2.13
   1  -7  -7  170.33    3.44
   1   7  -7  162.98    5.23
   1   7  -7  141.78    2.11
  -1   7   7  171.84    5.82
   0  -7  -7   22.17    1.56
   0   7  -7   20.32    2.39
   0   7  -7   20.42    1.12
   0   7   7   22.94    2.62
  -1  -7  -7   49.58    2.15
  -1   7  -7   48.60    3.20
  -1   7  -7   48.42    1.85
   1   7   7   59.65    3.84
   2   7   7   95.92    4.90
  -2  -7  -7   95.60    2.95
  -2   7  -7   87.15    4.19
  -2   7  -7  102.85    2.83
   3   7   7  486.05   10.78
  -3  -7  -7  480.55    6.64
  -3   7  -7  444.29    9.02
  -3   7  -7  491.61    6.59
  -4  -7  -7   57.45    2.66
  -4   7  -7   54.60    3.64
  -4   7  -7   55.57    2.62
   4   7   7   56.44    4.16
   5   7   7   72.99    4.79
  -5   7  -7   66.91    4.12
  -5  -7  -7   69.96    3.11
  -5   7  -7   70.90    3.22
  -6   7  -7   22.53    2.87
  -6  -7  -7   18.58    2.06
  -6   7  -7   18.88    2.30
   6   7   7   20.14    3.26
  -7  -7  -7  185.76    5.68
  -7   7  -7  185.13    6.68
  -7  -7  -7  184.37    5.34
  -7   7  -7  183.69    5.73
  -8  -7  -7   33.92    3.08
  -8   7  -7   29.97    3.38
  -8  -7  -7   31.11    2.80
  -8   7  -7   29.51    3.00
  -9  -7  -7  125.71    5.15
  -9   7  -7  105.66    5.57
  -9  -7  -7  119.02    5.04
  -9   7  -7  109.06    5.13
 -10  -7  -7  183.14    6.35
 -10   7  -7  170.73    7.21
 -10  -7  -7  172.54    6.39
 -10   7  -7  166.71    6.63
 -11  -7  -7   26.36    3.33
 -11   7  -7   21.63    3.61
 -11  -7  -7   22.75    3.31
 -11   7  -7   20.88    3.31
 -12   7  -7    3.60    2.97
 -15   8   7   49.28    8.27
 -14   8   7   19.61    6.29
 -13   8   7   22.47    6.16
 -12   8   7   19.29    6.48
 -11   8   7   -5.34    5.00
 -10   8   7   12.28    5.47
  -9   8   7   41.17    6.85
  -8   8   7   86.76    8.79
  -7   8   7    4.08    4.47
   7  -8  -7    4.84    1.02
   7   8  -7    2.62    1.99
  -6   8   7  149.79    4.56
  -6   8   7  131.00   10.36
   6   8  -7  144.22    5.67
  -5   8   7   29.29    5.65
  -5   8   7   29.94    2.45
   5   8  -7   32.06    2.91
   4  -8  -7   66.65    2.27
   4   8  -7   62.54    3.63
  -4   8   7   81.81    3.75
   3  -8  -7   16.48    1.42
   3   8  -7   16.63    2.32
  -3   8   7   18.34    2.33
   2  -8  -7   13.49    1.29
  -2   8   7   10.51    2.10
   2   8  -7   11.25    1.89
   1  -8  -7    7.85    1.21
  -1   8   7   11.87    2.11
   1   8  -7    8.84    1.92
   0  -8  -7   54.21    2.20
   0   8  -7   47.53    3.23
   0   8   7   53.12    3.60
  -1  -8  -7    2.99    1.05
  -1   8  -7    1.51    1.65
   1   8   7    4.22    2.07
  -1   8  -7    4.05    0.85
  -2  -8  -7  154.02    3.75
  -2   8  -7  145.74    5.38
  -2   8  -7  157.93    3.48
   2   8   7  155.21    6.10
  -3  -8  -7    3.12    1.27
  -3   8  -7    5.99    2.16
  -3   8  -7    2.95    1.30
   3   8   7    5.01    2.18
   4   8   7  114.75    5.62
  -4  -8  -7  108.50    3.55
  -4   8  -7  106.19    4.93
  -4   8  -7  112.80    3.66
   5   8   7   10.94    2.73
  -5  -8  -7    8.84    1.71
  -5   8  -7    6.64    2.10
  -5   8  -7   12.28    1.82
  -6   8  -7  148.14    5.93
  -6  -8  -7  146.99    4.55
  -6   8  -7  137.61    4.73
   6   8   7  158.57    6.88
   7   8   7   13.72    2.89
  -7  -8  -7    9.31    1.99
  -7   8  -7   10.38    2.61
  -7   8  -7    7.93    2.02
  -8  -8  -7   86.14    4.25
  -8   8  -7   69.90    4.62
  -8  -8  -7   80.27    4.01
  -8   8  -7   80.65    4.34
  -9  -8  -7   55.49    3.96
  -9   8  -7   39.40    4.09
  -9  -8  -7   37.05    3.27
  -9   8  -7   41.45    3.70
 -10  -8  -7   42.79    3.67
 -10   8  -7   35.24    4.13
 -10  -8  -7   38.01    3.49
 -10   8  -7   34.23    3.72
 -11  -8  -7   85.70    4.65
 -11   8  -7   91.15    5.88
 -11  -8  -7   79.33    4.83
 -11   8  -7   81.13    5.27
 -15   9   7  121.10   12.10
 -14   9   7   23.58    6.75
 -13   9   7  222.96   14.29
 -12   9   7    2.52    5.10
 -11   9   7    8.37    4.96
 -10   9   7  219.28   13.29
  -9   9   7   57.63    7.85
  -8   9   7  117.74   10.49
  -7   9   7   71.95    8.46
   7   9  -7   71.67    4.62
  -6   9   7    7.69    1.67
  -6   9   7    4.08    4.70
   6   9  -7    1.87    1.92
  -5   9   7   32.00    6.11
  -5   9   7   31.92    2.48
   5   9  -7   28.88    3.01
   4  -9  -7    9.46    1.21
  -4   9   7    4.56    1.68
   4   9  -7    5.86    2.05
   3  -9  -7  461.57    5.78
  -3   9   7  508.43    9.41
   3   9  -7  453.08    9.23
   2  -9  -7   11.51    1.35
   2   9  -7    8.02    2.07
  -2   9   7    9.17    1.91
  -1   9   7  185.68    6.30
   1  -9  -7  170.75    3.64
   1   9  -7  169.76    5.74
   0   9   7    5.65    1.92
   0  -9  -7    4.52    1.18
   0   9  -7    7.83    2.05
   1   9   7   19.85    2.82
  -1  -9  -7   18.19    1.58
  -1   9  -7   16.95    2.42
  -2  -9  -7  124.67    3.46
   2   9   7  119.29    5.58
  -2   9  -7  119.01    5.03
  -3  -9  -7  277.99    5.23
  -3   9  -7  265.57    7.46
   3   9   7  280.71    8.37
  -3   9  -7  261.51    4.97
  -4  -9  -7   96.26    3.35
  -4   9  -7   91.04    4.60
  -4   9  -7   85.45    3.29
   4   9   7  105.23    5.49
   5   9   7    8.45    2.55
  -5  -9  -7   12.19    1.83
  -5   9  -7   16.67    2.77
  -5   9  -7   13.50    1.91
   6   9   7   36.98    3.84
  -6  -9  -7   30.83    2.44
  -6   9  -7   28.57    3.24
  -6   9  -7   24.68    2.44
  -7  -9  -7   -0.92    1.67
  -7   9  -7   -0.22    2.14
  -7   9  -7    3.56    1.85
   7   9   7    1.59    2.35
  -8   9  -7   56.48    4.44
  -8  -9  -7   61.32    3.58
  -8   9  -7   67.58    4.19
   8   9   7   63.37    4.90
  -9  -9  -7  407.03    8.75
  -9   9  -7  377.15   10.41
  -9  -9  -7  384.50    8.66
  -9   9  -7  349.72    9.08
 -10  -9  -7  103.98    4.99
 -10   9  -7  104.87    6.09
 -10  -9  -7   99.33    5.15
 -11  -9  -7   19.79    3.03
 -11   9  -7   17.64    3.75
 -11  -9  -7   15.51    3.03
 -15  10   7   32.75    7.83
 -14  10   7  169.28   13.34
 -13  10   7    2.91    5.25
 -12  10   7   31.01    7.06
 -11  10   7   46.31    7.76
 -10  10   7   10.28    5.15
  -9  10   7  308.08   15.47
  -8  10   7  640.94   22.59
  -7  10   7   25.73    2.20
  -7  10   7   18.13    5.46
   7  10  -7   17.54    3.05
  -6  10   7  329.85   16.47
  -6  10   7  397.38    7.53
   6  10  -7  365.24    9.65
  -5  10   7  154.34   11.14
  -5  10   7  185.89    5.47
   5  10  -7  172.25    6.47
  -4  10   7   68.51    3.79
   4 -10  -7   59.82    2.33
   4  10  -7   58.70    4.00
   3 -10  -7   90.14    2.72
   3  10  -7   88.57    4.49
  -3  10   7  104.69    4.59
   2 -10  -7 1145.31    9.18
   2  10  -7 1145.92   14.83
  -2  10   7 1228.77   15.47
   1 -10  -7  351.93    5.23
   1  10  -7  343.09    8.19
  -1  10   7  366.17    8.86
   0  10   7  129.79    5.53
   0 -10  -7  118.83    3.21
   0  10  -7  111.34    4.94
   1  10   7   57.36    3.96
  -1 -10  -7   50.02    2.28
  -1  10  -7   43.70    3.37
   2  10   7  263.01    8.10
  -2 -10  -7  247.51    4.77
  -2  10  -7  242.98    7.31
   3  10   7   59.22    4.32
  -3 -10  -7   48.36    2.40
  -3  10  -7   46.18    3.49
  -4 -10  -7  291.33    5.70
  -4  10  -7  274.26    7.97
   4  10   7  306.82    9.20
  -5 -10  -7  247.86    5.54
  -5  10  -7  246.51    7.69
   5  10   7  257.75    8.54
   6  10   7   63.35    4.86
  -6 -10  -7   61.52    3.22
  -6  10  -7   60.19    4.25
   7  10   7  129.69    6.64
  -7 -10  -7  114.14    4.38
  -7  10  -7  113.13    5.68
   8  10   7  305.93   10.10
  -8 -10  -7  279.44    7.06
  -8  10  -7  260.83    8.52
  -9  10  -7   88.70    5.71
  -9 -10  -7   88.69    4.51
 -10 -10  -7   65.08    4.16
 -10  10  -7   59.78    5.00
 -10 -10  -7   62.05    4.21
 -11 -10  -7   31.98    3.46
 -11  10  -7   26.82    4.08
 -11 -10  -7   30.28    3.60
 -15  11   7    2.91    5.71
 -14  11   7    1.88    5.73
 -13  11   7   -2.10    5.49
 -12  11   7  113.12   11.07
 -11  11   7  254.94   15.14
 -10  11   7   51.03    8.03
  -9  11   7    0.55    4.68
  -8  11   7  117.66   10.93
  -7  11   7   59.98    8.54
  -7  11   7   76.15    3.40
   7  11  -7   64.55    5.04
  -6  11   7   27.72    2.50
  -6  11   7   26.05    6.51
   6  11  -7   23.05    3.37
  -5  11   7  489.49   19.86
   5  11  -7  531.47   11.78
   4 -11  -7   18.44    1.61
   4  11  -7   14.76    2.53
  -4  11   7   20.00    2.46
   3 -11  -7    6.62    1.24
   3  11  -7    6.70    2.31
  -3  11   7    9.20    2.01
   2 -11  -7  394.20    5.59
   2  11  -7  391.30    9.33
  -2  11   7  383.83    8.94
   1 -11  -7  331.20    5.19
   1  11  -7  317.68    8.30
  -1  11   7  338.25    8.73
   0 -11  -7   80.63    2.73
   0  11  -7   77.97    4.37
   0  11   7   90.10    4.73
  -1 -11  -7  257.09    4.77
  -1  11  -7  248.79    7.50
   1  11   7  273.08    8.23
  -2 -11  -7   24.46    1.88
  -2  11  -7   21.89    2.91
   2  11   7   26.90    3.25
   3  11   7   37.24    3.76
  -3 -11  -7   32.14    2.13
  -3  11  -7   30.20    3.08
   4  11   7   49.66    4.24
  -4 -11  -7   43.00    2.51
  -4  11  -7   40.59    3.60
  -5 -11  -7  185.71    4.93
  -5  11  -7  177.96    6.95
   5  11   7  191.57    7.66
  -6 -11  -7    3.29    1.68
  -6  11  -7    1.77    2.29
   6  11   7    2.15    2.25
   7  11   7   52.41    4.75
  -7 -11  -7   48.64    3.16
  -7  11  -7   45.34    4.26
  -8 -11  -7   14.29    2.43
  -8  11  -7   10.46    2.89
   8  11   7   18.77    3.46
   9  11   7   13.40    3.49
  -9 -11  -7    8.88    2.34
  -9  11  -7    4.52    2.67
 -10 -11  -7   18.48    2.97
 -10  11  -7   15.10    3.60
 -11 -11  -7   66.37    4.31
 -11 -11  -7   60.59    4.55
 -11  11  -7   66.43    5.59
 -14  12   7   35.61    8.01
 -13  12   7  147.03   13.15
 -12  12   7   26.67    7.05
 -11  12   7   91.25   10.03
 -10  12   7   69.07    8.82
  -9  12   7  164.12   12.66
  -8  12   7  209.03   13.98
  -7  12   7   28.48    2.35
  -7  12   7   34.07    7.03
   7  12  -7   24.50    3.68
  -6  12   7  143.70   11.45
  -6  12   7  175.00    5.41
   6  12  -7  174.42    7.53
  -5  12   7   52.45    7.81
  -5  12   7   57.33    3.43
   5  12  -7   52.92    4.35
   4 -12  -7  606.46    7.05
  -4  12   7  646.80   11.01
   4  12  -7  601.12   12.56
   3 -12  -7  210.98    4.20
  -3  12   7  230.59    7.01
   3  12  -7  211.11    7.63
   2 -12  -7 1055.24    9.18
   2  12  -7 1030.25   15.75
   1 -12  -7  122.95    3.33
  -1  12   7  126.06    5.57
   1  12  -7  118.86    5.52
   0 -12  -7  176.87    3.99
   0  12  -7  165.35    6.40
   0  12   7  181.83    6.79
  -1 -12  -7    8.90    1.45
  -1  12  -7    8.20    2.45
   1  12   7   10.41    2.44
  -2 -12  -7  216.66    4.71
  -2  12  -7  192.53    6.93
   2  12   7  219.05    7.56
   3  12   7    6.75    2.48
  -3 -12  -7    3.25    1.37
  -3  12  -7    3.03    2.25
   4  12   7   76.17    5.06
  -4 -12  -7   75.99    3.12
  -4  12  -7   72.05    4.74
   5  12   7   36.49    3.92
  -5 -12  -7   28.61    2.34
  -5  12  -7   26.45    3.49
  -6 -12  -7  389.72    7.50
  -6  12  -7  388.67   10.39
   6  12   7  414.22   11.40
  -7 -12  -7   25.97    2.62
  -7  12  -7   21.81    3.53
   7  12   7   26.73    3.82
   8  12   7   35.44    4.36
  -8 -12  -7   35.98    3.09
  -8  12  -7   26.38    3.76
  -9 -12  -7    8.14    2.30
  -9  12  -7   10.74    3.27
   9  12   7    6.98    2.79
 -10 -12  -7   43.04    3.79
 -10  12  -7   33.48    4.36
  10  12   7   41.71    4.76
 -14  13   7  106.00   12.13
 -13  13   7    7.25    5.81
 -12  13   7   49.94    8.52
 -11  13   7  170.13   13.31
 -10  13   7   19.89    6.24
  -9  13   7   25.51    7.25
  -8  13   7    2.03    5.09
  -7  13   7   74.23    9.17
  -7  13   7   86.84    3.83
   7  13  -7   88.43    6.13
  -6  13   7  132.23   11.10
  -6  13   7  148.69    5.22
   6  13  -7  128.13    6.80
  -5  13   7  154.98    5.62
   5  13  -7  118.56    6.40
   4 -13  -7   31.10    1.94
  -4  13   7   45.20    3.41
   4  13  -7   32.09    3.76
   3 -13  -7   26.09    1.81
  -3  13   7   34.15    3.16
   3  13  -7   24.63    3.30
   2 -13  -7   49.42    2.30
  -2  13   7   49.18    3.83
   2  13  -7   44.25    4.05
   1 -13  -7   83.56    2.85
  -1  13   7   96.25    5.05
   1  13  -7   88.57    5.10
   0  13   7    1.31    1.99
   0 -13  -7    4.43    1.29
   0  13  -7   -0.66    2.14
  -1 -13  -7   14.97    1.63
   1  13   7   10.75    2.54
  -1  13  -7   11.50    2.56
  -2 -13  -7  110.20    3.50
  -2  13  -7  106.64    5.40
   2  13   7  134.10    6.16
  -3 -13  -7  103.06    3.49
  -3  13  -7   92.07    5.15
   3  13   7  112.27    5.88
  -4 -13  -7   21.10    2.03
  -4  13  -7   20.70    3.08
   4  13   7   19.80    3.27
   5  13   7   83.80    5.54
  -5 -13  -7   78.30    3.40
  -5  13  -7   78.65    5.10
   6  13   7   68.81    5.04
  -6 -13  -7   63.36    3.39
  -6  13  -7   62.50    4.77
  -7 -13  -7   14.61    2.25
  -7  13  -7   17.53    3.50
   7  13   7   19.26    3.46
  -8 -13  -7   26.39    2.83
  -8  13  -7   27.49    3.74
   8  13   7   35.51    4.23
   9  13   7    3.19    2.70
  -9 -13  -7    2.53    2.11
  -9  13  -7    0.72    2.67
  10  13   7    1.82    2.89
 -10 -13  -7   -1.67    2.31
 -10  13  -7    1.64    3.18
 -14  14   7   12.46    6.10
 -13  14   7  285.24   17.68
 -12  14   7  105.73   11.57
 -11  14   7   89.16   10.51
 -10  14   7  221.45   15.22
  -9  14   7    2.24    5.49
  -8  14   7    9.37    5.83
  -7  14   7  180.84   13.86
  -7  14   7  186.11    5.66
   7  14  -7  164.53    8.47
  -6  14   7  305.17   17.05
  -6  14   7  361.78    8.27
   6  14  -7  353.40   11.53
  -5  14   7   31.53    2.98
   5  14  -7   32.00    4.03
   4 -14  -7   86.74    2.96
  -4  14   7   97.06    4.79
   4  14  -7   83.39    5.55
   3 -14  -7    4.65    1.25
   3  14  -7    6.08    2.69
  -3  14   7    4.98    1.97
   2 -14  -7    7.97    1.42
   2  14  -7    7.94    2.73
  -2  14   7    1.98    1.93
   1 -14  -7  300.33    5.27
  -1  14   7  328.48    9.15
   1  14  -7  293.27    9.17
   0 -14  -7  386.60    5.99
   0  14   7  412.22   10.42
   0  14  -7  347.68    9.90
   1  14   7    3.49    2.27
  -1 -14  -7    1.08    1.19
  -1  14  -7    5.23    2.46
  -2 -14  -7  202.04    4.62
   2  14   7  214.01    8.04
  -2  14  -7  193.25    7.51
  -3 -14  -7   18.97    1.93
   3  14   7   22.77    3.19
  -3  14  -7   16.75    2.96
  -4 -14  -7   91.13    3.59
  -4  14  -7   93.01    5.48
   4  14   7   89.16    5.47
   5  14   7    3.63    2.73
  -5 -14  -7    1.67    1.59
  -5  14  -7    3.51    2.67
   6  14   7  481.94   12.85
  -6 -14  -7  450.59    8.08
  -6  14  -7  431.28   11.43
   7  14   7  255.83    9.51
  -7 -14  -7  234.10    6.31
  -7  14  -7  233.23    8.86
  -8 -14  -7   88.82    4.35
  -8  14  -7   83.96    5.77
   8  14   7   83.44    6.01
   9  14   7  161.31    8.00
  -9 -14  -7  156.41    5.88
  -9  14  -7  153.85    7.86
 -10 -14  -7   38.53    3.66
 -10  14  -7   42.59    5.01
  10  14   7   37.87    4.65
 -13  15   7   61.54    9.96
 -12  15   7   94.71   10.94
 -11  15   7   46.59    8.37
 -10  15   7   -0.71    6.06
  -9  15   7   38.45    8.53
  -8  15   7    6.45    6.02
  -7  15   7    8.41    2.03
   7  15  -7   14.20    3.85
  -7  15   7    6.75    6.18
   6  15  -7   16.74    3.62
  -6  15   7   20.47    6.62
  -6  15   7   17.49    2.45
  -5  15   7  128.54    5.56
   5  15  -7  116.91    6.94
  -4  15   7  362.11    9.53
   4 -15  -7  340.57    5.67
   4  15  -7  333.00   10.67
   3 -15  -7    9.43    1.43
  -3  15   7   11.25    2.68
   3  15  -7   12.49    3.22
  -2  15   7  174.42    6.93
   2 -15  -7  160.73    3.94
   2  15  -7  150.80    7.00
   1 -15  -7   11.59    1.52
   1  15  -7    8.99    2.94
   0 -15  -7  227.27    4.75
   0  15  -7  227.91    8.40
   1  15   7   77.15    5.03
  -1 -15  -7   75.76    3.00
  -1  15  -7   66.33    4.96
  -2 -15  -7   25.74    2.00
   2  15   7   29.93    3.64
  -2  15  -7   21.40    3.31
  -3 -15  -7   44.68    2.55
   3  15   7   45.74    4.25
  -3  15  -7   36.65    3.82
  -4 -15  -7   81.57    3.50
  -4  15  -7   78.95    5.46
   4  15   7   98.49    5.88
  -5 -15  -7   79.32    3.53
  -5  15  -7   76.20    5.43
   5  15   7   81.68    5.51
   6  15   7   80.84    5.81
  -6 -15  -7   77.44    3.71
  -6  15  -7   72.24    5.36
  -7 -15  -7    9.66    2.11
  -7  15  -7    9.57    3.08
   7  15   7    7.28    3.12
  -8 -15  -7  109.59    4.85
   8  15   7  117.55    6.93
  -8  15  -7  109.97    6.89
  -9 -15  -7   42.61    3.60
  -9  15  -7   42.47    5.03
   9  15   7   45.87    4.77
  10  15   7   18.12    3.76
 -10 -15  -7   16.07    2.95
 -10  15  -7   16.32    4.23
 -13  16   7   -0.25    6.76
 -12  16   7    5.72    6.65
 -11  16   7   71.55    9.99
 -10  16   7   40.79    9.15
  -9  16   7  100.79   11.59
  -8  16   7  289.62   17.77
  -7  16   7   48.77    9.44
  -7  16   7   47.40    3.51
   7  16  -7   55.57    6.01
  -6  16   7  113.50    5.34
  -6  16   7   94.70   10.67
   6  16  -7   85.70    6.78
  -5  16   7  125.37    5.49
   5 -16  -7  119.09    3.62
   5  16  -7  115.89    7.32
  -4  16   7  308.48    8.75
   4 -16  -7  312.64    5.55
   4  16  -7  310.18   10.94
  -3  16   7   77.13    4.71
   3 -16  -7   65.52    2.76
   3  16  -7   60.82    5.31
  -2  16   7  170.39    6.87
   2 -16  -7  160.57    4.04
   2  16  -7  156.62    7.52
   1 -16  -7   11.75    1.60
  -1  16   7   14.58    2.81
   1  16  -7   12.22    3.09
   0  16   7  202.36    8.12
   0 -16  -7  173.04    4.28
   0  16  -7  169.41    7.74
  -1 -16  -7    3.43    1.42
  -1  16  -7    4.67    2.64
   1  16   7    3.28    2.36
   2  16   7  313.87    9.94
  -2 -16  -7  278.16    5.48
  -2  16  -7  264.27    9.45
  -3 -16  -7   46.68    2.61
   3  16   7   58.37    4.91
  -3  16  -7   46.00    4.37
  -4 -16  -7  390.88    7.09
   4  16   7  398.66   11.45
  -4  16  -7  362.05   10.97
  -5 -16  -7  175.25    5.05
  -5  16  -7  157.56    7.83
   5  16   7  171.55    7.91
   6  16   7    8.30    2.97
  -6 -16  -7   14.76    2.25
  -6  16  -7   10.40    3.23
  -7 -16  -7    8.64    2.29
   7  16   7   11.47    3.56
  -7  16  -7    7.77    3.25
   8  16   7   24.60    4.04
  -8 -16  -7   25.62    2.86
  -8  16  -7   21.05    4.15
  -9 -16  -7    4.16    2.41
   9  16   7    0.93    2.74
  -9  16  -7    3.41    3.33
 -13  17   7  262.01   18.36
 -12  17   7  222.19   16.42
 -11  17   7   62.53   10.54
 -10  17   7   28.40    8.83
  -9  17   7   33.19    8.24
  -8  17   7   27.89    8.03
   7  17  -7  101.09    7.86
  -7  17   7  114.56    5.16
  -7  17   7  117.81   12.36
  -6  17   7   55.70    3.90
  -6  17   7   62.35    9.55
   6  17  -7   39.63    5.24
   5 -17  -7  175.51    4.34
   5  17  -7  161.91    8.70
  -5  17   7  174.39    6.71
   4 -17  -7  370.63    6.22
   4  17  -7  354.63   12.09
  -4  17   7  369.73    9.96
   3 -17  -7   26.30    1.97
   3  17  -7   24.49    4.03
  -3  17   7   31.47    3.48
  -2  17   7   38.80    3.83
   2 -17  -7   39.11    2.36
   2  17  -7   35.20    4.49
   1 -17  -7    5.79    1.39
  -1  17   7    8.73    2.88
   1  17  -7    6.80    3.04
   0 -17  -7   19.02    1.80
   0  17   7   16.89    3.03
   0  17  -7   17.64    3.56
  -1 -17  -7    5.13    1.54
  -1  17  -7    8.57    3.12
   1  17   7    5.55    2.83
   2  17   7   27.16    3.84
  -2 -17  -7   32.36    2.29
  -2  17  -7   30.82    4.22
   3  17   7   65.05    5.19
  -3 -17  -7   49.52    2.78
  -3  17  -7   48.75    4.76
   4  17   7    9.89    3.03
  -4 -17  -7    6.39    1.77
  -4  17  -7    6.05    3.14
  -5 -17  -7   53.15    3.16
   5  17   7   64.64    5.20
  -5  17  -7   49.67    5.22
  -6 -17  -7   48.26    3.14
  -6  17  -7   41.84    4.92
   6  17   7   53.53    5.16
   7  17   7    3.34    2.97
  -7 -17  -7    1.03    1.86
  -7  17  -7   -0.82    2.92
  -8 -17  -7   25.66    2.93
  -8  17  -7   18.99    4.13
   8  17   7   18.80    3.79
  -9 -17  -7   37.40    3.48
   9  17   7   46.04    5.34
  -9  17  -7   43.34    5.60
 -12  18   7   14.53    6.92
 -11  18   7   34.47    9.19
 -10  18   7    9.99    7.43
  -9  18   7  310.22   19.40
  -8  18   7  578.26   25.31
   7  18  -7   -3.73    3.85
  -7  18   7    4.63    6.67
  -7  18   7    2.97    1.99
   6  18  -7    4.23    3.36
  -6  18   7    2.91    5.87
  -6  18   7    5.42    2.18
   5 -18  -7   95.96    3.46
   5  18  -7  104.02    7.48
  -5  18   7   93.91    5.24
   4 -18  -7  135.68    4.01
   4  18  -7  139.22    8.26
  -4  18   7  138.18    6.48
   3 -18  -7  350.97    6.17
   3  18  -7  332.07   12.07
  -3  18   7  378.82   10.42
   2 -18  -7  662.76    8.18
   2  18  -7  634.03   15.64
   1 -18  -7  280.86    5.48
   1  18  -7  285.61   10.78
  -1  18   7  327.17   10.21
   0  18   7   81.58    5.46
   0 -18  -7   79.67    3.08
   0  18  -7   80.68    6.12
   1  18   7  149.22    7.17
  -1 -18  -7  144.51    4.17
  -1  18  -7  133.26    7.33
   2  18   7  192.42    8.61
  -2 -18  -7  177.58    4.71
  -2  18  -7  172.64    8.45
  -3 -18  -7    2.63    1.56
  -3  18  -7   -0.03    2.76
   3  18   7    4.60    2.75
   4  18   7  456.69   12.94
  -4 -18  -7  420.45    7.52
  -4  18  -7  402.12   12.80
  -5 -18  -7  216.88    5.84
   5  18   7  242.63    9.58
  -5  18  -7  196.72    9.26
  -6 -18  -7    8.11    1.99
   6  18   7    5.80    2.83
  -6  18  -7    8.13    3.71
  -7 -18  -7   13.43    2.47
  -7  18  -7   11.45    3.76
   7  18   7   10.05    3.44
   8  18   7  100.39    6.90
  -8 -18  -7   94.74    4.64
  -8  18  -7   87.26    7.11
  -9 -18  -7   24.37    3.17
  -9  18  -7   18.94    4.34
 -12  19   7  174.85   15.60
 -11  19   7   34.98    9.29
 -10  19   7   64.12   11.02
  -9  19   7   90.89   11.66
  -8  19   7    4.48    7.06
   7  19  -7   30.29    5.05
  -7  19   7   34.87    8.48
  -7  19   7   46.72    3.70
  -6  19   7   65.93    9.82
  -6  19   7   72.21    4.68
   6  19  -7   57.23    6.64
   5 -19  -7  119.54    3.81
  -5  19   7  141.89    6.46
   5  19  -7  109.60    8.07
   4 -19  -7  371.31    6.35
   4  19  -7  340.23   13.04
   3 -19  -7    8.25    1.66
  -3  19   7    9.81    2.82
   3  19  -7   11.96    3.76
   2 -19  -7   16.77    1.90
  -2  19   7   11.19    2.85
   2  19  -7   17.26    4.11
   1 -19  -7   96.33    3.42
   1  19  -7   91.85    6.90
  -1  19   7  106.14    6.16
   0 -19  -7   83.05    3.22
   0  19  -7   85.09    6.49
   0  19   7   84.15    5.82
  -1 -19  -7    3.99    1.58
   1  19   7    4.36    2.65
  -1  19  -7    3.38    3.24
   2  19   7   68.17    5.42
  -2 -19  -7   55.62    2.95
  -2  19  -7   44.58    4.97
   3  19   7   71.76    5.85
  -3 -19  -7   63.63    3.13
  -3  19  -7   59.47    5.35
   4  19   7   24.04    4.08
  -4 -19  -7   26.78    2.47
  -4  19  -7   25.58    4.41
  -5 -19  -7    9.82    1.99
   5  19   7    9.18    3.42
  -5  19  -7   10.48    3.88
   6  19   7    5.55    3.07
  -6 -19  -7    4.34    1.97
  -6  19  -7    2.70    3.16
  -7 -19  -7    3.53    2.07
  -7  19  -7   -0.34    3.32
   7  19   7    2.21    3.02
   8  19   7   16.24    3.80
  -8 -19  -7    9.22    2.40
  -8  19  -7   10.13    3.97
 -11  20   7   47.34   10.30
 -10  20   7   56.31   10.33
  -9  20   7   -2.70    6.83
  -8  20   7   18.11    6.73
   7  20  -7   36.66    6.14
  -7  20   7   20.63    7.76
  -7  20   7   24.77    3.24
   6  20  -7  186.07   10.77
  -6  20   7  212.15    7.78
   5  20  -7    2.66    3.59
  -5  20   7    1.98    2.27
   5 -20  -7    3.08    1.45
   4 -20  -7   83.07    3.29
  -4  20   7   97.27    5.75
   4  20  -7   71.70    6.80
   3 -20  -7   67.91    3.01
  -3  20   7   75.32    5.22
   3  20  -7   63.59    6.33
   2 -20  -7   12.44    1.74
  -2  20   7    7.56    2.75
   2  20  -7    6.36    3.54
   1 -20  -7    4.37    1.59
  -1  20   7    2.19    2.40
   1  20  -7   -0.16    3.10
   0 -20  -7  394.70    6.72
   0  20  -7  404.33   13.47
   0  20   7  424.39   12.26
  -1 -20  -7    3.18    1.60
   1  20   7    5.28    2.94
  -1  20  -7    4.40    3.23
   2  20   7  163.79    7.98
  -2 -20  -7  141.84    4.40
  -2  20  -7  143.57    8.31
  -3 -20  -7    8.28    1.92
   3  20   7    8.61    3.30
  -3  20  -7    3.74    3.34
   4  20   7  241.07    9.96
  -4 -20  -7  231.62    5.82
  -4  20  -7  211.50    9.90
   5  20   7   31.42    4.52
  -5 -20  -7   23.81    2.51
  -5  20  -7   25.54    4.59
  -6 -20  -7   65.06    3.72
   6  20   7   61.33    5.65
  -6  20  -7   59.15    6.20
  -7 -20  -7   40.47    3.35
   7  20   7   43.24    5.00
  -7  20  -7   35.01    5.26
  -8 -20  -7  109.55    5.12
  -8  20  -7   92.95    7.52
   8  20   7  112.75    7.25
 -11  21   7    0.26    7.49
 -10  21   7   66.69   11.34
  -9  21   7  108.30   13.65
  -8  21   7   -0.33    7.05
  -7  21   7   30.49    8.46
   7  21  -7   29.63    5.49
  -7  21   7   31.86    3.62
   6  21  -7    1.49    3.99
  -6  21   7    0.00    2.19
   5  21  -7    5.36    4.21
  -5  21   7    6.24    2.59
   5 -21  -7    7.95    1.62
   4 -21  -7   53.80    2.83
  -4  21   7   57.89    4.90
   4  21  -7   48.19    6.18
   3 -21  -7  124.30    3.97
  -3  21   7  138.21    7.00
   3  21  -7  120.97    8.62
  -2  21   7    7.03    2.76
   2 -21  -7    8.24    1.67
   2  21  -7    6.96    3.73
   1 -21  -7   49.96    2.76
   1  21  -7   43.32    5.37
  -1  21   7   47.22    4.55
   0  21   7    5.04    2.94
   0 -21  -7    3.49    1.57
   0  21  -7    6.42    3.65
  -1 -21  -7    3.89    1.70
   1  21   7    3.66    2.84
  -1  21  -7    4.22    3.36
   2  21   7   81.47    6.14
  -2 -21  -7   67.06    3.27
  -2  21  -7   65.73    6.34
   3  21   7   93.42    6.66
  -3 -21  -7   89.66    3.86
  -3  21  -7   81.83    7.10
   4  21   7   28.36    4.49
  -4 -21  -7   26.86    2.63
  -4  21  -7   28.29    5.03
   5  21   7    9.01    3.30
  -5 -21  -7    6.60    1.94
  -5  21  -7    7.90    3.66
  -6 -21  -7   25.97    2.91
   6  21   7   29.04    4.65
  -6  21  -7   20.79    4.50
  -7 -21  -7    2.60    2.07
   7  21   7    4.99    3.32
  -7  21  -7    0.26    3.65
 -10  22   7  153.07   15.50
  -9  22   7   13.14    8.14
  -8  22   7   -1.00    7.11
   7  22  -7  166.57   10.87
  -7  22   7  167.83   15.18
   6  22  -7  382.20   15.93
   6 -22  -7  393.50    7.04
  -6  22   7  426.19   11.75
   5 -22  -7   35.11    2.54
  -5  22   7   36.29    4.06
   5  22  -7   37.53    6.11
   4 -22  -7   84.50    3.45
  -4  22   7  101.65    6.28
   4  22  -7   86.52    8.01
   3  22  -7   10.33    4.18
   3 -22  -7   13.32    1.89
  -3  22   7   21.39    3.63
   2 -22  -7   40.36    2.58
  -2  22   7   46.20    4.76
   2  22  -7   34.44    5.45
   1 -22  -7  336.68    6.41
  -1  22   7  354.59   11.40
   1  22  -7  322.97   13.37
   0 -22  -7  591.32    8.57
   0  22  -7  570.00   17.32
   0  22   7  613.84   15.21
  -1 -22  -7  102.31    3.89
  -1  22  -7  100.71    7.81
   1  22   7  121.45    7.26
  -2 -22  -7   48.97    2.96
  -2  22  -7   51.01    6.16
   2  22   7   55.55    5.49
  -3 -22  -7   11.63    2.03
   3  22   7   15.56    3.62
  -3  22  -7   16.82    4.35
   4  22   7   44.78    5.25
  -4 -22  -7   39.66    2.90
  -4  22  -7   39.59    5.52
   5  22   7   24.34    4.45
  -5 -22  -7   21.04    2.53
  -5  22  -7   26.57    5.21
   6  22   7  309.70   11.97
  -6 -22  -7  285.93    7.22
  -6  22  -7  261.29   12.39
  -7 -22  -7   82.45    4.39
   7  22   7  100.11    7.26
  -7  22  -7   80.08    7.70
 -10  23   7    4.81    7.83
  -9  23   7   12.14    8.26
  -8  23   7   25.51    8.27
  -7  23   7    5.38    7.86
   7  23  -7   15.54    5.45
   6  23  -7   62.43    7.73
   6 -23  -7   68.00    3.30
  -6  23   7   82.88    5.68
   5  23  -7  289.04   14.48
   5 -23  -7  324.20    6.54
  -5  23   7  318.60   10.51
   4 -23  -7   69.19    3.26
  -4  23   7   76.87    5.75
   4  23  -7   69.89    7.83
   3  23  -7   13.96    4.85
  -3  23   7    6.19    2.92
   3 -23  -7    7.28    1.74
  -2  23   7    1.31    2.66
   2 -23  -7   -1.49    1.55
   2  23  -7    2.90    4.32
   1 -23  -7  175.14    4.84
  -1  23   7  184.26    8.81
   1  23  -7  172.97   10.50
   0  23   7   10.28    3.33
   0 -23  -7    9.17    1.84
   0  23  -7    4.54    3.80
  -1 -23  -7  196.38    5.25
  -1  23  -7  204.87   11.10
   1  23   7  223.89    9.88
  -2 -23  -7   82.55    3.68
  -2  23  -7   75.20    7.14
   2  23   7   85.93    6.57
  -3 -23  -7    1.45    1.69
   3  23   7    3.18    2.92
  -3  23  -7    1.97    3.60
   4  23   7   41.33    4.96
  -4 -23  -7   36.74    2.89
  -4  23  -7   32.63    5.83
   5  23   7  120.54    7.94
  -5 -23  -7  102.86    4.50
  -5  23  -7  110.45    8.63
   6  23   7   25.82    4.81
  -6 -23  -7   30.79    3.08
  -6  23  -7   24.60    5.23
  -9  24   7   97.58   13.35
  -8  24   7   66.52   11.90
  -7  24   7    1.11    7.90
   7  24  -7   -0.06    4.73
   6  24  -7   27.82    5.95
   6 -24  -7   26.13    2.46
  -6  24   7   34.28    4.19
   5  24  -7   13.98    5.20
   5 -24  -7   18.07    2.17
  -5  24   7   19.20    3.87
   4 -24  -7  177.83    4.93
  -4  24   7  193.44    8.73
   4  24  -7  167.05   11.30
  -3  24   7   11.73    3.29
   3  24  -7    7.01    4.45
   3 -24  -7    8.68    1.88
   2 -24  -7  181.42    5.01
  -2  24   7  204.96    9.20
   2  24  -7  172.79   11.00
  -1  24   7    1.33    2.69
   1 -24  -7    1.99    1.67
   1  24  -7    0.24    4.12
   0  24   7    9.23    3.37
   0 -24  -7   11.95    1.99
   0  24  -7   10.60    4.69
   1  24   7    6.18    3.39
  -1 -24  -7    5.48    1.76
  -1  24  -7    3.01    3.80
  -2 -24  -7   49.19    3.05
  -2  24  -7   50.26    6.92
   2  24   7   44.92    5.16
  -3 -24  -7    1.38    1.75
   3  24   7    5.15    3.36
  -3  24  -7    4.95    4.13
  -4 -24  -7   10.89    2.20
   4  24   7   10.57    3.33
  -4  24  -7   12.29    4.40
  -5 -24  -7    4.11    2.16
   5  24   7    7.99    4.16
  -5  24  -7   14.15    4.89
   6  24   7   31.51    4.91
  -6 -24  -7   30.25    3.02
  -6  24  -7   21.15    5.35
  -9  25   7   -5.01    8.37
  -8  25   7   14.05    8.26
   6  25  -7   92.56    9.09
   6 -25  -7   92.37    3.81
  -6  25   7   95.07    6.35
   5  25  -7  178.04   12.03
   5 -25  -7  204.09    5.40
  -5  25   7  201.14    9.15
   4 -25  -7   29.84    2.53
  -4  25   7   32.84    4.63
   4  25  -7   39.05    7.02
  -3  25   7    1.37    2.92
   3  25  -7    0.71    4.42
   3 -25  -7    2.86    1.74
   2  25  -7   18.44    5.72
  -2  25   7   24.30    4.03
   2 -25  -7   17.98    2.23
   1 -25  -7   42.75    2.79
  -1  25   7   45.80    5.32
   1  25  -7   41.35    6.25
   0 -25  -7   39.32    2.80
   0  25   7   49.26    5.45
   0  25  -7   49.06    6.79
  -1 -25  -7   55.41    3.27
   1  25   7   58.30    5.68
  -1  25  -7   60.57    7.29
  -2 -25  -7   72.23    3.62
  -2  25  -7   73.87    7.76
   2  25   7   81.79    7.00
  -3 -25  -7   28.49    2.72
  -3  25  -7   33.23    5.99
   3  25   7   28.23    4.82
  -4 -25  -7    3.00    1.92
   4  25   7    3.21    3.37
  -4  25  -7    4.48    4.46
  -5 -25  -7   10.83    2.32
   5  25   7   12.15    4.17
  -8  26   7  186.97   17.55
   7 -26  -7   46.15    3.02
   6 -26  -7   19.62    2.45
   6  26  -7   16.60    5.85
  -6  26   7   25.31    4.07
   5  26  -7    6.11    4.86
   5 -26  -7   13.57    2.25
  -5  26   7    8.25    3.22
   4  26  -7   22.43    6.29
   4 -26  -7   14.30    2.19
  -4  26   7   15.41    3.57
   3 -26  -7   53.77    3.13
  -3  26   7   56.15    5.63
   3  26  -7   50.34    7.64
   2 -26  -7  126.84    4.42
  -2  26   7  136.86    8.17
   2  26  -7  115.48    9.80
   1 -26  -7   87.83    3.79
   1  26  -7   75.52    8.25
   0 -26  -7  115.67    4.33
   0  26   7  101.86    7.29
   0  26  -7  113.90    9.39
   1  26   7    3.70    3.44
  -1 -26  -7    5.71    1.97
  -1  26  -7   -1.59    4.28
  -2 -26  -7   53.23    3.32
   2  26   7   56.23    5.88
  -2  26  -7   54.94    7.28
  -3 -26  -7   15.90    2.40
   3  26   7   22.13    4.54
  -3  26  -7   19.12    5.21
  -4 -26  -7   83.33    4.16
  -4  26  -7   81.72    8.53
   4  26   7   94.66    7.60
   7 -27  -7   65.84    3.54
   6 -27  -7    0.51    1.73
  -6  27   7    2.69    2.93
   5  27  -7    2.20    5.13
   5 -27  -7    7.59    1.99
  -5  27   7    8.05    3.44
   4  27  -7   28.09    6.71
   4 -27  -7   32.32    2.74
  -4  27   7   27.17    4.50
   3 -27  -7  422.58    7.78
  -3  27   7  416.95   13.85
   3  27  -7  404.14   18.61
   2  27  -7    6.09    5.27
   2 -27  -7    5.00    1.92
  -2  27   7    6.06    3.43
   1 -27  -7  130.36    4.62
  -1  27   7  155.63    8.99
   1  27  -7  127.79   10.82
   0  27  -7   23.19    5.93
   0  27   7   23.62    4.70
   0 -27  -7   19.79    2.41
  -1  27  -7    3.88    4.82
   1  27   7    4.50    3.47
  -1 -27  -7    0.77    1.88
   2  27   7    1.84    3.14
  -2 -27  -7    2.99    1.87
  -2  27  -7    0.42    4.58
  -3 -27  -7  133.69    4.99
  -3  27  -7  121.34   10.25
   3  27   7  153.97    9.31
   6 -28  -7   13.88    2.39
   6  28  -7   12.58    6.33
  -6  28   7   14.20    3.74
   5  28  -7    6.92    5.33
   5 -28  -7    6.20    2.02
  -5  28   7    0.80    3.12
   4  28  -7   -2.45    5.12
   4 -28  -7    4.91    1.96
  -4  28   7    1.33    3.17
   3  28  -7    1.19    5.18
   3 -28  -7    0.31    1.77
  -3  28   7    4.87    3.19
   2  28  -7    7.82    5.20
   2 -28  -7   13.33    2.28
  -2  28   7   12.35    3.94
   1 -28  -7   26.80    2.67
  -1  28   7   33.36    5.25
   1  28  -7   42.08    7.46
   0 -28  -7   49.30    3.18
   0  28   7   55.69    5.84
   0  28  -7   43.96    7.62
  -1  28  -7    3.52    4.86
   1  28   7    9.66    3.79
  -1 -28  -7   10.21    2.18
  -2  28  -7   15.37    5.78
   2  28   7    9.68    3.89
  -2 -28  -7   10.78    2.23
   6  29  -7    6.87    5.21
   5  29  -7    2.28    5.78
  -5  29   7    2.99    3.42
   4  29  -7  109.24   11.07
   4 -29  -7  106.44    4.34
  -4  29   7  106.83    7.93
   3  29  -7   69.23    9.09
   3 -29  -7   76.77    3.77
  -3  29   7   68.24    6.70
   2  29  -7    7.31    5.95
   2 -29  -7    2.09    2.02
  -2  29   7    5.05    3.43
   1  29  -7   44.18    7.68
   1 -29  -7   40.79    3.08
  -1  29   7   38.44    5.33
   0 -29  -7   85.92    4.12
   0  29   7   96.67    7.78
   0  29  -7   74.13    9.01
  -1  29  -7    7.38    5.55
   1  29   7    5.44    3.72
   6  30  -7   26.01    7.21
   5  30  -7   -2.00    5.61
  -5  30   7    2.60    3.52
   4  30  -7   53.29    8.54
  -4  30   7   62.58    6.32
   3  30  -7   10.71    5.93
  -3  30   7    8.86    4.02
   2  30  -7   71.17    9.55
  -2  30   7   75.91    7.16
   1  30  -7   16.71    6.71
  -1  30   7   11.75    4.32
   0  30   7  210.41   11.06
   5  31  -7   73.23    9.92
  -5  31   7   90.69    7.46
   4  31  -7    4.53    6.19
  -4  31   7    4.70    3.71
   3  31  -7   81.23   10.37
  -3  31   7   74.14    7.06
  -2  31   7    1.61    3.56
  -1  31   7   25.70    5.25
  -4  32   7    3.72    3.62
 -11   0   8  106.51    9.08
 -10   0   8  708.02   20.83
  -9   0   8  292.57   13.81
  -8   0   8   39.71    6.03
  -7   0   8   25.08    5.43
   6   0  -8   20.88    1.45
   6   0  -8   21.50    2.03
   5   0  -8  313.94    4.12
   5   0  -8  296.52    5.98
   4   0  -8 1676.70    9.16
   4   0  -8 1769.78   15.19
   3   0  -8  440.77    4.73
   3   0  -8  422.71    7.27
   2   0  -8   81.88    3.39
   2   0  -8   91.28    2.27
   1   0  -8  297.25    6.21
   1   0  -8  321.05    4.33
   0   0  -8  143.82    4.76
   0   0  -8  144.51    3.16
  -1   0  -8   33.95    3.09
  -1   0  -8   28.94    1.96
  -2   0  -8  593.24    9.59
  -2   0  -8  605.27    7.07
  -3   0  -8  559.86    9.51
  -3   0  -8  550.93    7.23
  -4   0  -8   86.63    4.15
  -4   0  -8   86.49    3.33
  -5   0  -8   16.17    2.55
  -5   0  -8   14.77    2.00
  -6   0  -8    8.37    2.23
  -6   0  -8    9.04    1.98
  -7   0  -8   12.25    2.51
  -7   0  -8   11.49    2.25
  -8   0  -8   98.37    5.04
  -8   0  -8  103.00    4.74
  -9   0  -8  248.05    8.07
  -9   0  -8  242.39    7.47
 -10   0  -8    8.56    2.85
 -10   0  -8    8.50    2.73
 -11   0  -8    8.39    3.02
 -12   1   8   70.15    8.06
 -11   1   8   -2.40    4.55
 -10  -1   8   10.09    4.06
 -10   1   8   21.51    5.27
  -9  -1   8   46.48    6.25
  -9   1   8   43.63    6.65
  -8   1   8   92.54    8.29
  -8  -1   8  109.44    8.55
  -7   1   8   48.86    6.29
  -7  -1   8   37.32    5.62
   6  -1  -8   88.19    2.36
   6   1  -8   96.49    2.36
   6  -1  -8   84.38    3.20
   6   1  -8   89.11    3.46
   5  -1  -8  363.14    4.54
   5   1  -8  338.22    4.05
   5  -1  -8  343.74    6.32
   5   1  -8  332.58    6.48
   4  -1  -8   54.16    1.95
   4   1  -8   57.50    1.84
   4  -1  -8   64.89    3.11
   4   1  -8   72.84    3.51
   3  -1  -8   94.43    2.37
   3   1  -8   92.11    2.21
   3  -1  -8   88.43    3.37
   3   1  -8  106.36    4.14
   2  -1  -8   73.47    3.24
   2  -1  -8   71.02    2.11
   2   1  -8   64.75    1.92
   2   1  -8   61.75    3.16
   1  -1  -8  135.50    4.31
   1   1  -8  194.54    5.60
   1  -1  -8  143.46    3.02
   1   1  -8  176.69    3.31
   0  -1  -8   94.38    3.85
   0   1  -8   92.36    3.81
   0  -1  -8   97.16    2.63
   0   1  -8   95.96    2.56
  -1  -1  -8   81.46    3.68
  -1   1  -8   76.01    3.62
  -1  -1  -8   79.73    2.64
  -1   1  -8   76.84    2.50
  -2  -1  -8  125.35    4.68
  -2   1  -8  117.02    4.53
  -2  -1  -8  109.80    3.23
  -2   1  -8  114.69    3.25
  -3  -1  -8   61.55    3.53
  -3   1  -8   62.68    3.72
  -3  -1  -8   54.75    2.50
  -3   1  -8   65.24    2.73
  -4  -1  -8    9.26    2.11
  -4   1  -8    9.15    2.14
  -4  -1  -8    8.96    1.61
  -4   1  -8    5.43    1.52
  -5  -1  -8   16.18    2.51
  -5   1  -8   12.54    2.23
  -5  -1  -8   18.81    2.10
  -5   1  -8   17.08    2.04
  -6  -1  -8   12.60    2.45
  -6   1  -8   12.14    2.43
  -6  -1  -8   10.60    1.96
  -6   1  -8   12.24    2.01
  -7  -1  -8   16.77    2.86
  -7   1  -8   13.51    2.66
  -7  -1  -8   14.71    2.34
  -7   1  -8   14.73    2.33
  -8  -1  -8   20.30    3.06
  -8   1  -8   17.26    2.95
  -8  -1  -8   17.20    2.63
  -8   1  -8   16.88    2.61
  -9  -1  -8    9.13    3.04
  -9   1  -8    7.58    3.17
  -9  -1  -8    5.11    2.39
  -9   1  -8    3.78    2.34
 -10  -1  -8   -0.70    2.36
 -10   1  -8   -0.57    2.57
 -10  -1  -8    1.11    2.32
 -10   1  -8    1.96    2.31
 -11  -1  -8    5.69    2.82
 -11   1  -8    6.45    2.90
 -13   2   8    0.49    4.92
 -12   2   8  157.07   11.39
 -11   2   8   46.14    7.17
 -10   2   8  118.37    9.52
  -9  -2   8    9.32    4.26
  -9   2   8    8.94    4.35
  -8   2   8  160.69   10.88
  -8  -2   8  153.91    9.51
  -7   2   8   -2.92    4.49
   6  -2  -8   28.47    1.61
   6  -2  -8   29.12    2.06
   6   2  -8   28.34    2.40
   5  -2  -8   11.16    1.23
   5   2  -8   11.48    1.04
   5  -2  -8   13.93    1.79
   5   2  -8   13.64    1.97
   4  -2  -8  275.39    4.03
   4   2  -8  272.21    3.42
   4  -2  -8  268.84    5.41
   4   2  -8  261.20    5.93
   3  -2  -8    9.82    1.09
   3  -2  -8   11.74    1.69
   3   2  -8   11.75    1.04
   3   2  -8   12.49    1.93
   2  -2  -8  142.49    4.31
   2  -2  -8  140.43    2.96
   2   2  -8  137.06    2.59
   2   2  -8  134.56    4.61
   1  -2  -8   35.59    2.48
   1  -2  -8   37.55    1.80
   1   2  -8   32.57    2.57
   1   2  -8   35.70    1.58
   0  -2  -8  196.00    5.13
   0   2  -8  192.03    5.50
   0  -2  -8  207.98    3.79
   0   2  -8  206.18    3.61
  -1  -2  -8  220.24    5.59
  -1   2  -8  220.81    5.98
  -1  -2  -8  224.15    4.18
  -1   2  -8  212.70    3.91
  -2  -2  -8  233.13    5.96
  -2   2  -8  220.46    6.22
  -2  -2  -8  232.82    4.58
  -2   2  -8  223.70    4.34
  -3  -2  -8   55.24    3.35
  -3   2  -8   52.84    3.48
  -3  -2  -8   56.52    2.59
  -3   2  -8   51.48    2.53
  -4  -2  -8  112.09    4.53
  -4   2  -8  106.38    4.77
  -4  -2  -8  114.91    3.76
  -4   2  -8  110.05    3.72
  -5  -2  -8   58.54    3.60
  -5   2  -8   57.74    3.79
  -5  -2  -8   59.95    3.04
  -5   2  -8   56.06    3.04
  -6  -2  -8  124.71    5.11
  -6   2  -8  125.34    5.45
  -6  -2  -8  125.61    4.54
  -6   2  -8  117.41    4.37
  -7  -2  -8   93.02    4.75
  -7   2  -8   82.34    4.71
  -7  -2  -8   81.43    4.01
  -7   2  -8   90.13    4.20
  -8  -2  -8   86.13    4.80
  -8   2  -8   79.80    4.87
  -8  -2  -8   77.05    4.20
  -8   2  -8   76.97    4.20
  -9  -2  -8  133.01    5.78
  -9   2  -8  131.99    6.24
  -9  -2  -8  134.35    5.71
  -9   2  -8  135.66    5.82
 -10  -2  -8   10.27    2.75
 -10   2  -8    8.69    3.00
 -10  -2  -8   13.61    2.93
 -10   2  -8    8.36    2.77
 -11  -2  -8   23.12    3.52
 -11   2  -8   21.86    3.73
 -13   3   8    7.79    4.88
 -12   3   8   79.66    8.93
 -11   3   8   16.77    5.04
 -10   3   8   15.70    5.53
  -9   3   8  177.75   11.75
  -8   3   8   32.17    5.69
  -7   3   8   44.58    6.25
   6  -3  -8  202.10    3.74
   6  -3  -8  196.05    4.55
   6   3  -8  197.72    5.46
   5  -3  -8  280.24    4.23
   5  -3  -8  276.28    5.34
   5   3  -8  285.97    6.51
   4  -3  -8    6.33    1.02
   4  -3  -8    7.95    1.44
   4   3  -8   13.15    2.00
   3  -3  -8   25.79    2.08
   3  -3  -8   24.39    1.45
   3   3  -8   24.58    2.32
   2  -3  -8  189.79    4.93
   2  -3  -8  180.07    3.51
   2   3  -8  168.51    2.77
   2   3  -8  163.67    5.08
   1  -3  -8   80.45    3.34
   1  -3  -8   78.00    2.37
   1   3  -8   75.17    3.63
   1   3  -8   78.23    2.07
   0  -3  -8   28.19    2.55
   0  -3  -8   23.40    1.66
   0   3  -8   24.27    2.72
   0   3  -8   19.79    1.36
  -1  -3  -8   19.50    2.22
  -1   3  -8   11.45    2.24
  -1  -3  -8   13.91    1.53
  -1   3  -8   11.96    1.31
  -2  -3  -8  147.93    4.68
  -2   3  -8  144.34    5.15
  -2  -3  -8  148.45    3.71
  -2   3  -8  142.71    3.54
  -3  -3  -8    6.89    2.02
  -3   3  -8    3.84    1.98
  -3  -3  -8    2.19    1.26
  -3   3  -8    2.50    1.27
  -4  -3  -8   25.45    2.90
  -4   3  -8   17.76    2.66
  -4  -3  -8   20.44    2.03
  -4   3  -8   18.18    1.99
  -5  -3  -8    8.54    2.29
  -5   3  -8    5.41    2.25
  -5  -3  -8    3.46    1.54
  -5   3  -8    2.27    1.52
  -6  -3  -8   19.05    2.68
  -6   3  -8   21.03    2.98
  -6  -3  -8   20.98    2.40
  -6   3  -8   17.56    2.19
  -7  -3  -8   20.29    2.87
  -7   3  -8   15.90    2.86
  -7  -3  -8   16.66    2.36
  -7   3  -8   15.36    2.38
  -8  -3  -8   99.44    5.11
  -8   3  -8  102.71    5.67
  -8  -3  -8   88.98    4.54
  -8   3  -8   88.08    4.52
  -9  -3  -8    2.98    2.28
  -9   3  -8    2.69    2.59
  -9  -3  -8    0.99    2.16
  -9   3  -8    0.28    2.30
 -10  -3  -8   13.25    2.96
 -10   3  -8   13.38    3.19
 -10  -3  -8   11.29    2.70
 -10   3  -8   15.12    3.13
 -11  -3  -8   18.20    3.30
 -14   4   8   24.48    6.60
 -13   4   8   89.22    9.46
 -12   4   8  365.23   17.14
 -11   4   8   40.25    6.91
 -10   4   8   30.49    6.45
  -9   4   8   43.60    7.27
  -8   4   8  133.16   10.71
  -7   4   8   20.89    5.11
   6  -4  -8  675.31    6.80
   6  -4  -8  676.45    8.04
   6   4  -8  650.55   10.07
   5  -4  -8  286.96    4.43
   5  -4  -8  285.15    5.36
   5   4  -8  286.91    6.67
   4  -4  -8    5.01    1.01
   4  -4  -8    6.77    1.36
   4   4  -8    8.15    1.86
   3  -4  -8   23.18    1.97
   3  -4  -8   22.10    1.46
   3   4  -8   20.98    2.26
   2  -4  -8  693.19    8.77
   2  -4  -8  733.17    6.90
   2   4  -8  681.75   10.20
   1  -4  -8   73.70    3.26
   1  -4  -8   71.92    2.42
   1   4  -8   74.34    3.74
   0  -4  -8  641.40    9.15
   0  -4  -8  641.74    6.85
   0   4  -8  613.64   10.04
  -1  -4  -8  369.19    7.08
  -1  -4  -8  369.28    5.51
  -1   4  -8  365.45    7.99
  -1   4  -8  330.06    4.78
  -2  -4  -8   15.47    2.12
  -2   4  -8   18.85    2.63
  -2  -4  -8   14.06    1.54
  -2   4  -8   15.09    1.50
  -3  -4  -8  116.96    4.49
  -3   4  -8  118.60    5.23
  -3  -4  -8  113.53    3.54
  -3   4  -8  112.72    3.44
  -4  -4  -8  560.86    9.50
  -4   4  -8  592.34   11.44
  -4  -4  -8  575.69    8.01
  -4   4  -8  539.89    7.79
  -5  -4  -8  197.91    5.95
  -5   4  -8  210.85    7.21
  -5  -4  -8  196.47    5.10
  -5   4  -8  196.04    5.24
  -6  -4  -8  115.78    4.89
  -6   4  -8  112.03    5.45
  -6  -4  -8  107.88    4.19
  -6   4  -8  111.59    4.37
  -7  -4  -8   75.70    4.40
  -7   4  -8   74.58    4.71
  -7  -4  -8   68.49    3.76
  -7   4  -8   70.35    3.87
  -8  -4  -8    7.39    2.38
  -8   4  -8    4.67    2.57
  -8  -4  -8    5.86    2.08
  -8   4  -8    5.12    2.33
  -9  -4  -8    3.56    2.53
  -9   4  -8    2.88    2.57
  -9  -4  -8    3.14    2.23
 -10  -4  -8  147.04    6.41
 -10   4  -8  133.10    6.52
 -10  -4  -8  136.74    6.12
 -11  -4  -8  138.98    6.63
 -15   5   8   79.92   10.37
 -14   5   8   34.60    7.45
 -13   5   8  149.18   12.16
 -12   5   8    0.41    4.88
 -11   5   8   -0.70    4.65
 -10   5   8   51.14    8.09
  -9   5   8    6.87    5.41
  -8   5   8  150.22   11.50
  -7   5   8  332.94   15.92
   6  -5  -8   36.79    1.88
   6  -5  -8   37.51    2.16
   6   5  -8   34.44    2.93
   5  -5  -8   83.48    2.59
   5  -5  -8   85.23    3.08
   5   5  -8   85.79    3.96
   4  -5  -8   62.95    2.21
   4  -5  -8   65.50    2.83
   4   5  -8   59.97    3.39
   3  -5  -8    3.84    1.38
   3  -5  -8    4.23    1.05
   3   5  -8    0.30    1.61
   2  -5  -8    9.60    1.71
   2  -5  -8    7.19    1.20
   2   5  -8   11.78    2.12
   1  -5  -8  219.49    5.23
   1  -5  -8  225.08    4.06
   1   5  -8  202.29    5.91
   0  -5  -8  101.34    3.93
   0  -5  -8   96.76    2.92
   0   5  -8   90.44    4.23
  -1  -5  -8   15.28    2.08
  -1  -5  -8   10.98    1.43
  -1   5  -8   12.97    2.31
  -2  -5  -8    5.04    1.78
  -2  -5  -8    4.54    1.33
  -2   5  -8    2.21    1.80
  -3  -5  -8    9.67    2.04
  -3  -5  -8    5.36    1.46
  -3   5  -8    4.60    2.01
  -4  -5  -8   29.35    2.79
  -4   5  -8   25.23    2.99
  -4  -5  -8   26.18    2.25
  -5  -5  -8  151.58    5.33
  -5   5  -8  133.96    5.75
  -5  -5  -8  150.06    4.55
  -6  -5  -8   78.06    4.11
  -6   5  -8   64.21    4.35
  -6  -5  -8   70.99    3.49
  -7  -5  -8   45.72    3.53
  -7   5  -8   43.30    3.86
  -7  -5  -8   42.05    3.14
  -8  -5  -8   16.72    2.66
  -8   5  -8   18.33    3.15
  -8  -5  -8   18.00    2.53
  -9  -5  -8  146.76    6.05
  -9   5  -8  129.21    6.28
  -9  -5  -8  140.30    5.85
 -10  -5  -8  107.62    5.54
 -15   6   8   32.76    7.92
 -14   6   8  598.65   24.10
 -13   6   8    0.32    5.41
 -12   6   8   29.08    7.02
 -11   6   8   -8.67    5.71
 -10   6   8  118.08   10.98
  -9   6   8   11.66    5.87
  -8   6   8  169.08   12.24
  -7   6   8   14.05    5.43
   6  -6  -8   29.09    1.75
   6  -6  -8   26.31    1.82
   6   6  -8   28.17    2.86
   5  -6  -8  166.67    3.62
   5  -6  -8  151.68    3.90
   5   6  -8  145.20    5.25
   4  -6  -8  294.42    5.57
   4  -6  -8  294.55    4.64
   4   6  -8  285.70    7.13
   3  -6  -8   34.92    2.29
   3  -6  -8   33.22    1.76
   3   6  -8   34.41    2.85
   2  -6  -8  145.31    4.18
   2  -6  -8  140.41    3.30
   2   6  -8  136.75    5.10
   1  -6  -8   16.13    2.12
   1  -6  -8   10.08    1.43
   1   6  -8    9.04    2.19
   0  -6  -8  364.42    6.74
   0  -6  -8  363.68    5.43
   0   6  -8  345.85    7.96
  -1  -6  -8    3.48    1.60
  -1  -6  -8    4.56    1.25
  -1   6  -8    1.19    1.84
  -2  -6  -8   99.43    3.93
  -2  -6  -8   99.83    3.25
  -2   6  -8   94.29    4.61
  -3  -6  -8  125.97    4.57
  -3   6  -8  113.24    5.12
  -3  -6  -8  121.27    3.74
  -4  -6  -8   11.83    2.08
  -4  -6  -8   13.64    1.81
  -4   6  -8   12.63    2.50
  -5  -6  -8   61.52    3.74
  -5   6  -8   55.09    4.05
  -5  -6  -8   56.31    3.04
  -6  -6  -8   58.20    3.75
  -6   6  -8   51.14    4.07
  -6  -6  -8   51.10    3.09
  -7  -6  -8  110.15    5.01
  -7   6  -8  106.64    5.60
  -7  -6  -8  108.83    4.60
  -8  -6  -8   20.02    2.79
  -8   6  -8   22.09    3.43
  -8  -6  -8   22.05    2.80
  -9  -6  -8    7.01    2.80
  -9   6  -8    4.60    2.79
  -9  -6  -8    3.81    2.30
 -10  -6  -8   10.96    2.81
 -15   7   8   58.67    9.84
 -14   7   8   34.06    7.53
 -13   7   8  315.03   17.28
 -12   7   8   -1.81    5.29
 -11   7   8   32.08    6.70
 -10   7   8   14.60    6.08
  -9   7   8    0.41    5.27
  -8   7   8  134.55   11.45
  -7   7   8  296.13   15.69
   6  -7  -8   54.84    2.24
   6  -7  -8   55.58    2.50
   6   7  -8   52.06    3.81
   5  -7  -8    5.40    1.15
   5  -7  -8    5.47    1.30
   5   7  -8    4.82    1.90
   4  -7  -8   11.46    1.61
   4  -7  -8    9.99    1.37
   4   7  -8   11.26    2.29
   3  -7  -8  143.22    3.97
   3  -7  -8  148.14    3.43
   3   7  -8  131.23    5.13
   2  -7  -8   15.52    1.47
   2   7  -8   19.84    2.57
   1  -7  -8  671.27    7.25
   1   7  -8  630.04   10.76
  -1   7   8  669.88   12.03
   0   7   8  348.01    9.06
   0  -7  -8  344.09    5.29
   0   7  -8  337.99    8.11
  -1  -7  -8    3.82    1.25
  -1   7  -8    2.59    1.75
   1   7   8    4.11    2.21
  -2  -7  -8    1.88    1.29
  -2   7  -8    3.82    1.96
  -3  -7  -8   31.55    2.26
  -3   7  -8   32.20    3.21
  -4  -7  -8   10.04    2.02
  -4  -7  -8   10.70    1.83
  -4   7  -8    9.83    2.40
  -5  -7  -8  188.47    5.86
  -5   7  -8  184.29    6.79
  -5  -7  -8  184.29    5.03
  -6  -7  -8  105.52    4.66
  -6   7  -8   85.01    5.14
  -6  -7  -8   98.04    4.07
  -7  -7  -8   23.03    2.93
  -7   7  -8   21.17    3.32
  -7  -7  -8   19.28    2.45
  -8  -7  -8    4.79    2.22
  -8   7  -8   12.83    3.00
  -8  -7  -8    6.93    2.12
  -9  -7  -8  106.36    5.28
  -9   7  -8   98.05    5.89
  -9  -7  -8   97.59    4.97
 -10  -7  -8   43.83    4.01
 -15   8   8   32.02    8.16
 -14   8   8    5.57    5.81
 -13   8   8   12.33    5.80
 -12   8   8   -2.94    5.37
 -11   8   8  320.95   16.96
 -10   8   8  561.47   22.73
  -9   8   8   92.94   10.07
  -8   8   8    1.03    5.34
  -7   8   8   24.77    6.45
   6  -8  -8   66.90    2.51
   6  -8  -8   69.18    2.72
   6   8  -8   63.58    4.13
   5  -8  -8   38.43    2.15
   5  -8  -8   35.07    1.95
   5   8  -8   32.43    3.19
   4  -8  -8  378.17    5.49
   4   8  -8  349.42    8.63
  -3   8   8   82.07    4.26
   3  -8  -8   76.29    2.64
   3   8  -8   69.38    4.04
   2  -8  -8   62.89    2.44
   2   8  -8   61.45    3.80
  -2   8   8   68.49    4.11
   1  -8  -8   30.43    1.93
   1   8  -8   32.95    3.19
  -1   8   8   42.32    3.42
   0  -8  -8   89.52    2.97
   0   8  -8   89.24    4.54
   0   8   8   84.34    4.75
  -1  -8  -8   11.82    1.67
  -1   8  -8    8.66    2.25
   1   8   8    9.79    2.37
  -2  -8  -8  250.30    5.04
  -2   8  -8  236.59    7.24
   2   8   8  258.93    8.38
   3   8   8  322.63    9.48
  -3  -8  -8  294.07    5.77
  -3   8  -8  269.24    7.88
  -4  -8  -8    3.77    1.50
  -4   8  -8    6.14    2.32
   4   8   8    5.32    2.54
  -5  -8  -8   21.80    2.24
  -5   8  -8   17.83    2.89
  -6  -8  -8    3.98    1.99
  -6  -8  -8    5.21    1.81
  -6   8  -8    4.83    2.62
  -7  -8  -8   13.32    2.51
  -7  -8  -8   12.30    2.21
  -7   8  -8   10.65    2.83
  -8  -8  -8   43.03    3.65
  -8   8  -8   35.93    3.94
  -8  -8  -8   40.98    3.42
  -9  -8  -8  108.17    5.33
  -9   8  -8   95.96    6.07
  -9  -8  -8   91.54    5.00
 -10  -8  -8   25.14    3.35
 -14   9   8   -0.93    6.25
 -13   9   8    4.98    6.13
 -12   9   8   10.66    6.41
 -11   9   8   82.16   10.07
 -10   9   8   26.64    7.36
  -9   9   8  302.37   16.83
  -8   9   8   86.22    9.79
  -7   9   8   -0.87    4.94
   6  -9  -8  129.88    3.42
   6  -9  -8  136.31    3.58
   6   9  -8  127.88    5.99
   5  -9  -8  124.54    3.39
   5   9  -8  122.86    5.68
   4  -9  -8   15.71    1.51
   4   9  -8   12.20    2.52
  -4   9   8   20.98    2.57
   3  -9  -8  302.87    4.99
  -3   9   8  330.92    8.19
   3   9  -8  299.24    8.04
  -2   9   8   99.83    4.87
   2  -9  -8   92.95    2.93
   2   9  -8   83.49    4.49
  -1   9   8  124.16    5.51
   1  -9  -8  116.42    3.32
   1   9  -8  107.76    5.06
   0   9   8    6.95    2.41
   0  -9  -8    2.50    1.19
   0   9  -8    3.94    2.06
   1   9   8  355.01    9.49
  -1  -9  -8  352.24    5.82
  -1   9  -8  336.24    8.67
  -2  -9  -8  128.09    3.72
   2   9   8  132.39    6.26
  -2   9  -8  120.54    5.48
  -3  -9  -8    3.12    1.43
  -3   9  -8    4.80    2.23
   3   9   8    3.71    2.22
   4   9   8    6.28    2.54
  -4  -9  -8    5.31    1.64
  -4   9  -8    4.73    2.28
  -5  -9  -8   40.76    2.75
  -5   9  -8   37.07    3.68
   5   9   8   49.52    4.61
  -6  -9  -8    0.06    1.74
  -6   9  -8    0.05    2.47
  -7  -9  -8   86.93    4.45
  -7   9  -8   92.68    5.57
  -7  -9  -8   99.72    4.47
  -8  -9  -8  109.85    5.19
  -8   9  -8   92.50    5.83
  -8  -9  -8   98.99    4.75
  -9  -9  -8   24.41    3.12
  -9   9  -8   25.31    4.01
  -9  -9  -8   20.60    3.06
 -10  -9  -8   16.53    3.12
 -14  10   8   11.21    6.54
 -13  10   8  147.23   13.39
 -12  10   8    9.15    6.58
 -11  10   8    2.13    5.84
 -10  10   8   16.16    6.64
  -9  10   8    6.34    5.88
  -8  10   8  151.62   12.41
  -7  10   8   27.99    7.06
   6 -10  -8  165.11    3.93
   6  10  -8  155.27    6.90
   5 -10  -8   26.84    1.89
   5  10  -8   19.52    2.96
  -4  10   8   55.60    3.67
   4 -10  -8   51.87    2.38
   4  10  -8   45.92    3.85
   3 -10  -8    3.53    1.22
   3  10  -8    4.57    2.28
  -3  10   8    9.52    2.14
   2 -10  -8  107.51    3.21
   2  10  -8   98.93    4.99
  -2  10   8  119.23    5.37
   1 -10  -8  116.36    3.32
   1  10  -8  118.69    5.40
  -1  10   8  147.70    5.94
   0 -10  -8    2.84    1.24
   0  10  -8    1.76    1.98
   0  10   8    4.71    2.24
  -1 -10  -8   30.52    2.12
  -1  10  -8   27.83    3.21
   1  10   8   30.40    3.30
   2  10   8    2.60    2.42
  -2 -10  -8    2.94    1.40
  -2  10  -8    3.18    2.12
   3  10   8  131.46    6.39
  -3 -10  -8  105.25    3.65
  -3  10  -8  104.98    5.38
  -4 -10  -8   11.21    1.84
   4  10   8    8.59    2.81
  -4  10  -8   15.50    2.93
  -5 -10  -8   10.02    1.96
  -5  10  -8    9.60    2.75
   5  10   8   10.44    2.70
   6  10   8   46.35    4.64
  -6 -10  -8   44.13    3.06
  -6  10  -8   38.47    4.05
  -7 -10  -8   41.90    3.18
  -7  10  -8   42.03    4.46
  -8 -10  -8   54.10    3.92
  -8 -10  -8   50.37    3.64
  -8  10  -8   56.32    5.03
  -9 -10  -8   29.63    3.38
  -9  10  -8   27.69    4.07
  -9 -10  -8   23.61    3.07
 -14  11   8    0.94    6.21
 -13  11   8    7.44    6.00
 -12  11   8    2.19    5.90
 -11  11   8   78.71   10.50
 -10  11   8   23.19    7.25
  -9  11   8   94.42   10.86
  -8  11   8  126.53   12.30
  -7  11   8   -6.80    6.08
   6 -11  -8   36.59    2.11
  -6  11   8   41.44    3.05
   6  11  -8   33.89    3.84
   5 -11  -8  278.64    5.13
   5  11  -8  272.69    8.97
  -5  11   8  307.89    7.73
   4 -11  -8   32.58    2.04
   4  11  -8   29.20    3.47
  -4  11   8   27.68    2.88
   3 -11  -8  244.81    4.70
  -3  11   8  278.29    7.76
   3  11  -8  237.13    8.00
   2 -11  -8   61.94    2.59
  -2  11   8   69.63    4.22
   2  11  -8   63.12    4.44
   1 -11  -8   42.94    2.30
  -1  11   8   48.58    3.85
   1  11  -8   39.91    3.57
   0 -11  -8    7.60    1.44
   0  11   8   13.46    2.49
   0  11  -8    8.23    2.36
  -1 -11  -8  152.76    4.09
  -1  11  -8  152.45    6.44
   1  11   8  167.18    6.82
  -2 -11  -8   30.78    2.20
  -2  11  -8   25.61    3.33
   2  11   8   31.12    3.41
  -3 -11  -8   37.84    2.42
  -3  11  -8   31.52    3.47
   3  11   8   31.91    3.72
   4  11   8   88.66    5.63
  -4 -11  -8   90.95    3.64
  -4  11  -8   87.20    5.23
   5  11   8   28.29    3.90
  -5 -11  -8   21.27    2.39
  -5  11  -8   18.03    3.09
  -6 -11  -8    3.97    1.90
  -6  11  -8    3.94    2.63
   6  11   8    4.41    2.61
  -7 -11  -8  141.75    5.18
  -7  11  -8  144.07    7.03
   7  11   8  158.26    7.80
  -8 -11  -8   82.61    4.46
  -8  11  -8   81.10    5.60
  -9 -11  -8   17.20    2.93
  -9  11  -8   19.67    3.81
 -14  12   8    5.98    6.42
 -13  12   8   -0.28    6.06
 -12  12   8  198.42   15.63
 -11  12   8  128.50   13.15
 -10  12   8  119.25   12.36
  -9  12   8   40.10    8.05
  -8  12   8   30.58    7.43
  -7  12   8   93.34   10.60
   6 -12  -8  190.89    4.38
   6  12  -8  190.08    8.33
  -6  12   8  227.41    6.47
   5 -12  -8  125.88    3.62
   5  12  -8  125.14    6.57
   4 -12  -8  166.82    4.07
  -4  12   8  182.06    6.26
   4  12  -8  155.73    6.93
   3 -12  -8  315.17    5.39
  -3  12   8  329.40    8.55
   3  12  -8  306.65    9.32
  -2  12   8  176.46    6.53
   2 -12  -8  155.68    3.92
   2  12  -8  142.15    6.39
  -1  12   8    3.22    2.04
   1 -12  -8    1.87    1.23
   1  12  -8    0.39    2.26
   0  12   8   55.05    4.28
   0 -12  -8   50.33    2.54
   0  12  -8   45.75    4.04
  -1 -12  -8   34.67    2.23
   1  12   8   42.19    3.94
  -1  12  -8   30.06    3.43
   2  12   8    7.58    2.82
  -2 -12  -8    5.70    1.52
  -2  12  -8    6.63    2.57
  -3 -12  -8   96.96    3.67
  -3  12  -8   89.52    5.31
   3  12   8  100.27    5.80
  -4 -12  -8  229.27    5.59
  -4  12  -8  224.97    8.18
   4  12   8  246.91    8.94
  -5 -12  -8   13.35    2.13
  -5  12  -8   13.21    3.14
   6  12   8   11.59    3.04
  -6 -12  -8    7.99    2.07
  -6  12  -8   16.07    3.46
  -7 -12  -8   90.48    4.39
  -7  12  -8   85.97    6.03
   7  12   8  100.68    6.50
  -8 -12  -8   23.70    2.92
  -8  12  -8   27.43    4.27
   8  12   8   28.38    4.38
  -9 -12  -8    3.41    2.40
 -13  13   8   20.82    8.06
 -12  13   8   44.32    9.84
 -11  13   8   87.50   11.39
 -10  13   8    9.63    7.30
  -9  13   8   -1.46    5.92
  -8  13   8   41.85    8.41
  -7  13   8   84.87   10.14
   6 -13  -8    6.69    1.40
  -6  13   8    6.02    1.97
   6  13  -8    2.57    2.70
   5 -13  -8   88.42    3.15
  -5  13   8   96.00    4.57
   5  13  -8   82.16    5.74
  -4  13   8   15.26    2.71
   4 -13  -8   16.52    1.78
   4  13  -8   15.16    3.38
  -3  13   8  123.22    5.73
   3 -13  -8  108.08    3.40
   3  13  -8  109.72    6.23
  -2  13   8   62.22    4.26
   2 -13  -8   56.87    2.53
   2  13  -8   53.70    4.41
  -1  13   8  298.56    8.91
   1 -13  -8  281.06    5.29
   1  13  -8  264.45    8.79
   0  13   8  196.63    7.58
   0 -13  -8  191.07    4.53
   0  13  -8  180.00    7.34
   1  13   8   70.63    4.97
  -1 -13  -8   51.54    2.58
  -1  13  -8   57.42    4.53
   2  13   8  104.60    5.82
  -2 -13  -8   88.49    3.38
  -2  13  -8   90.67    5.58
  -3 -13  -8  167.63    4.67
   3  13   8  185.88    7.78
  -3  13  -8  157.06    6.94
  -4 -13  -8    8.59    1.86
   4  13   8    8.59    3.03
  -4  13  -8    9.15    2.93
  -5 -13  -8  254.59    6.16
  -5  13  -8  235.05    8.80
   5  13   8  273.75    9.79
   6  13   8  333.54   11.16
  -6 -13  -8  290.54    6.96
  -6  13  -8  295.68    9.97
  -7 -13  -8    1.12    2.04
   7  13   8    3.07    2.91
  -7  13  -8    0.87    2.79
   8  13   8   27.70    4.23
  -8 -13  -8   22.11    2.91
  -8  13  -8   24.25    4.02
  -9 -13  -8   34.13    3.47
 -13  14   8   39.63    9.16
 -12  14   8   80.42   11.68
 -11  14   8   12.59    7.35
 -10  14   8   30.64    9.05
  -9  14   8   -6.55    6.83
  -8  14   8    3.05    6.83
  -7  14   8   78.10   10.49
  -6  14   8  124.65    5.16
   6 -14  -8  125.47    3.81
   6  14  -8   94.36    6.52
  -5  14   8   26.80    2.85
   5 -14  -8   19.04    1.95
   5  14  -8   18.52    3.85
   4 -14  -8   40.75    2.38
   4  14  -8   36.54    4.31
  -4  14   8   40.69    3.60
   3 -14  -8   74.00    2.92
   3  14  -8   70.42    5.29
  -3  14   8   88.34    4.85
   2 -14  -8    2.17    1.35
   2  14  -8    4.23    2.58
  -2  14   8    1.75    2.09
   1 -14  -8    2.73    1.31
   1  14  -8    0.58    2.41
   0  14   8    5.80    2.56
   0 -14  -8    1.41    1.36
   0  14  -8   -0.49    2.42
  -1 -14  -8   78.04    3.14
  -1  14  -8   71.39    5.18
   1  14   8   77.82    5.09
   2  14   8  149.32    7.04
  -2 -14  -8  140.62    4.26
  -2  14  -8  126.69    6.67
  -3 -14  -8    0.27    1.49
  -3  14  -8    3.27    2.56
   3  14   8    2.26    2.61
   4  14   8   13.95    3.21
  -4 -14  -8   10.63    1.94
  -4  14  -8   13.97    3.27
  -5 -14  -8   11.84    2.19
   5  14   8   13.28    3.38
  -5  14  -8   10.35    3.10
  -6 -14  -8    9.08    2.05
  -6  14  -8   13.56    3.54
   6  14   8   14.20    3.42
   7  14   8   13.70    3.42
  -7 -14  -8    7.07    2.17
  -7  14  -8    6.07    3.13
  -8 -14  -8   31.29    3.29
  -8  14  -8   31.41    4.61
   8  14   8   30.81    4.27
 -12  15   8   37.99   10.23
 -11  15   8  189.41   16.13
 -10  15   8   11.69    7.22
  -9  15   8  122.53   13.12
  -8  15   8   63.17   10.04
  -7  15   8  261.78   17.28
  -6  15   8    0.66    1.85
   6 -15  -8    2.46    1.39
   6  15  -8    0.67    3.08
   5 -15  -8  177.37    4.50
   5  15  -8  167.58    8.55
  -5  15   8  189.28    6.65
   4 -15  -8    5.02    1.51
  -4  15   8    4.38    2.24
   4  15  -8    0.21    2.71
   3 -15  -8  106.90    3.50
  -3  15   8  116.69    5.69
   3  15  -8  103.16    6.59
   2 -15  -8    1.04    1.33
  -2  15   8    5.12    2.33
   2  15  -8    1.70    2.60
   1 -15  -8  385.49    6.40
   1  15  -8  366.40   11.26
  -1  15   8  419.49   10.80
   0 -15  -8   66.41    2.99
   0  15  -8   67.23    5.27
   0  15   8   75.34    4.99
  -1 -15  -8   99.89    3.58
  -1  15  -8   94.63    6.03
   1  15   8   96.48    5.83
  -2 -15  -8   45.24    2.73
  -2  15  -8   39.09    4.42
   2  15   8   43.91    4.33
   3  15   8  123.87    6.67
  -3 -15  -8  122.18    4.19
  -3  15  -8  109.52    6.61
  -4 -15  -8    0.72    1.76
  -4  15  -8    2.04    2.84
   4  15   8    1.50    2.57
  -5 -15  -8   57.88    3.42
   5  15   8   68.71    5.43
  -5  15  -8   57.75    5.39
  -6 -15  -8    6.79    2.13
   6  15   8    9.87    3.23
  -6  15  -8   12.80    3.51
  -7 -15  -8    9.83    2.42
  -7  15  -8   14.58    3.66
   7  15   8    9.69    3.61
  -8 -15  -8   33.13    3.27
 -12  16   8  308.24   20.65
 -11  16   8  297.13   20.02
 -10  16   8  189.81   15.94
  -9  16   8   75.20   11.12
  -8  16   8    2.97    6.59
  -7  16   8   31.29    8.16
   6 -16  -8   36.61    2.89
  -6  16   8   22.91    2.78
   6  16  -8   28.41    4.80
   5 -16  -8   62.31    2.87
  -5  16   8   57.21    4.07
   5  16  -8   68.67    5.98
   4 -16  -8  333.86    6.08
  -4  16   8  355.48    9.40
   4  16  -8  298.49   11.11
   3 -16  -8  524.37    7.46
  -3  16   8  597.22   12.58
   3  16  -8  534.69   14.43
   2 -16  -8   83.34    3.20
  -2  16   8   97.69    5.57
   2  16  -8   86.96    6.27
   1 -16  -8    3.02    1.39
  -1  16   8    7.09    2.65
   1  16  -8    3.54    2.88
   0 -16  -8    2.52    1.47
   0  16   8    3.41    2.47
   0  16  -8    0.45    2.87
  -1 -16  -8   16.27    1.97
   1  16   8   15.53    3.08
  -1  16  -8   14.55    3.26
  -2 -16  -8   18.16    2.13
  -2  16  -8   12.55    3.55
   2  16   8   17.71    3.41
  -3 -16  -8   62.51    3.27
  -3  16  -8   56.50    5.36
   3  16   8   67.70    5.45
   4  16   8   76.94    5.63
  -4 -16  -8   77.91    3.69
  -4  16  -8   66.94    5.67
   5  16   8   29.57    4.10
  -5 -16  -8   34.93    2.88
  -5  16  -8   26.04    4.13
  -6 -16  -8  151.22    5.48
   6  16   8  162.20    8.24
  -6  16  -8  152.66    8.37
  -7 -16  -8   11.32    2.44
   7  16   8    8.28    3.27
  -7  16  -8   10.97    3.80
  -8 -16  -8   12.43    2.65
 -12  17   8  280.95   20.44
 -11  17   8  250.39   19.47
 -10  17   8   27.70    8.41
  -9  17   8  298.49   19.29
  -8  17   8   30.43    8.17
   6  17  -8    4.77    3.79
   6 -17  -8    4.51    1.52
  -6  17   8    7.24    2.27
   5 -17  -8  297.67    5.84
  -5  17   8  316.73    9.14
   5  17  -8  287.44   11.55
   4 -17  -8   69.23    3.10
  -4  17   8   77.82    4.99
   4  17  -8   65.12    6.06
   3 -17  -8  121.66    3.83
  -3  17   8  144.85    6.57
   3  17  -8  119.53    7.37
   2 -17  -8   92.60    3.47
  -2  17   8  110.87    5.92
   2  17  -8   88.44    6.54
   1 -17  -8   29.36    2.22
  -1  17   8   30.08    3.63
   1  17  -8   27.77    4.34
   0 -17  -8    6.59    1.67
   0  17   8    5.65    2.79
   0  17  -8    1.79    2.76
  -1 -17  -8  203.87    5.15
   1  17   8  217.72    8.64
  -1  17  -8  203.81    9.12
  -2 -17  -8  115.75    4.11
  -2  17  -8  108.36    7.00
   2  17   8  114.93    6.76
  -3 -17  -8   16.05    2.19
  -3  17  -8   11.33    3.40
   3  17   8   13.11    3.29
  -4 -17  -8   74.89    3.65
  -4  17  -8   63.68    5.96
   4  17   8   80.75    5.90
  -5 -17  -8    2.02    1.98
   5  17   8    0.27    2.94
  -5  17  -8    0.28    3.13
   6  17   8    4.06    3.49
  -6 -17  -8    1.84    2.04
  -6  17  -8    0.75    3.16
  -7 -17  -8  199.33    6.42
   7  17   8  215.11    9.53
  -7  17  -8  177.50    9.28
 -11  18   8    4.88    7.70
 -10  18   8    1.43    7.17
  -9  18   8   -6.06    7.53
  -8  18   8   -3.19    6.50
   6 -18  -8   35.79    2.44
  -6  18   8   40.43    3.69
   6  18  -8   36.74    5.42
  -5  18   8    2.16    2.30
   5 -18  -8   -0.40    1.44
   5  18  -8    4.07    3.96
  -4  18   8   14.32    3.04
   4 -18  -8   13.56    1.85
   4  18  -8    9.35    3.58
   3 -18  -8   25.80    2.18
  -3  18   8   29.80    3.63
   3  18  -8   18.97    4.11
  -2  18   8    9.88    2.97
   2 -18  -8    6.46    1.67
   2  18  -8    4.93    3.22
  -1  18   8   14.61    3.14
   1 -18  -8   15.73    1.89
   1  18  -8   20.01    4.24
   0  18   8    3.66    2.67
   0 -18  -8    3.91    1.68
   0  18  -8    3.44    2.99
   1  18   8    9.44    3.08
  -1 -18  -8    5.85    1.78
  -1  18  -8    5.52    3.47
  -2 -18  -8    1.20    1.68
   2  18   8    3.30    2.95
  -2  18  -8    3.44    3.25
  -3 -18  -8   41.93    2.90
  -3  18  -8   34.58    4.82
   3  18   8   34.27    4.36
  -4 -18  -8   35.51    2.93
  -4  18  -8   39.90    5.15
   4  18   8   37.81    4.68
   5  18   8    6.53    3.03
  -5 -18  -8    5.11    2.12
  -5  18  -8    8.40    3.64
  -6 -18  -8    1.76    2.00
  -6  18  -8    4.87    3.56
   6  18   8    5.07    3.19
  -7 -18  -8    0.09    2.15
 -11  19   8   13.68    7.76
 -10  19   8   -2.71    7.65
  -9  19   8  211.93   17.59
  -8  19   8   24.54    8.70
   7 -19  -8   21.23    2.22
  -6  19   8    5.84    2.37
   6 -19  -8    6.91    1.67
   5 -19  -8  163.76    4.64
  -5  19   8  169.01    7.09
   5  19  -8  157.58    9.68
   4 -19  -8    4.80    1.65
  -4  19   8    7.82    2.71
   4  19  -8    3.67    3.72
  -3  19   8  242.09    8.82
   3 -19  -8  226.07    5.32
   3  19  -8  231.11   10.90
  -2  19   8  244.83    9.07
   2 -19  -8  227.47    5.33
   2  19  -8  201.22    9.86
   1 -19  -8   33.83    2.42
  -1  19   8   38.90    4.32
   1  19  -8   36.78    4.97
   0 -19  -8   43.48    2.78
   0  19   8   47.14    4.54
   0  19  -8   41.62    5.37
  -1 -19  -8  319.93    6.57
  -1  19  -8  288.19   11.65
  -2 -19  -8   97.45    3.99
   2  19   8  100.69    6.59
  -2  19  -8   75.67    6.53
  -3 -19  -8  111.20    4.25
   3  19   8  116.19    6.95
  -3  19  -8  106.41    7.51
  -4 -19  -8  296.53    6.99
  -4  19  -8  284.71   11.83
   4  19   8  324.77   11.45
   5  19   8    4.13    3.01
  -5 -19  -8    4.89    2.01
  -6 -19  -8    0.65    2.08
   6  19   8    3.10    2.93
  -6  19  -8   -3.31    3.53
 -10  20   8   39.40   10.41
  -9  20   8  115.54   14.13
  -8  20   8    4.92    6.86
   7 -20  -8    1.79    1.74
   6  20  -8    6.24    4.23
   6 -20  -8    6.25    1.71
  -6  20   8    8.41    2.60
  -5  20   8   66.69    4.92
   5 -20  -8   54.00    2.98
   5  20  -8   47.22    6.44
  -4  20   8  240.25    9.00
   4 -20  -8  225.48    5.47
   4  20  -8  210.89   11.18
  -3  20   8  277.21    9.75
   3 -20  -8  253.76    5.74
   3  20  -8  248.85   11.57
   2 -20  -8    3.37    1.69
  -2  20   8    6.23    3.04
   2  20  -8    5.68    3.98
   1 -20  -8   15.49    2.02
   1  20  -8   20.13    4.46
  -1  20   8   17.40    3.50
   0 -20  -8    6.01    1.82
   0  20  -8    8.12    3.90
   0  20   8    7.39    3.15
  -1 -20  -8   72.75    3.42
   1  20   8   93.64    6.42
  -1  20  -8   65.71    6.21
  -2 -20  -8  112.74    4.31
   2  20   8  125.79    7.38
  -2  20  -8  103.13    7.79
  -3 -20  -8   83.93    3.85
   3  20   8   84.93    6.40
  -3  20  -8   67.84    6.44
  -4 -20  -8   39.83    3.13
   4  20   8   46.77    5.19
  -4  20  -8   38.96    5.45
  -5 -20  -8   37.85    3.18
  -5  20  -8   43.26    5.76
   5  20   8   42.26    5.00
  -6 -20  -8   16.88    2.76
 -10  21   8   16.04    9.23
  -9  21   8    4.16    7.68
  -8  21   8   52.37   10.36
   7 -21  -8  266.72    6.14
   6  21  -8   14.50    5.19
   6 -21  -8   18.91    2.26
  -6  21   8   15.04    3.06
   5  21  -8   21.52    5.41
  -5  21   8   31.20    4.05
   5 -21  -8   23.74    2.26
   4  21  -8    8.52    4.58
   4 -21  -8    3.93    1.66
  -4  21   8   10.87    2.85
  -3  21   8   32.15    4.13
   3 -21  -8   30.25    2.42
   3  21  -8   29.98    5.28
  -2  21   8   37.36    4.50
   2 -21  -8   32.51    2.52
   2  21  -8   33.04    5.43
  -1  21   8  297.36   10.76
   1 -21  -8  259.72    5.91
   1  21  -8  256.60   11.86
   0  21   8  164.37    8.25
   0 -21  -8  145.47    4.65
   0  21  -8  144.53    9.03
  -1 -21  -8    1.68    1.59
   1  21   8    0.85    2.87
   2  21   8   17.38    3.64
  -2 -21  -8   15.13    2.29
  -2  21  -8   11.70    4.26
  -3 -21  -8   29.36    2.73
   3  21   8   28.78    4.31
  -3  21  -8   27.16    5.16
  -4 -21  -8   22.81    2.73
   4  21   8   21.98    4.27
  -4  21  -8   16.74    4.36
  -5 -21  -8  123.21    4.98
  -5  21  -8  114.51    8.43
   5  21   8  118.29    7.55
  -9  22   8    7.71    8.24
   7 -22  -8   17.96    2.27
   6  22  -8   47.10    6.95
   6 -22  -8   52.54    3.12
   5  22  -8   14.27    5.08
   5 -22  -8   20.98    2.25
  -5  22   8   22.02    3.48
   4  22  -8   10.94    4.27
   4 -22  -8   14.44    2.07
  -4  22   8   15.66    3.28
  -3  22   8   30.22    4.07
   3 -22  -8   27.48    2.45
   3  22  -8   21.81    5.42
  -2  22   8   36.97    4.50
   2 -22  -8   34.62    2.58
   2  22  -8   29.95    5.64
   1 -22  -8    3.67    1.75
  -1  22   8    6.59    3.06
   1  22  -8    7.82    4.17
   0 -22  -8    3.41    1.74
   0  22   8    4.93    3.19
   0  22  -8    5.47    4.35
  -1 -22  -8    2.62    1.74
  -1  22  -8    4.74    3.96
   1  22   8    3.81    3.06
   2  22   8   -0.63    2.98
  -2 -22  -8    3.66    1.85
  -2  22  -8    7.33    4.32
  -3 -22  -8    1.73    2.00
  -3  22  -8   -4.26    3.96
   4  22   8   12.77    3.87
  -4 -22  -8    8.46    2.19
  -4  22  -8    6.96    4.19
  -5 -22  -8   28.68    3.05
   7 -23  -8  131.66    4.60
   6  23  -8   38.15    7.00
   6 -23  -8   31.54    2.72
   5  23  -8    8.01    5.14
   5 -23  -8   10.55    2.03
  -5  23   8   12.54    2.99
   4  23  -8    7.98    4.42
   4 -23  -8    4.95    1.80
  -4  23   8    2.77    2.55
   3  23  -8   18.69    5.35
   3 -23  -8   20.08    2.33
  -3  23   8   15.59    3.48
  -2  23   8   99.40    6.62
   2 -23  -8   94.46    3.96
   2  23  -8   82.89    7.98
  -1  23   8  110.54    6.99
   1 -23  -8  106.01    4.07
   1  23  -8   97.97    8.40
   0  23   8   52.36    5.50
   0 -23  -8   39.07    2.96
   0  23  -8   34.23    5.84
  -1 -23  -8   20.82    2.41
   1  23   8   21.26    4.26
  -1  23  -8   12.56    4.67
  -2 -23  -8    0.76    1.86
  -2  23  -8    4.14    3.74
   2  23   8    1.16    3.02
   3  23   8   26.56    4.70
  -3 -23  -8   16.66    2.50
  -3  23  -8   23.91    5.48
   4  23   8    5.17    3.75
  -4 -23  -8    1.66    2.08
  -4  23  -8    9.74    4.66
   7 -24  -8    1.00    1.88
   6 -24  -8  110.60    4.36
   5 -24  -8   48.79    3.11
  -5  24   8   46.38    4.77
   5  24  -8   48.57    7.57
   4  24  -8   -4.84    4.67
   4 -24  -8    0.47    1.74
  -4  24   8    3.00    2.86
   3 -24  -8  144.73    4.76
   3  24  -8  133.45   10.42
  -3  24   8  167.62    8.40
  -2  24   8  265.14   10.59
   2 -24  -8  265.10    6.31
   2  24  -8  250.98   13.23
   1 -24  -8   16.65    2.37
  -1  24   8   15.39    3.62
   1  24  -8   18.85    5.51
   0  24   8   21.92    4.33
   0 -24  -8   18.05    2.45
   0  24  -8   15.26    5.13
   1  24   8   48.89    5.53
  -1 -24  -8   38.51    3.01
  -1  24  -8   32.82    6.22
  -2 -24  -8   -0.47    1.92
   2  24   8    1.67    3.53
  -2  24  -8    4.72    4.61
   3  24   8   19.80    4.43
  -3 -24  -8   14.42    2.46
  -3  24  -8   14.06    5.02
   6 -25  -8   41.95    3.08
   5  25  -8   57.83    8.16
   5 -25  -8   76.00    3.83
  -5  25   8   65.67    5.50
   4  25  -8   33.37    6.67
   4 -25  -8   41.45    3.00
  -4  25   8   40.75    4.72
   3  25  -8   14.86    5.96
   3 -25  -8    6.93    1.99
  -3  25   8    7.32    3.11
   2  25  -8   25.82    6.30
   2 -25  -8   21.34    2.46
  -2  25   8   29.48    4.28
   1 -25  -8    1.64    1.81
  -1  25   8   -0.84    3.22
   1  25  -8   -3.40    4.83
   0 -25  -8    6.67    2.02
   0  25   8    6.10    3.38
   0  25  -8    8.04    4.47
   1  25   8  290.93   11.80
  -1 -25  -8  289.87    7.00
  -1  25  -8  277.14   14.27
   2  25   8  201.50   10.36
  -2 -25  -8  167.11    5.59
  -2  25  -8  159.90   11.30
   5  26  -8    3.77    5.18
   5 -26  -8    0.08    1.90
  -5  26   8    1.88    2.82
   4 -26  -8  126.36    4.68
  -4  26   8  130.98    7.61
   4  26  -8  117.81   10.68
   3  26  -8   17.16    5.65
   3 -26  -8   22.19    2.50
  -3  26   8   29.92    4.44
   2  26  -8   11.55    5.78
   2 -26  -8   17.23    2.37
  -2  26   8   16.52    3.94
   1 -26  -8   57.84    3.49
   1  26  -8   63.19    7.90
  -1  26   8   57.99    5.81
   0 -26  -8    4.79    2.11
   0  26   8    2.91    3.13
   0  26  -8    2.76    4.60
   1  26   8   70.42    6.27
  -1 -26  -8   74.56    3.91
  -1  26  -8   66.51    7.98
   5  27  -8   25.21    6.87
  -5  27   8   31.06    4.48
   4  27  -8   -2.32    5.61
  -4  27   8    0.75    2.84
  -3  27   8   84.14    6.56
   3  27  -8   78.12    9.37
   2  27  -8   -0.76    4.96
  -2  27   8   10.30    3.67
   1  27  -8   12.56    5.49
  -1  27   8   17.33    4.21
   0  27  -8    9.42    5.03
   0  27   8   15.59    4.25
   5  28  -8   26.83    7.15
   4  28  -8  183.57   13.69
  -4  28   8  204.06    9.76
   3  28  -8   24.53    7.10
  -3  28   8   11.66    3.45
   2  28  -8   36.83    7.66
  -2  28   8   36.47    5.17
  -1  28   8   10.23    3.89
   4  29  -8    2.15    5.58
  -4  29   8    6.65    3.07
  -3  29   8    9.96    3.31
  -2  29   8    3.72    3.49
   5   0  -9    9.58    1.97
   4   0  -9    1.47    1.59
   3   0  -9    2.30    1.81
   2   0  -9   -1.17    1.69
   1   0  -9    9.19    2.20
   0   0  -9    6.44    2.06
  -1   0  -9    4.94    1.97
  -2   0  -9   10.44    2.46
  -3   0  -9   -0.28    1.81
  -4   0  -9    1.31    2.01
  -5   0  -9    1.99    2.35
  -6   0  -9    9.06    3.05
  -7   0  -9    4.96    2.66
   5  -1  -9  233.98    5.86
   5   1  -9  225.78    6.02
   4  -1  -9   97.68    4.19
   4   1  -9   88.13    3.99
   3  -1  -9   38.03    2.80
   3   1  -9   39.84    2.90
   2  -1  -9    1.71    1.56
   2   1  -9    9.67    2.22
   1  -1  -9  314.88    6.96
   1   1  -9  328.07    7.57
   0  -1  -9  185.57    5.53
   0   1  -9  200.83    6.15
  -1  -1  -9  222.69    6.29
  -1   1  -9  218.71    6.48
  -2  -1  -9  393.83    8.50
  -2   1  -9  408.59    8.91
  -2  -1  -9  397.54    6.33
  -3  -1  -9    0.43    1.85
  -3   1  -9    1.20    2.02
  -3  -1  -9    3.34    1.42
  -4  -1  -9   28.34    3.11
  -4   1  -9   29.50    3.20
  -4  -1  -9   28.24    2.37
  -5  -1  -9   59.25    3.91
  -5   1  -9   60.20    4.21
  -5  -1  -9   54.83    3.20
  -6  -1  -9  277.63    8.13
  -6   1  -9  286.94    8.59
  -7  -1  -9   33.67    3.60
  -7   1  -9   31.87    3.75
   5  -2  -9  396.48    7.44
   5   2  -9  381.96    7.92
   4  -2  -9    6.17    1.69
   4   2  -9   14.91    2.36
   3  -2  -9   49.42    3.02
   3   2  -9   40.92    3.10
   2  -2  -9   28.90    2.49
   2  -2  -9   28.14    1.70
   1  -2  -9   78.80    3.72
   1  -2  -9   80.59    2.59
   1   2  -9   89.37    4.31
   0  -2  -9  351.27    7.58
   0   2  -9  388.49    8.96
   0  -2  -9  365.64    5.50
  -1  -2  -9  264.17    6.84
  -1   2  -9  238.80    6.85
  -1  -2  -9  243.81    4.79
  -2  -2  -9    4.24    2.12
  -2   2  -9   10.67    2.52
  -2  -2  -9    5.31    1.51
  -3  -2  -9    7.37    2.37
  -3   2  -9    4.44    2.29
  -3  -2  -9    8.77    1.70
  -4  -2  -9   16.39    2.95
  -4   2  -9   13.00    2.79
  -4  -2  -9   12.89    2.00
  -5  -2  -9   16.42    2.79
  -5   2  -9   17.85    3.01
  -5  -2  -9   14.97    2.22
  -6  -2  -9   23.71    3.16
  -6   2  -9   22.61    3.41
  -6  -2  -9   18.65    2.54
  -7  -2  -9   58.92    4.26
  -7   2  -9   56.18    4.88
  -7  -2  -9   49.77    3.61
   5  -3  -9    3.82    1.56
   5   3  -9   11.19    2.21
   4  -3  -9   46.86    2.02
   4  -3  -9   40.86    2.66
   4   3  -9   42.03    3.21
   3  -3  -9  354.42    5.06
   3  -3  -9  334.09    6.86
   3   3  -9  320.75    7.56
   2  -3  -9  126.44    4.51
   2  -3  -9  128.04    3.14
   2   3  -9  123.84    4.96
   1  -3  -9    9.34    1.92
   1  -3  -9   10.84    1.39
   1   3  -9   11.72    2.26
   0  -3  -9   10.92    2.18
   0  -3  -9    9.75    1.43
   0   3  -9   11.75    2.34
  -1  -3  -9   43.19    3.22
  -1   3  -9   42.13    3.47
  -1  -3  -9   41.32    2.28
  -2  -3  -9    3.27    1.95
  -2   3  -9    4.98    2.29
  -2  -3  -9    5.23    1.49
  -3  -3  -9  196.44    6.24
  -3   3  -9  203.05    7.21
  -3  -3  -9  190.96    4.82
  -4  -3  -9  365.87    8.58
  -4   3  -9  387.99   10.07
  -4  -3  -9  358.26    6.94
  -5  -3  -9   84.48    4.71
  -5   3  -9   77.08    4.82
  -5  -3  -9   70.64    3.61
  -6  -3  -9   10.53    2.60
  -6   3  -9    9.20    2.84
  -6  -3  -9    7.45    2.11
  -7  -3  -9    7.12    2.59
  -7   3  -9    4.28    2.74
  -7  -3  -9    8.10    2.19
  -8  -3  -9   28.72    3.21
  -9  -3  -9    2.15    2.48
  -9   4   9   32.24    7.02
   6  -4  -9   30.35    1.86
   5  -4  -9   33.27    1.83
   5  -4  -9   31.41    2.31
   5   4  -9   32.65    2.94
   4  -4  -9   17.58    1.46
   4  -4  -9   15.87    1.89
   4   4  -9   14.73    2.37
   3  -4  -9   95.52    3.85
   3  -4  -9   98.60    2.82
   3   4  -9   95.62    4.45
   2  -4  -9   74.47    3.61
   2  -4  -9   77.87    2.62
   2   4  -9   69.91    4.00
   1  -4  -9   16.38    2.17
   1  -4  -9   17.97    1.57
   1   4  -9   17.35    2.48
   0  -4  -9   33.66    2.77
   0  -4  -9   36.81    2.11
   0   4  -9   33.71    3.15
  -1  -4  -9   20.34    2.45
  -1  -4  -9   16.52    1.73
  -1   4  -9   17.58    2.64
  -2  -4  -9    1.76    1.80
  -2  -4  -9    5.13    1.46
  -2   4  -9    2.19    1.97
  -3  -4  -9    8.71    2.28
  -3   4  -9    7.29    2.56
  -3  -4  -9    7.19    1.69
  -4  -4  -9   15.51    2.72
  -4   4  -9   13.64    3.05
  -4  -4  -9   12.41    2.01
  -5  -4  -9  112.33    5.18
  -5   4  -9  111.04    5.62
  -5  -4  -9  111.78    4.29
  -6  -4  -9    2.97    2.21
  -6   4  -9   -0.33    2.40
  -6  -4  -9   -0.76    1.85
  -7  -4  -9   32.91    3.49
  -7   4  -9   27.81    3.60
  -7  -4  -9   23.91    2.92
  -8  -4  -9   25.49    3.17
  -9  -4  -9    7.61    2.72
 -10   5   9   42.32    8.51
  -9   5   9   70.78    8.94
   7  -5  -9   86.71    2.86
   6  -5  -9   87.86    2.85
   5  -5  -9    4.39    1.15
   5  -5  -9    5.35    1.53
   5   5  -9    5.81    2.05
   4  -5  -9   34.86    1.91
   4  -5  -9   39.85    2.66
   4   5  -9   30.89    3.00
   3  -5  -9   45.40    2.81
   3  -5  -9   47.77    2.16
   3   5  -9   42.20    3.27
   2  -5  -9  156.06    4.85
   2  -5  -9  154.78    3.61
   2   5  -9  153.85    5.68
   1  -5  -9   13.26    2.21
   1  -5  -9   14.01    1.63
   1   5  -9   11.48    2.39
   0  -5  -9   15.62    2.19
   0  -5  -9   13.47    1.58
   0   5  -9   16.69    2.59
  -1  -5  -9    9.42    2.08
  -1  -5  -9    5.64    1.47
  -1   5  -9    2.90    2.18
  -2  -5  -9   13.66    2.30
  -2  -5  -9   12.84    1.72
  -2   5  -9   12.58    2.62
  -3  -5  -9  137.47    5.15
  -3   5  -9  132.21    5.81
  -3  -5  -9  137.55    4.17
  -4  -5  -9  262.42    7.25
  -4   5  -9  256.00    8.06
  -4  -5  -9  256.61    5.88
  -5  -5  -9    6.62    2.43
  -5   5  -9    9.03    2.93
  -5  -5  -9    2.28    1.68
  -6  -5  -9    1.87    2.29
  -6   5  -9    2.26    2.55
  -6  -5  -9    4.90    1.96
  -7  -5  -9    0.16    2.24
  -7   5  -9    5.10    2.74
  -7  -5  -9    0.94    2.07
  -8  -5  -9    4.51    2.25
  -9  -5  -9   63.50    4.53
 -11   6   9    5.33    5.83
 -10   6   9    7.65    6.19
  -9   6   9   54.23    8.64
   7  -6  -9  323.29    5.33
   6  -6  -9  205.92    4.19
   5  -6  -9    2.00    1.19
   5  -6  -9    2.67    1.55
   5   6  -9    0.10    1.94
   4  -6  -9    5.22    1.33
   4  -6  -9    1.17    1.40
   4   6  -9    3.81    2.10
   3  -6  -9    3.60    1.48
   3  -6  -9    3.34    1.16
   3   6  -9    2.01    1.87
   2  -6  -9  107.07    3.98
   2  -6  -9  111.24    3.21
   2   6  -9  110.89    5.04
   1  -6  -9  239.64    6.03
   1  -6  -9  241.98    4.74
   1   6  -9  225.34    7.01
   0  -6  -9  146.67    4.96
   0  -6  -9  137.17    3.70
   0   6  -9  124.11    5.40
  -1  -6  -9  119.78    4.64
  -1  -6  -9  119.33    3.59
  -1   6  -9  110.57    5.23
  -2  -6  -9  148.47    5.31
  -2  -6  -9  144.33    4.14
  -2   6  -9  133.06    5.87
  -3  -6  -9    1.19    1.89
  -3  -6  -9    1.31    1.52
  -3   6  -9    2.13    2.26
  -4  -6  -9   41.66    3.36
  -4   6  -9   41.86    3.98
  -4  -6  -9   41.61    2.76
  -5  -6  -9   29.66    3.15
  -5   6  -9   27.65    3.57
  -5  -6  -9   30.09    2.62
  -6  -6  -9   44.59    3.72
  -6   6  -9   32.32    3.94
  -6  -6  -9   33.03    2.88
  -7  -6  -9    5.98    2.59
  -7   6  -9    7.34    2.90
  -7  -6  -9    4.31    2.17
  -8  -6  -9   23.75    3.09
  -9  -6  -9  107.97    5.53
 -12   7   9  100.82   11.81
 -11   7   9  160.94   13.97
 -10   7   9   94.54   10.94
  -9   7   9   90.12   10.33
   7  -7  -9  153.02    3.83
   6  -7  -9    5.82    1.31
   5  -7  -9  251.44    4.67
   5  -7  -9  250.91    5.50
   5   7  -9  227.51    7.42
   4  -7  -9  171.31    4.73
   4  -7  -9  170.09    3.88
   4   7  -9  154.20    6.05
   3  -7  -9   11.45    1.46
   3  -7  -9    9.92    1.82
   3   7  -9   11.09    2.46
   2  -7  -9   16.97    2.08
   2  -7  -9   17.49    1.67
   2   7  -9   14.37    2.55
   1  -7  -9  108.23    4.18
   1  -7  -9  106.24    3.23
   1   7  -9  100.27    4.95
   0  -7  -9  200.95    5.69
   0  -7  -9  198.08    4.49
   0   7  -9  192.30    6.82
  -1  -7  -9    4.71    1.89
  -1  -7  -9    5.35    1.57
  -1   7  -9    6.90    2.47
  -2  -7  -9  105.79    4.52
  -2  -7  -9  102.95    3.59
  -2   7  -9  101.55    5.28
  -3  -7  -9    6.23    2.22
  -3  -7  -9    1.25    1.48
  -3   7  -9    2.85    2.43
  -4  -7  -9   27.28    3.03
  -4  -7  -9   27.29    2.47
  -4   7  -9   25.80    3.40
  -5  -7  -9  108.94    5.06
  -5   7  -9   86.46    5.42
  -5  -7  -9   92.08    4.07
  -6  -7  -9   42.95    3.59
  -6   7  -9   44.61    4.33
  -6  -7  -9   43.67    3.29
  -7  -7  -9    3.78    2.58
  -7   7  -9    0.39    2.61
  -7  -7  -9    1.29    2.03
  -8  -7  -9   66.82    4.32
  -9  -7  -9    2.48    2.51
 -12   8   9    4.60    6.68
 -11   8   9    1.03    6.07
 -10   8   9   -4.32    6.25
  -9   8   9    5.24    6.27
   7  -8  -9    5.97    1.36
   6  -8  -9  134.14    3.64
   5  -8  -9    7.01    1.38
   5  -8  -9    6.21    1.55
   5   8  -9    3.80    2.27
   4  -8  -9  151.27    4.54
   4  -8  -9  147.66    3.72
   4   8  -9  127.99    5.89
   3  -8  -9  147.13    4.48
   3  -8  -9  150.29    3.75
   3   8  -9  140.96    5.93
   2  -8  -9   64.65    3.28
   2  -8  -9   65.47    2.72
   2   8  -9   61.33    4.21
   1  -8  -9   64.04    3.31
   1  -8  -9   66.11    2.70
   1   8  -9   59.07    4.15
   0  -8  -9    4.71    1.81
   0  -8  -9    3.88    1.38
   0   8  -9    2.50    2.19
  -1  -8  -9   18.87    2.41
  -1  -8  -9   14.64    1.81
  -1   8  -9   17.45    2.91
  -2  -8  -9   16.05    2.43
  -2  -8  -9   15.50    1.92
  -2   8  -9   13.64    2.85
  -3  -8  -9   90.36    4.39
  -3  -8  -9   85.53    3.56
  -3   8  -9   83.10    5.15
  -4  -8  -9   13.44    2.40
  -4  -8  -9    8.89    1.93
  -4   8  -9   11.74    2.85
  -5  -8  -9   29.52    3.17
  -5  -8  -9   29.14    2.78
  -5   8  -9   25.57    3.67
  -6  -8  -9    0.36    2.21
  -6  -8  -9    4.43    2.04
  -6   8  -9   -0.12    2.66
  -7  -8  -9   48.97    3.93
  -7   8  -9   44.96    4.57
  -7  -8  -9   44.31    3.53
  -8  -8  -9   15.21    2.83
 -13   9   9   77.87   11.88
 -12   9   9    8.38    6.97
 -11   9   9   93.71   11.79
 -10   9   9  101.62   11.67
  -9   9   9    5.35    5.69
   7  -9  -9   72.90    2.89
   6  -9  -9   71.21    2.84
   5  -9  -9  187.09    4.90
   5  -9  -9  179.58    4.16
   5   9  -9  158.63    6.85
   4  -9  -9  116.53    4.01
   4  -9  -9  118.57    3.42
   4   9  -9  104.84    5.51
   3  -9  -9   13.26    1.98
   3  -9  -9   12.13    1.59
   3   9  -9    7.20    2.37
   2  -9  -9   11.07    1.94
   2  -9  -9    9.49    1.57
   2   9  -9    6.54    2.43
   1  -9  -9   12.57    1.62
   1   9  -9    6.79    2.45
   0  -9  -9    4.67    1.50
   0   9  -9    4.99    2.40
  -1  -9  -9   83.65    3.28
  -1   9  -9   85.70    5.18
  -2  -9  -9   27.10    2.70
  -2  -9  -9   29.10    2.32
  -2   9  -9   29.68    3.52
  -3  -9  -9    7.45    2.33
  -3  -9  -9    5.44    1.73
  -3   9  -9    4.05    2.54
  -4  -9  -9    2.58    2.00
  -4  -9  -9    2.01    1.70
  -4   9  -9    2.82    2.65
  -5  -9  -9   35.48    3.39
  -5  -9  -9   38.91    2.98
  -5   9  -9   35.32    4.10
  -6  -9  -9   21.21    3.07
  -6  -9  -9   13.24    2.29
  -6   9  -9   14.45    3.44
  -7  -9  -9   15.09    3.16
  -7  -9  -9    6.22    2.16
  -7   9  -9   11.20    3.51
  -8  -9  -9   68.10    4.40
 -13  10   9  112.22   13.29
 -12  10   9  186.51   16.25
 -11  10   9   -0.24    6.92
 -10  10   9   61.26    9.76
  -9  10   9   39.01    7.95
   7 -10  -9  146.68    3.97
   6 -10  -9  694.44    8.20
   5 -10  -9  285.34    5.89
   5 -10  -9  278.37    5.23
   5  10  -9  259.57    8.99
   4 -10  -9    5.93    1.54
   4 -10  -9    4.55    1.32
   4  10  -9    3.48    2.43
   3 -10  -9   85.33    3.11
   3  10  -9   81.05    5.13
  -2  10   9    1.20    2.00
   2 -10  -9    6.04    1.42
   2  10  -9    0.35    2.24
   1 -10  -9   11.13    1.63
  -1  10   9   10.35    2.50
   1  10  -9   15.90    2.94
   0  10   9  247.18    8.44
   0 -10  -9  238.98    5.17
   0  10  -9  223.88    7.89
   1  10   9  171.24    7.34
  -1 -10  -9  172.78    4.56
  -1  10  -9  160.33    6.90
  -2 -10  -9    5.70    1.63
   2  10   9    5.69    2.72
  -2  10  -9    6.15    2.63
  -3 -10  -9  208.65    5.42
  -3  10  -9  203.41    7.85
  -4 -10  -9   31.10    2.63
  -4  10  -9   33.89    4.06
  -5 -10  -9   41.36    3.51
  -5 -10  -9   32.39    2.91
  -5  10  -9   37.38    4.31
  -6 -10  -9  137.16    5.84
  -6 -10  -9  128.93    5.03
  -6  10  -9  131.94    7.07
  -7 -10  -9  118.49    5.16
  -8 -10  -9    3.15    2.33
 -13  11   9   87.16   12.11
 -12  11   9  120.86   13.91
 -11  11   9    5.24    7.12
 -10  11   9  130.43   13.14
  -9  11   9  161.09   14.24
   7 -11  -9    1.83    1.32
   6 -11  -9   21.46    1.99
   5 -11  -9   -0.08    1.31
   5 -11  -9   -0.82    1.32
   4 -11  -9   47.22    2.45
   4  11  -9   46.14    4.35
  -3  11   9  148.23    6.24
   3 -11  -9  132.26    3.80
   3  11  -9  120.89    6.32
   2 -11  -9   51.97    2.62
   2  11  -9   44.26    4.12
  -2  11   9   55.64    4.19
   1 -11  -9    3.20    1.43
   1  11  -9   -1.66    2.36
  -1  11   9    2.15    2.18
   0 -11  -9   30.26    2.28
   0  11  -9   35.50    3.72
   0  11   9   37.89    3.94
  -1 -11  -9   10.49    1.83
  -1  11  -9    5.10    2.55
   1  11   9   12.66    2.88
  -2 -11  -9   28.55    2.41
  -2  11  -9   21.97    3.50
   2  11   9   23.78    3.54
   3  11   9  106.25    6.35
  -3 -11  -9   96.44    3.88
  -3  11  -9   95.21    5.88
   4  11   9   82.79    5.88
  -4 -11  -9   71.72    3.52
  -4  11  -9   72.52    5.34
  -5 -11  -9    9.15    2.18
  -5  11  -9    9.10    3.24
  -6 -11  -9   41.18    3.65
  -6 -11  -9   38.86    3.20
  -6  11  -9   39.56    4.74
  -7 -11  -9    6.00    2.26
  -8 -11  -9    2.05    2.37
 -12  12   9   46.25   10.57
 -11  12   9   23.72    8.41
 -10  12   9  166.68   14.76
  -9  12   9    1.69    6.30
   7 -12  -9   25.57    2.11
   6 -12  -9   28.65    2.16
   5 -12  -9    1.93    1.31
  -5  12   9    5.81    2.24
   5  12  -9    0.63    2.63
   4 -12  -9   90.09    3.25
   4  12  -9   76.34    5.49
  -4  12   9   83.59    4.69
   3 -12  -9   32.03    2.21
  -3  12   9   30.49    3.34
   3  12  -9   34.65    4.12
  -2  12   9    8.99    2.51
   2 -12  -9   11.05    1.69
   2  12  -9    9.50    2.92
  -1  12   9   31.94    3.62
   1 -12  -9   30.45    2.23
   1  12  -9   26.92    3.71
   0  12   9   81.26    5.36
   0 -12  -9   78.04    3.21
   0  12  -9   66.81    4.94
   1  12   9    1.13    2.48
  -1 -12  -9    5.21    1.66
  -1  12  -9    4.22    2.74
  -2 -12  -9   61.44    3.14
   2  12   9   72.73    5.36
  -2  12  -9   52.83    4.66
  -3 -12  -9   27.73    2.49
  -3  12  -9   25.31    3.92
   3  12   9   31.01    4.08
   4  12   9   11.83    3.39
  -4 -12  -9   10.82    2.11
  -4  12  -9   13.30    3.45
  -5 -12  -9   23.79    2.68
  -5  12  -9   29.78    4.21
   5  12   9   26.63    4.09
  -6 -12  -9   11.55    2.42
  -6  12  -9   11.87    3.50
  -7 -12  -9   53.45    3.82
 -12  13   9   41.74   10.68
 -11  13   9  228.77   17.94
 -10  13   9   71.92   11.03
  -9  13   9   96.80   11.99
   8 -13  -9    3.15    1.51
   7 -13  -9   11.66    1.87
   6 -13  -9   76.73    3.13
   5 -13  -9   37.78    2.42
  -5  13   9   48.46    3.78
   5  13  -9   38.82    4.77
  -4  13   9   61.05    4.32
   4 -13  -9   63.17    2.88
   4  13  -9   55.51    5.07
  -3  13   9  211.43    7.56
   3 -13  -9  190.33    4.67
   3  13  -9  184.50    8.28
   2 -13  -9  100.23    3.52
   2  13  -9   93.12    6.06
  -2  13   9  123.50    6.08
   1 -13  -9   -0.55    1.43
   1  13  -9    3.20    2.67
  -1  13   9    2.73    2.34
   0 -13  -9   41.67    2.56
   0  13  -9   39.32    4.29
   1  13   9    6.04    2.77
  -1 -13  -9    6.31    1.70
  -1  13  -9    9.88    3.06
   2  13   9    9.20    3.07
  -2 -13  -9    4.70    1.69
  -2  13  -9    1.48    2.67
   3  13   9   38.56    4.30
  -3 -13  -9   33.89    2.74
  -3  13  -9   32.80    4.19
  -4 -13  -9   40.17    3.06
  -4  13  -9   33.74    4.16
   4  13   9   46.98    4.84
   5  13   9    8.66    3.41
  -5 -13  -9    5.22    2.20
  -5  13  -9    6.87    3.30
  -6 -13  -9    6.50    2.22
  -6  13  -9   12.32    3.73
   6  13   9   10.64    3.57
  -7 -13  -9    6.38    2.30
 -12  14   9   -2.38    7.42
 -11  14   9   -7.64    8.79
 -10  14   9   13.79    7.83
  -9  14   9   14.18    7.35
   8 -14  -9  141.04    4.30
   7 -14  -9  239.32    5.40
   6 -14  -9   29.84    2.25
  -5  14   9   11.11    2.49
   5 -14  -9    7.85    1.62
   5  14  -9    5.62    3.06
   4 -14  -9  155.15    4.33
   4  14  -9  144.99    7.76
  -4  14   9  173.89    6.74
   3 -14  -9   11.48    1.74
  -3  14   9   15.12    2.87
   3  14  -9    9.13    3.22
   2 -14  -9  254.46    5.46
   2  14  -9  231.30    9.44
   1 -14  -9  285.29    5.89
   1  14  -9  263.29    9.83
  -1  14   9  309.70    9.59
   0 -14  -9    0.08    1.47
   0  14   9    0.62    2.29
   0  14  -9    4.23    2.79
  -1 -14  -9    5.95    1.82
  -1  14  -9    2.70    2.73
   1  14   9    3.04    2.46
  -2 -14  -9   84.75    3.69
  -2  14  -9   72.83    5.70
   2  14   9   96.28    6.12
   3  14   9   43.88    4.80
  -3 -14  -9   44.64    2.99
  -3  14  -9   39.12    4.48
   4  14   9   20.37    3.91
  -4 -14  -9   20.37    2.58
  -4  14  -9   22.83    4.14
  -5 -14  -9  275.26    7.16
  -5  14  -9  260.53   10.22
   5  14   9  291.49   10.72
  -6 -14  -9   25.55    2.92
  -7 -14  -9    7.31    2.51
 -11  15   9   59.73   11.12
 -10  15   9   61.58   11.03
  -9  15   9   82.32   12.02
   8 -15  -9    3.74    1.65
   7 -15  -9   31.32    2.52
   6 -15  -9    4.87    1.71
   5 -15  -9   22.68    2.20
  -5  15   9   24.95    3.11
   5  15  -9   20.24    4.22
   4 -15  -9   83.50    3.35
  -4  15   9  111.73    5.60
   4  15  -9   89.33    6.63
   3 -15  -9   76.46    3.26
  -3  15   9   94.78    5.57
   3  15  -9   74.96    6.09
   2 -15  -9   88.92    3.51
  -2  15   9   80.47    5.20
   2  15  -9   82.64    6.11
   1 -15  -9  113.24    3.95
  -1  15   9  122.87    6.51
   1  15  -9   97.67    6.46
   0 -15  -9    1.54    1.54
   0  15   9    4.75    2.69
   0  15  -9    2.58    3.02
  -1 -15  -9    2.20    1.74
   1  15   9    3.88    2.82
  -1  15  -9    2.56    3.11
  -2 -15  -9   10.17    2.06
   2  15   9    5.31    2.93
  -2  15  -9    9.08    3.49
  -3 -15  -9    0.06    1.78
  -3  15  -9    6.84    3.34
   3  15   9    3.13    2.91
   4  15   9   34.25    4.46
  -4 -15  -9   30.41    2.87
  -4  15  -9   27.69    4.39
   5  15   9   10.94    3.62
  -5 -15  -9   12.65    2.49
  -5  15  -9   10.99    3.81
  -6 -15  -9   38.02    3.39
 -11  16   9   38.63   10.42
 -10  16   9   42.42   10.44
  -9  16   9   -0.17    7.24
   8 -16  -9   39.18    2.74
   7 -16  -9    8.11    1.83
   6 -16  -9   21.40    2.14
   5 -16  -9   43.42    2.64
  -5  16   9   45.88    3.90
   5  16  -9   46.01    5.76
   4 -16  -9   13.01    1.89
  -4  16   9   15.26    2.94
   4  16  -9   15.63    4.21
  -3  16   9   18.83    3.16
   3 -16  -9   17.89    2.02
   3  16  -9   18.40    4.07
  -2  16   9   31.41    3.72
   2 -16  -9   26.12    2.30
   2  16  -9   25.96    4.41
  -1  16   9   36.89    3.96
   1 -16  -9   36.23    2.60
   1  16  -9   32.36    4.68
   0  16   9   64.82    4.97
   0 -16  -9   65.85    3.30
   0  16  -9   65.24    5.89
  -1 -16  -9  103.18    4.08
   1  16   9  114.05    6.56
  -1  16  -9   93.68    6.71
  -2 -16  -9   26.27    2.54
   2  16   9   25.97    3.88
  -2  16  -9   21.58    4.25
  -3 -16  -9   54.07    3.37
  -3  16  -9   47.79    5.33
   3  16   9   62.42    5.50
  -4 -16  -9    3.17    1.96
   4  16   9    0.47    2.79
   5  16   9  111.39    7.25
  -5 -16  -9   93.22    4.44
  -6 -16  -9   17.17    2.74
 -10  17   9   11.91    7.94
   8 -17  -9    6.96    1.82
   7 -17  -9    3.11    1.80
   6 -17  -9  160.51    4.66
   5 -17  -9   42.59    2.74
  -5  17   9   54.09    4.19
   5  17  -9   44.82    5.74
  -4  17   9   37.15    3.82
   4 -17  -9   27.25    2.37
   4  17  -9   25.42    4.88
  -3  17   9   26.09    3.57
   3 -17  -9   19.09    2.13
   3  17  -9   17.48    4.22
   2 -17  -9    3.32    1.61
  -2  17   9    8.99    2.92
   2  17  -9    4.38    3.51
   1 -17  -9    1.28    1.62
  -1  17   9    2.22    2.46
   1  17  -9   -4.18    3.54
   0 -17  -9    3.50    1.71
   0  17   9    6.70    2.86
   0  17  -9    9.13    3.96
  -1 -17  -9    0.92    1.77
  -1  17  -9    1.21    3.20
   1  17   9    0.89    2.62
   2  17   9   79.10    5.74
  -2 -17  -9   69.41    3.54
  -2  17  -9   66.18    6.12
  -3 -17  -9   35.97    2.99
   3  17   9   48.93    4.99
  -3  17  -9   33.51    5.16
  -4 -17  -9    4.37    2.10
   4  17   9    5.08    3.11
  -4  17  -9    4.59    3.50
  -5 -17  -9   38.11    3.27
 -10  18   9   88.05   13.21
   8 -18  -9    3.05    1.78
   7 -18  -9    1.87    1.70
   6 -18  -9   98.33    3.86
   5 -18  -9   14.20    2.06
  -5  18   9   17.75    3.09
   5  18  -9   13.36    4.33
  -4  18   9   35.59    3.88
   4 -18  -9   28.51    2.44
   4  18  -9   23.67    4.86
   3 -18  -9   54.89    3.04
   3  18  -9   51.03    5.91
  -3  18   9   67.75    5.17
  -2  18   9    9.91    2.92
   2 -18  -9   11.30    1.97
   2  18  -9   12.29    4.11
  -1  18   9    2.80    2.74
   1 -18  -9    4.57    1.81
   1  18  -9   10.48    4.08
   0  18   9  237.24    9.45
   0 -18  -9  218.60    5.65
   0  18  -9  201.00   10.05
   1  18   9  335.73   11.38
  -1 -18  -9  317.31    6.89
  -2 -18  -9    4.10    1.89
  -2  18  -9    0.31    3.42
   2  18   9    4.34    3.05
   3  18   9   29.29    4.42
  -3 -18  -9   27.45    2.81
  -3  18  -9   24.99    4.79
   4  18   9   -0.58    3.10
  -4 -18  -9    0.97    2.12
  -4  18  -9    1.64    4.00
  -5 -18  -9    2.42    2.15
   8 -19  -9   28.36    2.56
   7 -19  -9    2.38    1.75
   6 -19  -9    3.38    1.74
   5 -19  -9   21.87    2.29
  -5  19   9   23.99    3.44
   5  19  -9   19.08    4.71
   4 -19  -9   47.36    2.96
   4  19  -9   46.27    6.00
  -4  19   9   40.06    4.11
   3 -19  -9   40.63    2.85
   3  19  -9   37.01    5.79
  -3  19   9   46.38    4.46
   2 -19  -9   49.66    2.97
   2  19  -9   50.22    6.03
  -2  19   9   56.15    4.74
   1 -19  -9   48.83    3.05
   1  19  -9   39.14    5.48
  -1  19   9   44.95    4.50
   0  19   9   11.04    3.40
   0 -19  -9    8.58    2.00
   0  19  -9    6.53    3.66
  -1 -19  -9   18.29    2.38
  -1  19  -9   20.04    4.45
   1  19   9   25.28    4.09
   2  19   9   51.87    5.27
  -2 -19  -9   50.88    3.39
  -2  19  -9   45.41    5.90
  -3 -19  -9   14.88    2.43
  -3  19  -9   16.48    4.74
   3  19   9   17.85    4.00
  -4 -19  -9    1.28    2.13
   8 -20  -9  104.45    4.22
   7 -20  -9   60.82    3.41
   6 -20  -9   64.09    3.43
   5  20  -9    1.99    3.96
   5 -20  -9    2.70    1.72
   4 -20  -9   81.27    3.69
  -4  20   9   87.76    5.75
   4  20  -9   69.90    7.21
   3 -20  -9   13.40    2.10
  -3  20   9   21.66    3.55
   3  20  -9   17.70    4.99
   2 -20  -9   69.93    3.48
  -2  20   9   81.21    5.79
   2  20  -9   63.41    6.70
   1 -20  -9   12.93    2.25
  -1  20   9   14.33    3.42
   1  20  -9   11.07    4.46
   0 -20  -9    7.12    1.95
   0  20  -9    4.57    3.79
   0  20   9    4.06    2.95
  -1 -20  -9   29.06    2.78
  -1  20  -9   18.99    4.64
   1  20   9   28.44    4.03
   2  20   9   21.87    4.14
  -2 -20  -9   20.12    2.54
  -2  20  -9   11.23    4.38
   3  20   9  108.85    7.27
  -3 -20  -9  103.19    4.58
   7 -21  -9   27.30    2.67
   6 -21  -9   17.95    2.42
   5 -21  -9   45.51    2.98
   5  21  -9   43.11    6.62
   4 -21  -9   46.91    3.00
  -4  21   9   40.11    4.25
   4  21  -9   44.43    6.64
   3 -21  -9   21.20    2.33
  -3  21   9   26.55    3.89
   3  21  -9   17.80    5.19
   2 -21  -9   31.76    2.67
  -2  21   9   46.71    4.86
   2  21  -9   32.47    5.90
   1 -21  -9   29.02    2.63
  -1  21   9   26.05    4.00
   1  21  -9   23.01    5.14
   0 -21  -9    8.46    2.12
   0  21   9    5.18    3.06
   0  21  -9    8.46    4.19
  -1 -21  -9   22.36    2.59
   1  21   9   24.87    4.22
  -1  21  -9   21.84    5.23
  -2 -21  -9  106.49    4.58
  -2  21  -9   89.43    8.06
   2  21   9  107.84    7.24
   6 -22  -9   15.62    2.44
   5 -22  -9    4.75    2.03
   4 -22  -9   57.94    3.35
  -4  22   9   57.55    5.06
   4  22  -9   53.69    7.13
   3 -22  -9    4.50    1.92
  -3  22   9    4.83    2.84
   3  22  -9    7.20    4.61
   2 -22  -9  158.46    5.10
  -2  22   9  168.19    8.25
   2  22  -9  147.07   10.42
   1 -22  -9  242.50    6.34
  -1  22   9  272.93   10.51
   1  22  -9  229.97   12.60
   0 -22  -9   13.03    2.29
   0  22   9   11.52    3.32
   0  22  -9   17.20    5.10
  -1 -22  -9    0.95    1.89
   1  22   9    4.41    3.47
  -1  22  -9    4.12    4.00
   5 -23  -9    4.25    1.84
   4  23  -9   16.16    5.46
   4 -23  -9   15.89    2.46
  -4  23   9   23.77    3.73
   3 -23  -9  139.71    4.86
  -3  23   9  144.14    7.66
   3  23  -9  132.99   10.48
   2 -23  -9   87.64    4.08
  -2  23   9   87.54    6.45
   2  23  -9   75.57    8.30
  -1  23   9    4.97    3.40
   1 -23  -9    3.18    2.00
   1  23  -9    1.93    4.26
   0 -23  -9    2.22    1.96
   0  23   9    4.57    3.12
   0  23  -9    7.34    4.89
   1  23   9    0.98    2.99
   4  24  -9   18.52    5.75
  -4  24   9   34.33    4.36
   3  24  -9    6.87    4.72
  -3  24   9   10.79    3.27
  -2  24   9   40.39    4.86
   2  24  -9   30.14    6.23
  -1  24   9   14.46    4.01
   1  24  -9    7.35    4.78
   0  24   9   43.32    5.16
   4  25  -9   18.45    6.15
  -4  25   9   12.21    3.38
   3  25  -9   31.09    6.89
  -3  25   9   41.35    4.91
   2  25  -9   24.44    6.09
  -2  25   9   35.06    4.57
  -1  25   9    0.02    2.97
  -3  26   9    2.18    2.56
  -2  26   9    4.77    3.13
   4   0 -10   13.05    2.57
   3   0 -10   30.97    3.04
   2   0 -10   29.04    2.97
   1   0 -10  153.37    6.18
   0   0 -10   13.06    2.54
  -1   0 -10  352.55    8.88
  -2   0 -10  175.26    6.63
  -3   0 -10    3.25    2.39
  -4   0 -10   75.44    4.81
  -5   0 -10  200.66    7.64
   4  -1 -10  159.86    5.48
   4   1 -10  150.68    5.63
   3  -1 -10   97.27    4.60
   3   1 -10   88.70    4.47
   2  -1 -10   33.72    3.13
   2   1 -10   34.52    3.20
   1  -1 -10   20.49    2.84
   1   1 -10   21.16    2.85
   0  -1 -10   64.21    4.08
   0   1 -10   61.71    4.13
  -1  -1 -10   45.44    3.84
  -1   1 -10   49.76    4.30
  -2  -1 -10    2.42    2.22
  -2   1 -10    6.60    2.63
  -3  -1 -10    8.10    2.38
  -3   1 -10    9.27    2.69
  -4  -1 -10    1.44    2.41
  -4   1 -10    5.15    2.73
  -5  -1 -10   45.34    4.17
  -5   1 -10   45.66    4.36
   4  -2 -10  151.21    5.33
   4   2 -10  147.63    5.72
   3  -2 -10  257.07    6.93
   3   2 -10  248.70    7.28
   2  -2 -10    2.01    1.92
   2   2 -10    6.28    2.38
   1  -2 -10  117.02    5.04
   1   2 -10  115.03    5.26
   0  -2 -10   15.20    2.60
   0   2 -10   12.56    2.68
  -1  -2 -10  111.95    5.08
  -1   2 -10  103.04    5.29
  -2  -2 -10    0.67    2.11
  -2   2 -10    1.42    2.34
  -3  -2 -10   59.28    4.25
  -3   2 -10   51.55    4.23
  -4  -2 -10    3.38    2.36
  -4   2 -10   -0.67    2.46
  -5  -2 -10   10.91    2.90
  -5   2 -10   11.49    3.12
   4  -3 -10   44.82    3.14
   4   3 -10   47.55    3.82
   3  -3 -10    5.77    2.11
   3   3 -10   14.54    2.94
   2  -3 -10   60.85    3.65
   2   3 -10   57.51    3.97
   1  -3 -10    5.17    2.02
   1   3 -10    7.20    2.46
   0  -3 -10   21.02    2.67
   0   3 -10   19.11    2.93
  -1  -3 -10   50.95    3.70
  -1   3 -10   47.63    4.08
  -2  -3 -10   19.95    2.94
  -2   3 -10   19.09    3.00
  -3  -3 -10   34.78    3.62
  -3   3 -10   32.32    3.77
  -4  -3 -10    6.97    2.60
  -4   3 -10    4.76    2.71
  -5  -3 -10    6.08    2.48
  -5   3 -10    2.95    2.71
   4  -4 -10  168.42    5.41
   4   4 -10  173.89    6.32
   3  -4 -10  167.25    5.38
   3   4 -10  175.89    6.49
   2  -4 -10    6.52    2.13
   2   4 -10    6.83    2.33
   1  -4 -10    4.43    2.05
   1   4 -10    5.48    2.32
   0  -4 -10   83.11    4.38
   0   4 -10   76.59    4.68
  -1  -4 -10   73.32    4.27
  -1   4 -10   73.14    4.76
  -2  -4 -10   13.89    2.69
  -2   4 -10   15.36    3.05
  -3  -4 -10  169.64    6.44
  -3   4 -10  163.00    7.05
  -4  -4 -10   44.97    3.83
  -4   4 -10   44.39    4.22
  -5  -4 -10    1.02    2.50
  -5   4 -10    1.26    2.80
   4  -5 -10   22.86    2.53
   4   5 -10   19.32    3.01
   3  -5 -10   18.13    2.39
   3   5 -10   14.89    2.74
   2  -5 -10  264.01    6.83
   2   5 -10  235.00    7.59
   1  -5 -10   38.45    3.20
   1   5 -10   35.94    3.61
   0  -5 -10   49.26    3.49
   0   5 -10   43.66    3.89
  -1  -5 -10   41.27    3.47
  -1   5 -10   35.07    3.69
  -2  -5 -10   82.14    4.51
  -2   5 -10   75.30    4.97
  -3  -5 -10   12.89    2.76
  -3   5 -10    8.98    2.94
  -4  -5 -10    9.71    2.73
  -4   5 -10    5.30    2.85
  -5  -5 -10    2.05    2.48
  -5   5 -10   -3.35    2.92
   4  -6 -10   46.01    3.12
   4   6 -10   43.06    3.80
   3  -6 -10   56.74    3.47
   3   6 -10   54.76    4.21
   2  -6 -10   44.68    3.30
   2   6 -10   41.68    3.88
   1  -6 -10   44.13    3.31
   1   6 -10   41.83    3.86
   0  -6 -10    2.29    2.00
   0   6 -10    1.48    2.34
  -1  -6 -10   25.46    2.94
  -1   6 -10   22.24    3.29
  -2  -6 -10    6.03    2.39
  -2   6 -10    2.32    2.58
  -3  -6 -10   27.25    3.17
  -3   6 -10   24.41    3.61
  -4  -6 -10    3.78    2.48
  -4   6 -10    1.80    2.63
   4  -7 -10   63.11    3.54
   4   7 -10   56.03    4.45
   3  -7 -10    8.39    2.10
   3   7 -10    9.31    2.74
   2  -7 -10   44.75    3.18
   2   7 -10   37.53    3.87
   1  -7 -10    9.91    2.27
   1   7 -10    4.42    2.52
   0  -7 -10   19.82    2.70
   0   7 -10   20.48    3.33
  -1  -7 -10   77.44    4.31
  -1   7 -10   65.91    4.83
  -2  -7 -10   53.47    3.82
  -2   7 -10   53.02    4.69
  -3  -7 -10    2.57    2.30
  -3   7 -10    4.00    2.85
  -4  -7 -10   15.41    2.94
  -4   7 -10   11.48    3.36
   4  -8 -10  119.92    4.53
   4   8 -10  102.45    5.82
   3  -8 -10   86.26    4.04
   3   8 -10   74.46    4.97
   2  -8 -10   69.36    3.78
   2   8 -10   65.02    4.71
   1  -8 -10  198.75    5.96
   1  -8 -10  208.87    4.92
   1   8 -10  196.20    7.57
   0  -8 -10   14.82    2.40
   0  -8 -10   15.80    1.91
   0   8 -10   12.86    3.03
  -1  -8 -10  112.50    4.93
  -1  -8 -10  108.95    3.97
  -1   8 -10  108.39    6.14
  -2  -8 -10   11.19    2.39
  -2  -8 -10   12.83    2.06
  -2   8 -10   16.59    3.44
  -3  -8 -10   12.09    2.68
  -3  -8 -10    8.14    2.10
  -3   8 -10   10.19    3.25
  -4  -8 -10   85.71    4.82
  -4  -8 -10   77.50    3.96
  -4   8 -10   84.07    5.74
   4  -9 -10   52.71    3.26
   4   9 -10   44.19    4.41
   3  -9 -10   92.69    4.03
   3  -9 -10  102.43    3.51
   3   9 -10   97.54    5.90
   2  -9 -10    7.95    2.06
   2  -9 -10    6.50    1.58
   2   9 -10   10.91    2.99
   1  -9 -10   42.00    3.27
   1  -9 -10   40.82    2.57
   1   9 -10   39.94    4.22
   0  -9 -10   99.15    4.61
   0  -9 -10   83.19    3.44
   0   9 -10   86.12    5.59
  -1  -9 -10    6.21    2.21
  -1  -9 -10    8.24    1.92
  -1   9 -10    5.45    3.02
  -2  -9 -10    5.12    2.27
  -2  -9 -10    2.61    1.76
  -2   9 -10    7.05    2.88
  -3  -9 -10   -1.21    2.22
  -3  -9 -10    0.70    1.83
  -4  -9 -10    8.69    2.55
  -4  -9 -10    9.76    2.19
  -4   9 -10   15.34    3.85
  -5  -9 -10    4.37    2.26
  -6  -9 -10  115.65    5.32
   5 -10 -10    1.55    1.40
   4 -10 -10    5.73    1.60
   4  10 -10    8.68    3.10
   3 -10 -10    3.68    1.85
   3 -10 -10    5.00    1.60
   3  10 -10    0.12    2.60
   2 -10 -10    0.95    1.79
   2 -10 -10    1.56    1.52
   2  10 -10    3.21    2.79
   1 -10 -10    7.06    2.14
   1 -10 -10    4.94    1.67
   1  10 -10    5.44    2.76
   0 -10 -10   11.22    2.52
   0 -10 -10   10.92    1.88
   0  10 -10    5.32    2.80
  -1 -10 -10   18.89    2.70
  -1 -10 -10   19.90    2.25
  -1  10 -10   20.00    3.59
  -2 -10 -10   65.24    4.14
  -2 -10 -10   59.83    3.32
  -2  10 -10   65.13    5.48
  -3 -10 -10  104.17    5.07
  -3 -10 -10   99.36    4.23
  -3  10 -10   92.84    6.09
  -4 -10 -10    3.00    2.41
  -4 -10 -10    0.47    1.97
  -4  10 -10    5.22    3.34
  -5 -10 -10   18.96    2.65
  -6 -10 -10    5.02    2.42
   6 -11 -10   81.72    3.28
   5 -11 -10    2.45    1.43
   4 -11 -10   29.55    2.30
   4  11 -10   27.78    4.09
   3 -11 -10   24.70    2.66
   3 -11 -10   22.63    2.20
   3  11 -10   23.86    4.04
   2 -11 -10    4.50    1.99
   2 -11 -10    6.61    1.68
   2  11 -10    1.64    2.81
   1 -11 -10   52.25    3.45
   1 -11 -10   51.57    2.90
   1  11 -10   46.61    4.64
   0 -11 -10  414.19    8.82
   0 -11 -10  413.59    7.36
   0  11 -10  408.81   11.64
  -1 -11 -10    0.32    2.03
  -1 -11 -10   -0.80    1.75
  -1  11 -10    4.48    2.88
  -2 -11 -10   79.98    4.42
  -2 -11 -10   73.44    3.62
  -2  11 -10   70.88    5.64
  -3 -11 -10    2.37    2.36
  -3 -11 -10   -1.71    1.88
  -3  11 -10    0.49    3.01
  -4 -11 -10   31.13    2.98
  -5 -11 -10    1.63    2.04
  -6 -11 -10   95.99    5.01
   7 -12 -10   37.71    2.58
   6 -12 -10   38.63    2.51
   5 -12 -10    3.25    1.60
   4 -12 -10   76.49    3.27
   4  12 -10   64.03    5.62
   3 -12 -10  345.44    7.52
   3 -12 -10  346.23    6.46
   3  12 -10  298.86   10.69
   2 -12 -10  111.85    4.60
   2 -12 -10  115.44    3.97
   2  12 -10  100.98    6.47
   1 -12 -10    0.92    1.86
   1 -12 -10   -0.05    1.58
   1  12 -10    5.07    3.06
   0 -12 -10   18.17    2.72
   0 -12 -10    8.91    1.89
   0  12 -10   10.06    3.45
  -1 -12 -10    2.55    2.01
  -1 -12 -10    4.15    1.77
  -1  12 -10    1.53    2.92
  -2 -12 -10    6.29    2.36
  -2 -12 -10    4.57    1.94
  -2  12 -10    3.90    3.12
  -3 -12 -10   33.99    3.40
  -3 -12 -10   32.96    2.91
  -3  12 -10   29.68    4.29
  -4 -12 -10   18.19    2.59
  -5 -12 -10    2.59    2.12
   8 -13 -10   80.37    3.52
   7 -13 -10    2.07    1.62
   6 -13 -10   22.73    2.19
   5 -13 -10  107.65    3.82
   4 -13 -10  147.51    4.40
   4  13 -10  128.28    7.59
   3 -13 -10    3.71    1.69
   3  13 -10    0.24    3.27
   2 -13 -10   42.62    2.71
   2  13 -10   37.35    4.77
   1 -13 -10   12.11    1.96
   1  13 -10   10.94    3.40
   0 -13 -10   92.41    3.81
   0  13 -10   79.26    6.08
  -1 -13 -10   11.68    2.17
  -1  13 -10   14.03    3.70
  -2 -13 -10  101.48    4.32
  -2  13 -10   90.29    6.47
  -3 -13 -10    6.97    2.19
  -3  13 -10    3.78    3.10
  -4 -13 -10   10.76    2.43
  -5 -13 -10   -1.78    2.21
   9 -14 -10    5.08    1.83
   8 -14 -10   22.57    2.26
   7 -14 -10    4.32    1.78
   6 -14 -10   19.47    2.21
   5 -14 -10    0.52    1.53
   4 -14 -10    6.66    1.79
   4  14 -10    5.54    3.36
   3 -14 -10    3.64    1.72
  -3  14  10   11.70    2.93
   3  14 -10    6.43    3.46
  -2  14  10   12.35    3.16
   2 -14 -10   13.09    2.05
   2  14 -10   12.91    3.85
  -1  14  10    6.74    2.75
   1 -14 -10    4.85    1.74
   1  14 -10    4.08    3.34
   0  14  10   -1.44    2.74
   0 -14 -10   -0.03    1.67
   0  14 -10   -2.47    3.10
   1  14  10    4.47    2.94
  -1 -14 -10    0.84    1.74
  -1  14 -10   -3.09    3.21
  -2 -14 -10    1.62    1.91
   2  14  10    0.40    3.05
  -2  14 -10    5.01    3.48
  -3 -14 -10    7.47    2.20
  -4 -14 -10   -2.66    2.21
   9 -15 -10   14.32    2.21
   8 -15 -10  100.45    4.03
   7 -15 -10    2.36    1.77
   6 -15 -10    1.86    1.76
   5 -15 -10   46.28    2.88
  -4  15  10   91.49    5.60
   4 -15 -10   81.12    3.58
   4  15 -10   75.45    6.85
   3 -15 -10   37.49    2.73
   3  15 -10   34.68    5.15
  -3  15  10   42.12    4.26
   2 -15 -10   48.86    3.04
   2  15 -10   44.46    5.38
  -2  15  10   64.56    5.18
   1 -15 -10    4.46    1.81
  -1  15  10    7.52    3.15
   1  15 -10    3.15    3.46
   0 -15 -10   10.57    2.14
   0  15  10    8.67    3.07
   0  15 -10    5.08    3.38
  -1 -15 -10   17.36    2.42
  -1  15 -10   18.58    4.27
   1  15  10   18.10    3.81
  -2 -15 -10   76.71    3.89
  -2  15 -10   73.65    6.49
   2  15  10   86.03    6.37
  -3 -15 -10    0.18    2.01
  -4 -15 -10   40.49    3.33
   9 -16 -10   25.45    2.59
   8 -16 -10   51.84    3.11
   7 -16 -10    2.07    1.80
   6 -16 -10    7.24    1.90
   5 -16 -10   79.24    3.57
   4 -16 -10   36.74    2.73
  -4  16  10   43.98    4.25
   4  16 -10   25.48    4.84
   3 -16 -10   79.73    3.61
  -3  16  10   92.00    5.72
   3  16 -10   78.82    6.93
  -2  16  10  245.27    9.16
   2 -16 -10  232.81    5.83
   2  16 -10  203.53   10.01
  -1  16  10    2.50    2.92
   1 -16 -10    3.27    1.82
   1  16 -10    0.72    3.43
   0  16  10    8.15    3.29
   0 -16 -10    2.31    1.83
   0  16 -10    3.45    3.69
  -1 -16 -10    6.01    2.05
   1  16  10    8.48    3.46
  -1  16 -10    2.75    3.56
  -2 -16 -10    7.56    2.19
   2  16  10   15.80    3.85
  -3 -16 -10   17.00    2.62
   8 -17 -10    1.58    1.84
   7 -17 -10   92.67    4.06
   6 -17 -10   38.71    2.86
   5 -17 -10   66.23    3.39
   4 -17 -10   40.15    2.82
   4  17 -10   39.09    5.66
  -3  17  10    4.97    2.95
   3 -17 -10    8.40    1.95
   3  17 -10    4.43    3.96
  -2  17  10   59.64    5.22
   2 -17 -10   44.30    3.02
   2  17 -10   45.32    5.84
  -1  17  10  154.49    7.75
   1 -17 -10  134.08    4.67
   0 -17 -10  145.09    5.00
   0  17 -10  128.25    8.50
   1  17  10   38.04    4.70
  -1 -17 -10   33.34    2.89
  -1  17 -10   33.14    5.27
  -2 -17 -10    2.25    2.02
   7 -18 -10    4.18    1.94
   6 -18 -10    6.42    1.97
   5 -18 -10   29.10    2.61
   4 -18 -10    5.00    1.87
   3 -18 -10    2.72    1.84
  -3  18  10    2.98    2.81
   3  18 -10    2.35    3.66
   2 -18 -10   72.71    3.66
   2  18 -10   67.36    6.94
  -2  18  10   87.35    5.91
   1 -18 -10    5.82    2.06
  -1  18  10    7.36    3.05
   1  18 -10    4.63    4.08
   0 -18 -10    5.09    2.08
   0  18 -10    9.80    4.26
   0  18  10    7.27    3.26
  -1 -18 -10    2.41    2.04
  -2 -18 -10    0.58    2.06
   6 -19 -10   14.00    2.30
   5 -19 -10    6.58    1.94
   4 -19 -10   62.91    3.45
   3 -19 -10    1.63    1.83
  -3  19  10    0.10    2.53
   3  19 -10   -1.23    4.17
   2 -19 -10   39.47    3.02
  -2  19  10   48.97    4.81
   2  19 -10   35.97    5.80
   1 -19 -10   92.71    4.15
  -1  19  10   96.69    6.47
   1  19 -10   84.26    7.74
   0 -19 -10  100.63    4.44
   0  19  10  109.75    7.00
   4 -20 -10   10.80    2.22
   3 -20 -10    3.23    1.97
  -3  20  10    6.36    3.14
   3  20 -10    5.84    4.41
   2 -20 -10  172.12    5.47
   2  20 -10  163.55   10.63
   1 -20 -10   63.01    3.68
  -1  20  10   74.91    6.12
   1  20 -10   65.51    7.31
  -3  21  10    0.95    2.56
   3  21 -10   -3.98    4.43
  -2  21  10   22.86    3.92
   2  21 -10   17.35    5.36
  -2  22  10    6.99    3.14
   3   0 -11    0.19    2.23
   2   0 -11    0.19    2.28
   1   0 -11    0.58    2.31
   0   0 -11   12.14    3.13
  -1   0 -11    0.63    2.65
  -2   0 -11    2.30    2.60
   3   1 -11   19.56    3.10
   2  -1 -11   32.91    3.49
   2   1 -11   32.05    3.60
   1  -1 -11   11.56    2.81
   1   1 -11    7.34    2.72
   0  -1 -11  125.17    6.09
   0   1 -11  117.97    5.95
  -1  -1 -11   88.02    5.64
  -1   1 -11   74.54    5.05
  -2  -1 -11    0.93    2.67
  -2   1 -11    0.76    2.56
   3   2 -11    0.36    2.33
   2  -2 -11   75.72    4.60
   2   2 -11   74.51    4.84
   1  -2 -11   41.38    3.77
   1   2 -11   38.05    3.89
   0  -2 -11   32.44    3.58
   0   2 -11   33.15    3.92
  -1  -2 -11   86.60    5.15
  -1   2 -11   81.98    5.32
  -2  -2 -11   67.06    4.85
  -2   2 -11   67.19    5.01
   3   3 -11   20.57    3.21
   2  -3 -11   27.80    3.28
   2   3 -11   22.57    3.43
   1  -3 -11   34.87    3.47
   1   3 -11   35.47    3.97
   0  -3 -11   66.32    4.45
   0   3 -11   61.72    4.73
  -1  -3 -11  126.28    5.98
  -1   3 -11  117.95    6.35
  -2  -3 -11   58.43    4.58
  -2   3 -11   52.06    4.66
   3   4 -11   13.64    3.17
   2  -4 -11    5.01    2.21
   2   4 -11    6.68    2.75
   1  -4 -11   14.17    2.85
   1   4 -11   13.15    3.13
   0  -4 -11   47.08    3.89
   0   4 -11   48.27    4.37
  -1  -4 -11   43.80    3.90
  -1   4 -11   32.57    4.06
  -2  -4 -11   88.10    5.30
   3   5 -11    7.93    2.94
   2  -5 -11   15.95    2.72
   2   5 -11   15.56    3.20
   1  -5 -11    5.28    2.29
   1   5 -11    5.70    2.84
   0  -5 -11   74.08    4.59
   0   5 -11   67.96    5.15
  -1  -5 -11   20.90    3.07
  -1   5 -11   16.63    3.55
   3   6 -11    4.63    2.74
   2  -6 -11    7.65    2.42
   2   6 -11    6.85    2.93
   1  -6 -11   36.52    3.44
   1   6 -11   32.84    4.00
   0  -6 -11   25.01    3.25
   0   6 -11   20.28    3.56
  -1  -6 -11  188.88    6.95
  -1   6 -11  184.38    8.03
   3   7 -11   43.16    4.41
   2  -7 -11  141.77    5.76
   2   7 -11  137.26    6.96
   1  -7 -11   -0.33    2.15
   1   7 -11    1.46    2.68
   0  -7 -11   24.73    3.15
   0   7 -11   27.59    3.90
  -1  -7 -11    4.87    2.71
  -1   7 -11   -1.11    2.91
   3   8 -11   11.23    3.28
   2  -8 -11    6.04    2.49
   2   8 -11    8.49    3.16
   1  -8 -11    6.51    2.38
   1   8 -11    4.92    3.05
   0  -8 -11   62.50    4.22
   0   8 -11   63.53    5.35
  -1  -8 -11    3.69    2.49
  -1   8 -11    4.24    3.06
   2  -9 -11  215.38    6.90
   2   9 -11  194.51    8.60
   1  -9 -11   15.32    2.79
   1   9 -11   12.03    3.44
   0  -9 -11    1.20    2.25
   0   9 -11   10.05    3.59
  -1  -9 -11   10.24    2.71
   2 -10 -11   12.05    2.62
   2  10 -11   17.23    4.03
   1 -10 -11  151.33    5.96
   1  10 -11  129.41    7.36
   0 -10 -11   19.08    3.12
   0  10 -11   16.11    3.79
   2 -11 -11    1.98    2.19
   2  11 -11   -2.00    3.45
   1 -11 -11   40.68    3.62
   1  11 -11   31.55    4.55
   0 -11 -11   98.08    4.94
   0  11 -11   94.62    6.62
   2 -12 -11    6.18    2.23
   2  12 -11   10.77    3.78
   1 -12 -11   59.48    4.12
   1  12 -11   43.67    5.36
   0 -12 -11    2.39    2.25
   2 -13 -11   54.99    4.02
   2  13 -11   41.19    5.44
   1 -13 -11    1.29    2.21
   1  13 -11    3.45    3.45
   2 -14 -11   75.30    4.48
   2  14 -11   63.78    6.50
   1 -14 -11   11.06    2.71
   2  15 -11    3.01    3.71


TITL v161024-2BrNor in P2(1)/c
REM P2(1)/c (#14 in standard setting)
CELL 0.71073  12.696577  27.840563   8.191151  90.0000  98.9774  90.0000
ZERR    4.00   0.000299   0.000687   0.000209   0.0000   0.0024   0.0000
LATT  1
SYMM -x, y+1/2,-z+1/2
SFAC C H N Ni Br
UNIT 144.00 116.00 16.00 4.00 4.00
TREF
HKLF 4
END
_computing_structure_solution     'SHELXT 2014/4 (Sheldrick, 2014)'
;
_shelx_hkl_checksum              39153
loop_
_space_group_symop_operation_xyz
'x, y, z'
'-x, y+1/2, -z+1/2'
'-x, -y, -z'
'x, -y-1/2, z-1/2'
loop_
_atom_site_label
_atom_site_type_symbol
_atom_site_fract_x
_atom_site_fract_y
_atom_site_fract_z
_atom_site_U_iso_or_equiv
_atom_site_adp_type
_atom_site_occupancy
_atom_site_site_symmetry_order
_atom_site_calc_flag
_atom_site_refinement_flags_posn
_atom_site_refinement_flags_adp
_atom_site_refinement_flags_occupancy
_atom_site_disorder_assembly
_atom_site_disorder_group
C1 C 0.4339(2) 0.44645(11) 0.4047(4) 0.0233(6) Uani 1 1 d . . . . .
C2 C 0.3312(2) 0.46162(11) 0.4257(4) 0.0240(6) Uani 1 1 d . . . . .
H29 H 0.2957 0.4894 0.3775 0.029 Uiso 0.0698(16) 1 calc R U P A 2
C3 C 0.2900(2) 0.42912(11) 0.5292(4) 0.0239(6) Uani 1 1 d . . . . .
H19 H 0.2225 0.4307 0.5652 0.029 Uiso 1 1 calc R U . . .
C4 C 0.3691(2) 0.39318(12) 0.5699(4) 0.0244(6) Uani 1 1 d . . . . .
C5 C 0.3714(2) 0.34797(12) 0.6586(4) 0.0246(6) Uani 1 1 d . . . . .
C6 C 0.4522(2) 0.31394(12) 0.6616(4) 0.0238(6) Uani 1 1 d . . . . .
C7 C 0.4656(3) 0.26508(12) 0.7215(4) 0.0261(6) Uani 1 1 d . . . . .
H20 H 0.4182 0.2481 0.7799 0.031 Uiso 1 1 calc R U . . .
C8 C 0.5594(3) 0.24734(12) 0.6790(4) 0.0262(6) Uani 1 1 d . . . . .
H21 H 0.5879 0.2160 0.7012 0.031 Uiso 1 1 calc R U . . .
C9 C 0.6056(2) 0.28534(11) 0.5949(4) 0.0230(6) Uani 1 1 d . . . . .
C10 C 0.6973(2) 0.29578(11) 0.5070(4) 0.0236(6) Uani 1 1 d . . . . .
C11 C 0.7872(3) 0.27437(13) 0.4547(4) 0.0290(7) Uani 1 1 d . . . . .
H30 H 0.8145 0.2432 0.4823 0.035 Uiso 1 1 calc R U . . .
C12 C 0.8283(3) 0.30809(12) 0.3540(4) 0.0278(7) Uani 1 1 d . . . . .
H23 H 0.8893 0.3040 0.3013 0.033 Uiso 1 1 calc R U . . .
C13 C 0.7621(2) 0.34970(12) 0.3452(4) 0.0230(6) Uani 1 1 d . . . . .
C14 C 0.7585(2) 0.39402(11) 0.2525(4) 0.0221(6) Uani 1 1 d . . . . .
C15 C 0.6778(2) 0.42832(11) 0.2494(4) 0.0227(6) Uani 1 1 d . . . . .
C16 C 0.6532(3) 0.47284(12) 0.1611(4) 0.0259(6) Uani 1 1 d . . . . .
H24 H 0.6949 0.4876 0.0885 0.031 Uiso 1 1 calc R U . . .
C17 C 0.5584(3) 0.49016(11) 0.2006(4) 0.0252(6) Uani 1 1 d . . . . .
H31 H 0.5230 0.5189 0.1607 0.030 Uiso 0.9302(16) 1 calc R U P A 1
C18 C 0.5239(2) 0.45669(11) 0.3128(4) 0.0228(6) Uani 1 1 d . . . . .
N1 N 0.4529(2) 0.40580(10) 0.4939(4) 0.0275(6) Uani 1 1 d . . . . .
N2 N 0.5408(2) 0.32340(10) 0.5883(3) 0.0238(5) Uani 1 1 d . . . . .
N3 N 0.6870(2) 0.34033(10) 0.4417(3) 0.0229(5) Uani 1 1 d . . . . .
N4 N 0.5962(2) 0.42181(10) 0.3396(3) 0.0237(5) Uani 1 1 d . . . . .
Ni1 Ni 0.57163(3) 0.37377(2) 0.47199(5) 0.02246(13) Uani 1 1 d . . . . .
C19 C 0.2829(2) 0.33784(11) 0.7542(4) 0.0233(6) Uani 1 1 d . . . . .
C20 C 0.3019(3) 0.34425(12) 0.9262(4) 0.0270(6) Uani 1 1 d . . . . .
C21 C 0.2209(3) 0.33348(13) 1.0170(4) 0.0297(7) Uani 1 1 d . . . . .
H25 H 0.2332 0.3375 1.1336 0.036 Uiso 1 1 calc R U . . .
C22 C 0.1224(3) 0.31694(12) 0.9403(4) 0.0283(7) Uani 1 1 d . . . . .
C23 C 0.1043(3) 0.31170(11) 0.7701(4) 0.0270(6) Uani 1 1 d . . . . .
H26 H 0.0364 0.3011 0.7172 0.032 Uiso 1 1 calc R U . . .
C24 C 0.1836(2) 0.32164(11) 0.6747(4) 0.0242(6) Uani 1 1 d . . . . .
C25 C 0.4063(3) 0.36428(16) 1.0137(5) 0.0382(8) Uani 1 1 d . . . . .
H1 H 0.4048 0.3655 1.1329 0.057 Uiso 1 1 calc R U . . .
H2 H 0.4167 0.3968 0.9729 0.057 Uiso 1 1 calc R U . . .
H3 H 0.4650 0.3436 0.9921 0.057 Uiso 1 1 calc R U . . .
C26 C 0.0374(3) 0.30440(14) 1.0425(5) 0.0363(8) Uani 1 1 d . . . . .
H4 H -0.0250 0.2914 0.9706 0.054 Uiso 1 1 calc R U . . .
H5 H 0.0168 0.3333 1.0979 0.054 Uiso 1 1 calc R U . . .
H6 H 0.0651 0.2803 1.1255 0.054 Uiso 1 1 calc R U . . .
C27 C 0.1619(3) 0.31448(14) 0.4898(4) 0.0322(7) Uani 1 1 d . . . . .
H7 H 0.0884 0.3033 0.4571 0.048 Uiso 1 1 calc R U . . .
H8 H 0.2114 0.2905 0.4579 0.048 Uiso 1 1 calc R U . . .
H9 H 0.1717 0.3450 0.4344 0.048 Uiso 1 1 calc R U . . .
C28 C 0.8436(2) 0.40375(11) 0.1498(4) 0.0225(6) Uani 1 1 d . . . . .
C29 C 0.9407(3) 0.42372(11) 0.2239(4) 0.0246(6) Uani 1 1 d . . . . .
C30 C 1.0166(3) 0.43531(12) 0.1261(4) 0.0274(7) Uani 1 1 d . . . . .
H27 H 1.0824 0.4488 0.1767 0.033 Uiso 1 1 calc R U . . .
C31 C 0.9995(3) 0.42779(11) -0.0442(4) 0.0261(6) Uani 1 1 d . . . . .
C32 C 0.9042(3) 0.40644(12) -0.1142(4) 0.0267(6) Uani 1 1 d . . . . .
H28 H 0.8924 0.3999 -0.2294 0.032 Uiso 1 1 calc R U . . .
C33 C 0.8254(2) 0.39437(12) -0.0209(4) 0.0241(6) Uani 1 1 d . . . . .
C34 C 0.9625(3) 0.43287(15) 0.4076(4) 0.0338(8) Uani 1 1 d . . . . .
H10 H 1.0278 0.4519 0.4345 0.051 Uiso 1 1 calc R U . . .
H11 H 0.9714 0.4022 0.4665 0.051 Uiso 1 1 calc R U . . .
H12 H 0.9026 0.4505 0.4410 0.051 Uiso 1 1 calc R U . . .
C35 C 1.0830(3) 0.44148(13) -0.1476(5) 0.0335(7) Uani 1 1 d . . . . .
H13 H 1.1047 0.4129 -0.2038 0.050 Uiso 1 1 calc R U . . .
H14 H 1.1450 0.4550 -0.0762 0.050 Uiso 1 1 calc R U . . .
H15 H 1.0536 0.4654 -0.2299 0.050 Uiso 1 1 calc R U . . .
C36 C 0.7231(3) 0.37095(14) -0.1018(4) 0.0314(7) Uani 1 1 d . . . . .
H16 H 0.6660 0.3949 -0.1183 0.047 Uiso 1 1 calc R U . . .
H17 H 0.7038 0.3451 -0.0307 0.047 Uiso 1 1 calc R U . . .
H18 H 0.7332 0.3576 -0.2089 0.047 Uiso 1 1 calc R U . . .
Br1 Br 0.26085(3) 0.51500(2) 0.32091(4) 0.02616(13) Uani 0.9302(16) 1 d . . P A
1
Br2 Br 0.4886(6) 0.5468(2) 0.1764(9) 0.053(2) Uani 0.0698(16) 1 d . . P A 2
loop_
_atom_site_aniso_label
_atom_site_aniso_U_11
_atom_site_aniso_U_22
_atom_site_aniso_U_33
_atom_site_aniso_U_23
_atom_site_aniso_U_13
_atom_site_aniso_U_12
C1 0.0214(14) 0.0258(15) 0.0240(14) -0.0010(12) 0.0077(12) 0.0010(11)
C2 0.0204(14) 0.0245(14) 0.0268(15) -0.0002(12) 0.0031(12) 0.0013(11)
C3 0.0196(14) 0.0293(15) 0.0237(14) -0.0029(12) 0.0064(11) -0.0002(12)
C4 0.0197(14) 0.0297(16) 0.0253(14) -0.0007(12) 0.0086(12) 0.0000(12)
C5 0.0207(14) 0.0335(16) 0.0204(13) -0.0009(12) 0.0060(11) -0.0014(12)
C6 0.0204(14) 0.0297(15) 0.0224(14) 0.0028(12) 0.0065(11) -0.0018(12)
C7 0.0228(14) 0.0317(16) 0.0243(14) 0.0034(12) 0.0048(12) -0.0020(12)
C8 0.0226(14) 0.0298(16) 0.0261(15) 0.0043(12) 0.0040(12) 0.0010(12)
C9 0.0187(14) 0.0260(14) 0.0243(14) 0.0021(11) 0.0038(11) 0.0009(11)
C10 0.0197(14) 0.0281(15) 0.0231(14) 0.0007(12) 0.0036(11) -0.0001(11)
C11 0.0217(15) 0.0333(17) 0.0328(16) 0.0018(14) 0.0067(13) 0.0042(13)
C12 0.0198(14) 0.0329(17) 0.0316(16) -0.0003(13) 0.0068(12) 0.0030(12)
C13 0.0182(13) 0.0307(16) 0.0209(13) -0.0019(12) 0.0051(11) -0.0015(11)
C14 0.0181(13) 0.0290(15) 0.0196(13) -0.0043(11) 0.0044(11) -0.0051(11)
C15 0.0189(13) 0.0284(15) 0.0210(13) -0.0018(11) 0.0042(11) -0.0034(11)
C16 0.0261(15) 0.0269(15) 0.0259(15) -0.0015(12) 0.0077(12) -0.0055(12)
C17 0.0242(15) 0.0249(15) 0.0272(15) -0.0006(12) 0.0058(12) -0.0022(12)
C18 0.0214(14) 0.0254(14) 0.0219(14) -0.0020(11) 0.0042(11) -0.0005(11)
N1 0.0236(13) 0.0317(14) 0.0296(14) 0.0056(11) 0.0121(11) 0.0042(11)
N2 0.0194(12) 0.0293(13) 0.0241(12) 0.0024(10) 0.0075(10) 0.0008(10)
N3 0.0188(12) 0.0280(13) 0.0229(12) 0.0006(10) 0.0064(10) -0.0001(10)
N4 0.0211(12) 0.0270(13) 0.0249(13) 0.0020(10) 0.0094(10) 0.0016(10)
Ni1 0.0184(2) 0.0267(2) 0.0241(2) 0.00375(15) 0.00898(15) 0.00242(14)
C19 0.0215(14) 0.0263(14) 0.0241(14) 0.0010(12) 0.0099(12) 0.0009(11)
C20 0.0237(15) 0.0331(16) 0.0250(15) 0.0004(13) 0.0064(12) -0.0004(12)
C21 0.0326(17) 0.0352(17) 0.0238(15) 0.0014(13) 0.0124(13) 0.0017(14)
C22 0.0312(16) 0.0227(15) 0.0355(17) 0.0041(13) 0.0190(14) 0.0031(12)
C23 0.0231(15) 0.0231(14) 0.0366(17) -0.0023(12) 0.0100(13) -0.0015(12)
C24 0.0220(14) 0.0233(14) 0.0285(15) -0.0007(12) 0.0077(12) 0.0009(11)
C25 0.0307(18) 0.056(2) 0.0271(17) -0.0043(16) 0.0015(14) -0.0066(16)
C26 0.0369(19) 0.0331(18) 0.045(2) 0.0043(15) 0.0248(16) -0.0012(15)
C27 0.0292(17) 0.0375(18) 0.0302(17) -0.0051(14) 0.0057(14) -0.0073(14)
C28 0.0184(13) 0.0258(14) 0.0243(14) -0.0009(11) 0.0062(11) -0.0012(11)
C29 0.0229(15) 0.0258(15) 0.0263(15) -0.0055(12) 0.0073(12) -0.0026(12)
C30 0.0208(14) 0.0272(15) 0.0361(17) -0.0045(13) 0.0100(13) -0.0050(12)
C31 0.0260(15) 0.0231(14) 0.0325(16) 0.0033(12) 0.0146(13) 0.0037(12)
C32 0.0263(15) 0.0322(16) 0.0232(15) 0.0030(12) 0.0090(12) 0.0036(13)
C33 0.0192(14) 0.0287(15) 0.0247(15) -0.0003(12) 0.0042(12) 0.0006(11)
C34 0.0254(16) 0.047(2) 0.0295(17) -0.0116(15) 0.0054(13) -0.0083(15)
C35 0.0322(18) 0.0323(17) 0.0404(19) 0.0043(15) 0.0193(15) -0.0002(14)
C36 0.0268(16) 0.044(2) 0.0228(15) -0.0072(13) 0.0033(13) -0.0072(14)
Br1 0.02202(19) 0.02415(19) 0.0324(2) 0.00042(12) 0.00453(13) 0.00254(12)
Br2 0.073(5) 0.035(3) 0.051(4) 0.002(3) 0.004(3) 0.002(3)
loop_
_atom_type_symbol
_atom_type_description
_atom_type_scat_dispersion_real
_atom_type_scat_dispersion_imag
_atom_type_scat_source
C C 0.0033 0.0016 'International Tables Vol C Tables 4.2.6.8 and 6.1.1.4'
H H 0.0000 0.0000 'International Tables Vol C Tables 4.2.6.8 and 6.1.1.4'
N N 0.0061 0.0033 'International Tables Vol C Tables 4.2.6.8 and 6.1.1.4'
Ni Ni 0.3393 1.1124 'International Tables Vol C Tables 4.2.6.8 and 6.1.1.4'
Br Br -0.2901 2.4595 'International Tables Vol C Tables 4.2.6.8 and 6.1.1.4'
loop_
_geom_angle_atom_site_label_1
_geom_angle_atom_site_label_2
_geom_angle_atom_site_label_3
_geom_angle
N1 C1 C2 106.1(3)
N1 C1 C18 110.3(3)
C2 C1 C18 143.4(3)
C3 C2 C1 108.8(3)
C3 C2 Br1 126.6(2)
C1 C2 Br1 124.5(2)
C3 C2 H29 125.6
C1 C2 H29 125.6
C2 C3 C4 106.4(3)
C2 C3 H19 126.8
C4 C3 H19 126.8
N1 C4 C3 106.6(3)
N1 C4 C5 119.8(3)
C3 C4 C5 133.4(3)
C6 C5 C4 123.7(3)
C6 C5 C19 118.3(3)
C4 C5 C19 117.9(3)
N2 C6 C5 120.7(3)
N2 C6 C7 105.5(3)
C5 C6 C7 133.8(3)
C8 C7 C6 108.1(3)
C8 C7 H20 126.0
C6 C7 H20 126.0
C7 C8 C9 106.8(3)
C7 C8 H21 126.6
C9 C8 H21 126.6
N2 C9 C8 107.9(3)
N2 C9 C10 110.4(3)
C8 C9 C10 141.6(3)
N3 C10 C11 107.5(3)
N3 C10 C9 109.6(3)
C11 C10 C9 142.5(3)
C12 C11 C10 106.8(3)
C12 C11 H30 126.6
C10 C11 H30 126.6
C11 C12 C13 107.6(3)
C11 C12 H23 126.2
C13 C12 H23 126.2
N3 C13 C12 106.1(3)
N3 C13 C14 120.2(3)
C12 C13 C14 133.6(3)
C15 C14 C13 123.8(3)
C15 C14 C28 117.3(3)
C13 C14 C28 118.9(3)
N4 C15 C14 120.8(3)
N4 C15 C16 105.0(3)
C14 C15 C16 134.1(3)
C17 C16 C15 108.1(3)
C17 C16 H24 125.9
C15 C16 H24 125.9
C16 C17 C18 106.8(3)
C16 C17 Br2 135.3(4)
C18 C17 Br2 116.6(4)
C16 C17 H31 126.6
C18 C17 H31 126.6
N4 C18 C17 108.1(3)
N4 C18 C1 109.9(3)
C17 C18 C1 142.0(3)
C1 N1 C4 112.2(3)
C1 N1 Ni1 116.6(2)
C4 N1 Ni1 130.6(2)
C9 N2 C6 111.7(3)
C9 N2 Ni1 117.5(2)
C6 N2 Ni1 130.4(2)
C10 N3 C13 112.0(3)
C10 N3 Ni1 117.1(2)
C13 N3 Ni1 130.4(2)
C18 N4 C15 111.9(3)
C18 N4 Ni1 117.8(2)
C15 N4 Ni1 130.2(2)
N2 Ni1 N4 174.95(12)
N2 Ni1 N1 94.59(13)
N4 Ni1 N1 85.24(12)
N2 Ni1 N3 85.25(12)
N4 Ni1 N3 94.68(12)
N1 Ni1 N3 177.28(13)
C24 C19 C20 120.5(3)
C24 C19 C5 120.9(3)
C20 C19 C5 118.5(3)
C21 C20 C19 118.9(3)
C21 C20 C25 119.5(3)
C19 C20 C25 121.6(3)
C22 C21 C20 121.2(3)
C22 C21 H25 119.4
C20 C21 H25 119.4
C23 C22 C21 119.2(3)
C23 C22 C26 121.0(3)
C21 C22 C26 119.9(3)
C22 C23 C24 121.5(3)
C22 C23 H26 119.3
C24 C23 H26 119.3
C23 C24 C19 118.7(3)
C23 C24 C27 120.1(3)
C19 C24 C27 121.2(3)
C20 C25 H1 109.5
C20 C25 H2 109.5
H1 C25 H2 109.5
C20 C25 H3 109.5
H1 C25 H3 109.5
H2 C25 H3 109.5
C22 C26 H4 109.5
C22 C26 H5 109.5
H4 C26 H5 109.5
C22 C26 H6 109.5
H4 C26 H6 109.5
H5 C26 H6 109.5
C24 C27 H7 109.5
C24 C27 H8 109.5
H7 C27 H8 109.5
C24 C27 H9 109.5
H7 C27 H9 109.5
H8 C27 H9 109.5
C29 C28 C33 120.1(3)
C29 C28 C14 119.5(3)
C33 C28 C14 120.4(3)
C30 C29 C28 119.1(3)
C30 C29 C34 120.1(3)
C28 C29 C34 120.7(3)
C29 C30 C31 122.1(3)
C29 C30 H27 119.0
C31 C30 H27 119.0
C32 C31 C30 117.8(3)
C32 C31 C35 121.4(3)
C30 C31 C35 120.8(3)
C31 C32 C33 122.1(3)
C31 C32 H28 118.9
C33 C32 H28 118.9
C32 C33 C28 118.8(3)
C32 C33 C36 120.4(3)
C28 C33 C36 120.9(3)
C29 C34 H10 109.5
C29 C34 H11 109.5
H10 C34 H11 109.5
C29 C34 H12 109.5
H10 C34 H12 109.5
H11 C34 H12 109.5
C31 C35 H13 109.5
C31 C35 H14 109.5
H13 C35 H14 109.5
C31 C35 H15 109.5
H13 C35 H15 109.5
H14 C35 H15 109.5
C33 C36 H16 109.5
C33 C36 H17 109.5
H16 C36 H17 109.5
C33 C36 H18 109.5
H16 C36 H18 109.5
H17 C36 H18 109.5
loop_
_geom_bond_atom_site_label_1
_geom_bond_atom_site_label_2
_geom_bond_distance
C1 N1 1.349(4)
C1 C2 1.407(4)
C1 C18 1.491(4)
C2 C3 1.396(5)
C2 Br1 1.872(3)
C2 H29 0.9500
C3 C4 1.420(4)
C3 H19 0.9500
C4 N1 1.360(4)
C4 C5 1.451(5)
C5 C6 1.395(5)
C5 C19 1.492(4)
C6 N2 1.379(4)
C6 C7 1.447(5)
C7 C8 1.383(5)
C7 H20 0.9500
C8 C9 1.437(4)
C8 H21 0.9500
C9 N2 1.338(4)
C9 C10 1.490(4)
C10 N3 1.349(4)
C10 C11 1.412(5)
C11 C12 1.403(5)
C11 H30 0.9500
C12 C13 1.426(5)
C12 H23 0.9500
C13 N3 1.356(4)
C13 C14 1.446(5)
C14 C15 1.398(4)
C14 C28 1.494(4)
C15 N4 1.376(4)
C15 C16 1.444(4)
C16 C17 1.381(5)
C16 H24 0.9500
C17 C18 1.425(4)
C17 Br2 1.804(7)
C17 H31 0.9500
C18 N4 1.331(4)
N1 Ni1 1.784(3)
N2 Ni1 1.773(3)
N3 Ni1 1.785(3)
N4 Ni1 1.780(3)
C19 C24 1.401(4)
C19 C20 1.404(4)
C20 C21 1.393(5)
C20 C25 1.511(5)
C21 C22 1.387(5)
C21 H25 0.9500
C22 C23 1.384(5)
C22 C26 1.507(5)
C23 C24 1.394(5)
C23 H26 0.9500
C24 C27 1.510(5)
C25 H1 0.9800
C25 H2 0.9800
C25 H3 0.9800
C26 H4 0.9800
C26 H5 0.9800
C26 H6 0.9800
C27 H7 0.9800
C27 H8 0.9800
C27 H9 0.9800
C28 C29 1.402(4)
C28 C33 1.405(4)
C29 C30 1.384(5)
C29 C34 1.508(4)
C30 C31 1.394(5)
C30 H27 0.9500
C31 C32 1.390(5)
C31 C35 1.505(5)
C32 C33 1.391(5)
C32 H28 0.9500
C33 C36 1.511(4)
C34 H10 0.9800
C34 H11 0.9800
C34 H12 0.9800
C35 H13 0.9800
C35 H14 0.9800
C35 H15 0.9800
C36 H16 0.9800
C36 H17 0.9800
C36 H18 0.9800
loop_
_geom_torsion_atom_site_label_1
_geom_torsion_atom_site_label_2
_geom_torsion_atom_site_label_3
_geom_torsion_atom_site_label_4
_geom_torsion
N1 C1 C2 C3 0.0(4)
C18 C1 C2 C3 173.9(4)
N1 C1 C2 Br1 -177.0(2)
C18 C1 C2 Br1 -3.1(6)
C1 C2 C3 C4 -0.7(4)
Br1 C2 C3 C4 176.2(2)
C2 C3 C4 N1 1.2(4)
C2 C3 C4 C5 -173.4(3)
N1 C4 C5 C6 -5.0(5)
C3 C4 C5 C6 169.0(3)
N1 C4 C5 C19 174.0(3)
C3 C4 C5 C19 -12.0(5)
C4 C5 C6 N2 5.0(5)
C19 C5 C6 N2 -173.9(3)
C4 C5 C6 C7 -170.9(3)
C19 C5 C6 C7 10.1(5)
N2 C6 C7 C8 -1.2(4)
C5 C6 C7 C8 175.2(3)
C6 C7 C8 C9 0.9(4)
C7 C8 C9 N2 -0.3(4)
C7 C8 C9 C10 -176.5(4)
N2 C9 C10 N3 -1.8(4)
C8 C9 C10 N3 174.3(4)
N2 C9 C10 C11 -174.0(4)
C8 C9 C10 C11 2.1(8)
N3 C10 C11 C12 -0.7(4)
C9 C10 C11 C12 171.6(4)
C10 C11 C12 C13 -0.5(4)
C11 C12 C13 N3 1.5(4)
C11 C12 C13 C14 -174.4(3)
N3 C13 C14 C15 -2.8(5)
C12 C13 C14 C15 172.5(3)
N3 C13 C14 C28 178.9(3)
C12 C13 C14 C28 -5.8(5)
C13 C14 C15 N4 1.2(5)
C28 C14 C15 N4 179.5(3)
C13 C14 C15 C16 -175.6(3)
C28 C14 C15 C16 2.8(5)
N4 C15 C16 C17 -0.8(3)
C14 C15 C16 C17 176.3(3)
C15 C16 C17 C18 -0.1(4)
C15 C16 C17 Br2 165.7(4)
C16 C17 C18 N4 1.0(4)
Br2 C17 C18 N4 -167.9(3)
C16 C17 C18 C1 -176.0(4)
Br2 C17 C18 C1 15.2(6)
N1 C1 C18 N4 2.3(4)
C2 C1 C18 N4 -171.4(4)
N1 C1 C18 C17 179.3(4)
C2 C1 C18 C17 5.5(8)
C2 C1 N1 C4 0.8(4)
C18 C1 N1 C4 -175.3(3)
C2 C1 N1 Ni1 172.7(2)
C18 C1 N1 Ni1 -3.4(3)
C3 C4 N1 C1 -1.2(4)
C5 C4 N1 C1 174.2(3)
C3 C4 N1 Ni1 -171.7(2)
C5 C4 N1 Ni1 3.7(5)
C8 C9 N2 C6 -0.5(4)
C10 C9 N2 C6 177.0(3)
C8 C9 N2 Ni1 -173.7(2)
C10 C9 N2 Ni1 3.7(3)
C5 C6 N2 C9 -175.9(3)
C7 C6 N2 C9 1.0(4)
C5 C6 N2 Ni1 -3.8(5)
C7 C6 N2 Ni1 173.2(2)
C11 C10 N3 C13 1.7(4)
C9 C10 N3 C13 -173.3(3)
C11 C10 N3 Ni1 174.2(2)
C9 C10 N3 Ni1 -0.8(3)
C12 C13 N3 C10 -2.0(3)
C14 C13 N3 C10 174.5(3)
C12 C13 N3 Ni1 -173.2(2)
C14 C13 N3 Ni1 3.3(4)
C17 C18 N4 C15 -1.6(4)
C1 C18 N4 C15 176.4(3)
C17 C18 N4 Ni1 -178.4(2)
C1 C18 N4 Ni1 -0.3(3)
C14 C15 N4 C18 -176.1(3)
C16 C15 N4 C18 1.5(3)
C14 C15 N4 Ni1 0.2(4)
C16 C15 N4 Ni1 177.8(2)
C9 N2 Ni1 N1 173.8(2)
C6 N2 Ni1 N1 2.0(3)
C9 N2 Ni1 N3 -3.5(2)
C6 N2 Ni1 N3 -175.2(3)
C18 N4 Ni1 N1 -1.2(2)
C15 N4 Ni1 N1 -177.3(3)
C18 N4 Ni1 N3 176.0(2)
C15 N4 Ni1 N3 0.0(3)
C1 N1 Ni1 N2 -172.2(3)
C4 N1 Ni1 N2 -2.1(3)
C1 N1 Ni1 N4 2.7(3)
C4 N1 Ni1 N4 172.9(3)
C10 N3 Ni1 N2 2.3(2)
C13 N3 Ni1 N2 173.2(3)
C10 N3 Ni1 N4 -172.6(2)
C13 N3 Ni1 N4 -1.8(3)
C6 C5 C19 C24 -101.7(4)
C4 C5 C19 C24 79.3(4)
C6 C5 C19 C20 77.4(4)
C4 C5 C19 C20 -101.6(4)
C24 C19 C20 C21 1.0(5)
C5 C19 C20 C21 -178.1(3)
C24 C19 C20 C25 -176.6(3)
C5 C19 C20 C25 4.3(5)
C19 C20 C21 C22 -0.4(5)
C25 C20 C21 C22 177.3(3)
C20 C21 C22 C23 -0.9(5)
C20 C21 C22 C26 178.4(3)
C21 C22 C23 C24 1.5(5)
C26 C22 C23 C24 -177.8(3)
C22 C23 C24 C19 -0.8(5)
C22 C23 C24 C27 178.6(3)
C20 C19 C24 C23 -0.5(5)
C5 C19 C24 C23 178.6(3)
C20 C19 C24 C27 -179.9(3)
C5 C19 C24 C27 -0.8(5)
C15 C14 C28 C29 97.7(3)
C13 C14 C28 C29 -83.9(4)
C15 C14 C28 C33 -80.3(4)
C13 C14 C28 C33 98.1(4)
C33 C28 C29 C30 1.9(5)
C14 C28 C29 C30 -176.1(3)
C33 C28 C29 C34 -178.5(3)
C14 C28 C29 C34 3.5(5)
C28 C29 C30 C31 0.1(5)
C34 C29 C30 C31 -179.5(3)
C29 C30 C31 C32 -2.2(5)
C29 C30 C31 C35 179.0(3)
C30 C31 C32 C33 2.5(5)
C35 C31 C32 C33 -178.8(3)
C31 C32 C33 C28 -0.5(5)
C31 C32 C33 C36 -179.7(3)
C29 C28 C33 C32 -1.7(5)
C14 C28 C33 C32 176.4(3)
C29 C28 C33 C36 177.4(3)
C14 C28 C33 C36 -4.5(5)
