#------------------------------------------------------------------------------
#$Date: 2016-02-16 22:30:59 +0200 (Tue, 16 Feb 2016) $
#$Revision: 176467 $
#$URL: svn://www.crystallography.net/cod/cif/4/08/39/4083906.cif $
#------------------------------------------------------------------------------
#
# This file is available in the Crystallography Open Database (COD),
# http://www.crystallography.net/
#
# All data on this site have been placed in the public domain by the
# contributors.
#
data_4083906
loop_
_publ_author_name
'Thompson, Samuel J.'
'Dong, Guangbin'
_publ_section_title
;
 Alkylation of Rhodium Porphyrins Using Ammonium and Quinolinium Salts
;
_journal_issue                   14
_journal_name_full               Organometallics
_journal_page_first              3757
_journal_paper_doi               10.1021/om500438s
_journal_volume                  33
_journal_year                    2014
_chemical_formula_moiety         'C44 H28 N4, Rh, C2 H5, 1/2 C Cl4'
_chemical_formula_sum            'C46.5 H33 Cl2 N4 Rh'
_chemical_formula_weight         821.58
_chemical_name_systematic
;
 ?
;
_space_group_crystal_system      triclinic
_space_group_IT_number           2
_space_group_name_Hall           '-P 1'
_space_group_name_H-M_alt        'P -1'
_symmetry_space_group_name_Hall  '-P 1'
_symmetry_space_group_name_H-M   'P -1'
_atom_sites_solution_hydrogens   geom
_audit_creation_method           SHELXL-2013
_cell_angle_alpha                104.215(2)
_cell_angle_beta                 107.305(2)
_cell_angle_gamma                99.963(2)
_cell_formula_units_Z            2
_cell_length_a                   11.2350(8)
_cell_length_b                   13.1958(10)
_cell_length_c                   13.8948(10)
_cell_measurement_reflns_used    6032
_cell_measurement_temperature    100(2)
_cell_measurement_theta_max      27.5
_cell_measurement_theta_min      1.6
_cell_volume                     1837.9(2)
_computing_cell_refinement       'CrystalClear (Rigaku Inc., 2008)'
_computing_data_collection       'CrystalClear (Rigaku Inc., 2008)'
_computing_data_reduction        'CrystalClear (Rigaku Inc., 2008)'
_computing_molecular_graphics    'XP SHELXTL/PC, Siemens Analytical'
_computing_publication_material  'XP SHELXTL/PC, Siemens Analytical'
_computing_structure_refinement  'SHELXL-2013 (Sheldrick, 2013)'
_computing_structure_solution
;

Superflip.  Palatinus, L. & Chapuis, G. (2007). J. Appl. Cryst. 40, 786-790.
 
;
_diffrn_ambient_temperature      100(2)
_diffrn_measured_fraction_theta_full 0.992
_diffrn_measured_fraction_theta_max 0.980
_diffrn_measurement_device_type  'Rigaku AFC-12 with Saturn 724+ CCD'
_diffrn_measurement_method       \w-scans
_diffrn_radiation_type           MoK\a
_diffrn_radiation_wavelength     0.71073
_diffrn_reflns_av_R_equivalents  0.0749
_diffrn_reflns_av_unetI/netI     0.0875
_diffrn_reflns_Laue_measured_fraction_full 0.992
_diffrn_reflns_Laue_measured_fraction_max 0.980
_diffrn_reflns_limit_h_max       14
_diffrn_reflns_limit_h_min       -14
_diffrn_reflns_limit_k_max       17
_diffrn_reflns_limit_k_min       -16
_diffrn_reflns_limit_l_max       18
_diffrn_reflns_limit_l_min       -18
_diffrn_reflns_number            24233
_diffrn_reflns_point_group_measured_fraction_full 0.992
_diffrn_reflns_point_group_measured_fraction_max 0.980
_diffrn_reflns_theta_full        25.242
_diffrn_reflns_theta_max         27.484
_diffrn_reflns_theta_min         3.133
_diffrn_source                   'sealed tube'
_exptl_absorpt_coefficient_mu    0.651
_exptl_absorpt_correction_T_max  1.00
_exptl_absorpt_correction_T_min  0.592
_exptl_absorpt_correction_type   multi-scan
_exptl_absorpt_process_details
;
Abscor. T. Higashi (2001). The Rigaku Corporation, Tokyo, Japan.
;
_exptl_crystal_colour            red
_exptl_crystal_density_diffrn    1.485
_exptl_crystal_description       prism
_exptl_crystal_F_000             838
_exptl_crystal_size_max          0.090
_exptl_crystal_size_mid          0.060
_exptl_crystal_size_min          0.050
_refine_diff_density_max         0.734
_refine_diff_density_min         -1.048
_refine_diff_density_rms         0.126
_refine_ls_extinction_method     none
_refine_ls_goodness_of_fit_ref   1.064
_refine_ls_hydrogen_treatment    constr
_refine_ls_matrix_type           full
_refine_ls_number_parameters     508
_refine_ls_number_reflns         8272
_refine_ls_number_restraints     21
_refine_ls_restrained_S_all      1.064
_refine_ls_R_factor_all          0.0825
_refine_ls_R_factor_gt           0.0597
_refine_ls_shift/su_max          0.001
_refine_ls_shift/su_mean         0.000
_refine_ls_structure_factor_coef Fsqd
_refine_ls_weighting_details
'w=1/[\s^2^(Fo^2^)+6.5834P] where P=(Fo^2^+2Fc^2^)/3'
_refine_ls_weighting_scheme      calc
_refine_ls_wR_factor_gt          0.1084
_refine_ls_wR_factor_ref         0.1178
_reflns_Friedel_coverage         0.000
_reflns_number_gt                6585
_reflns_number_total             8272
_reflns_threshold_expression     'I > 2\s(I)'
_cod_data_source_file            om500438s_si_001.cif
_cod_data_source_block           935
_cod_depositor_comments
'Adding full bibliography for 4083903--4083907.cif.'
_cod_original_formula_sum        'C46.50 H33 Cl2 N4 Rh'
_cod_database_code               4083906
#BEGIN Tags that were not found in dictionaries:
_shelx_space_group_comment
;
The symmetry employed for this shelxl refinement is uniquely defined
by the following loop, which should always be used as a source of
symmetry information in preference to the above space-group names.
They are only intended as comments.
;
_shelx_estimated_absorpt_t_min   0.944
_shelx_estimated_absorpt_t_max   0.968
_shelxl_version_number           2013-4
_shelx_res_file
;
TITL sjt-935, red prisms
CELL  0.71073  11.2350  13.1958  13.8948  104.215  107.305   99.963
ZERR     2.00   0.0008   0.0010   0.0010    0.002    0.002    0.002
LATT   1
SFAC  C    H    N    RH   CL
UNIT  93   66   8    2    4
MERG   2
OMIT    -4.00  55.00
rem isor .01 .02 c1 > c47
sadi .01 c47 cl1 c47 cl2 c47 cl3 c47 cl4
sadi .01 cl1 cl2 cl1 cl3 cl1 cl4 cl2 cl3 cl2 cl4 cl3 cl4
FMAP   2
PLAN   20
ACTA
size .09 .06 .05
BOND   $H
CONF  1.7
LIST   4
L.S.  20
rem DAMP   100.00  15.00
TEMP  -173.00
WGHT    0.000000    6.583400
FVAR       0.09957   0.74843   0.06935
C1    1    0.577395    0.690252    0.221077    11.00000    0.01316    0.01514 =
         0.01726    0.00493    0.00693   -0.00219
C2    1    0.437349    0.665918    0.177750    11.00000    0.01147    0.01681 =
         0.02083    0.00823    0.00495   -0.00007
AFIX  43
H2    2    0.378067    0.597028    0.157492    11.00000   -1.20000
AFIX   0
C3    1    0.406840    0.759680    0.171554    11.00000    0.01451    0.01902 =
         0.01882    0.00719    0.00471    0.00465
AFIX  43
H3    2    0.322296    0.768926    0.146518    11.00000   -1.20000
AFIX   0
C4    1    0.527415    0.843050    0.210293    11.00000    0.01158    0.01669 =
         0.01663    0.00603    0.00653    0.00539
C5    1    0.537955    0.948831    0.205332    11.00000    0.01793    0.01255 =
         0.01520    0.00178    0.00641    0.00347
C6    1    0.653291    1.026284    0.233376    11.00000    0.01484    0.01680 =
         0.00921    0.00364    0.00173    0.00422
C7    1    0.663191    1.130300    0.214917    11.00000    0.01514    0.01610 =
         0.01649    0.00404    0.00726    0.00602
AFIX  43
H7    2    0.593301    1.157662    0.184325    11.00000   -1.20000
AFIX   0
C8    1    0.790952    1.181321    0.249494    11.00000    0.01587    0.01400 =
         0.01832    0.00833    0.00330    0.00401
AFIX  43
H8    2    0.827346    1.250521    0.246487    11.00000   -1.20000
AFIX   0
C9    1    0.861659    1.110165    0.292006    11.00000    0.01366    0.01209 =
         0.01437    0.00335    0.00819    0.00578
C10   1    0.995131    1.138681    0.346560    11.00000    0.01258    0.01417 =
         0.01545    0.00372    0.00473    0.00475
C11   1    1.059893    1.071234    0.393965    11.00000    0.01347    0.01132 =
         0.01574    0.00356    0.00465   -0.00208
C12   1    1.195632    1.101795    0.460172    11.00000    0.01188    0.01649 =
         0.01989    0.00463    0.00191   -0.00138
AFIX  43
H12   2    1.253184    1.172347    0.486406    11.00000   -1.20000
AFIX   0
C13   1    1.225074    1.010879    0.477644    11.00000    0.01266    0.01802 =
         0.01580    0.00836   -0.00123    0.00316
AFIX  43
H13   2    1.306720    1.006094    0.519294    11.00000   -1.20000
AFIX   0
C14   1    1.108424    0.922203    0.420764    11.00000    0.00923    0.01874 =
         0.01150    0.00676    0.00429    0.00208
C15   1    1.103403    0.812887    0.406686    11.00000    0.01233    0.01581 =
         0.01185    0.00569    0.00311    0.00569
C16   1    0.989072    0.728053    0.355112    11.00000    0.01100    0.01811 =
         0.01557    0.00809    0.00474    0.00399
C17   1    0.981211    0.613634    0.335200    11.00000    0.01730    0.01478 =
         0.02140    0.00623    0.00825    0.00618
AFIX  43
H17   2    1.052017    0.582768    0.352349    11.00000   -1.20000
AFIX   0
C18   1    0.855414    0.558976    0.288001    11.00000    0.01441    0.01252 =
         0.01738    0.00472    0.00282    0.00198
AFIX  43
H18   2    0.820940    0.482633    0.266514    11.00000   -1.20000
AFIX   0
C19   1    0.782730    0.638013    0.276146    11.00000    0.01408    0.00780 =
         0.01379    0.00219    0.00572   -0.00081
C20   1    0.646884    0.613580    0.233279    11.00000    0.01403    0.01419 =
         0.01356    0.00471    0.00674    0.00212
C21   1    0.413990    0.979935    0.165258    11.00000    0.01184    0.01107 =
         0.02254    0.00437    0.00512    0.00314
C22   1    0.343915    0.950629    0.056519    11.00000    0.01798    0.01706 =
         0.01909    0.00220    0.00603    0.00430
AFIX  43
H22   2    0.374674    0.910449    0.006846    11.00000   -1.20000
AFIX   0
C23   1    0.228279    0.980102    0.020004    11.00000    0.01687    0.01654 =
         0.01770    0.00507   -0.00227   -0.00170
AFIX  43
H23   2    0.181042    0.960233   -0.053999    11.00000   -1.20000
AFIX   0
C24   1    0.183883    1.038366    0.092922    11.00000    0.01137    0.02319 =
         0.03576    0.01774    0.00849    0.00615
AFIX  43
H24   2    0.106191    1.059101    0.068861    11.00000   -1.20000
AFIX   0
C25   1    0.252297    1.066522    0.200778    11.00000    0.01887    0.02236 =
         0.02698    0.00814    0.01247    0.00835
AFIX  43
H25   2    0.220795    1.105772    0.250420    11.00000   -1.20000
AFIX   0
C26   1    0.366337    1.037766    0.236613    11.00000    0.01744    0.01855 =
         0.01742    0.00646    0.00266    0.00239
AFIX  43
H26   2    0.412648    1.057729    0.310786    11.00000   -1.20000
AFIX   0
C27   1    1.072227    1.245824    0.352840    11.00000    0.00611    0.01365 =
         0.02292    0.00839    0.00365    0.00261
C28   1    1.077960    1.266566    0.260075    11.00000    0.01779    0.02006 =
         0.02115    0.00850    0.01086    0.00699
AFIX  43
H28   2    1.031968    1.212196    0.193280    11.00000   -1.20000
AFIX   0
C29   1    1.149825    1.365383    0.264096    11.00000    0.02532    0.02297 =
         0.02890    0.01544    0.01510    0.01013
AFIX  43
H29   2    1.151706    1.378380    0.200211    11.00000   -1.20000
AFIX   0
C30   1    1.218977    1.445304    0.361185    11.00000    0.02035    0.01314 =
         0.04178    0.01507    0.01532    0.00467
AFIX  43
H30   2    1.269251    1.512512    0.364112    11.00000   -1.20000
AFIX   0
C31   1    1.213904    1.426033    0.453699    11.00000    0.02078    0.01289 =
         0.03000    0.00237    0.00822    0.00036
AFIX  43
H31   2    1.260653    1.480611    0.520237    11.00000   -1.20000
AFIX   0
C32   1    1.140643    1.327013    0.450215    11.00000    0.02272    0.01361 =
         0.02403    0.00899    0.00934    0.00241
AFIX  43
H32   2    1.137426    1.314981    0.514166    11.00000   -1.20000
AFIX   0
C33   1    1.228869    0.784474    0.444582    11.00000    0.01301    0.01300 =
         0.01461    0.00240    0.00238    0.00151
C34   1    1.324266    0.807578    0.402171    11.00000    0.01961    0.02222 =
         0.02153    0.01069    0.00849    0.00530
AFIX  43
H34   2    1.309118    0.841412    0.348332    11.00000   -1.20000
AFIX   0
C35   1    1.441140    0.782019    0.437209    11.00000    0.01302    0.03111 =
         0.02147    0.00649    0.00843    0.00595
AFIX  43
H35   2    1.505153    0.798293    0.407392    11.00000   -1.20000
AFIX   0
C36   1    1.464069    0.732975    0.515360    11.00000    0.01433    0.01715 =
         0.02533    0.00056   -0.00266    0.00247
AFIX  43
H36   2    1.544207    0.715938    0.539902    11.00000   -1.20000
AFIX   0
C37   1    1.370293    0.708625    0.557960    11.00000    0.01721    0.01849 =
         0.02064    0.00775    0.00113    0.00571
AFIX  43
H37   2    1.386011    0.674781    0.611775    11.00000   -1.20000
AFIX   0
C38   1    1.252583    0.733682    0.522037    11.00000    0.01588    0.01349 =
         0.01715    0.00453    0.00432    0.00387
AFIX  43
H38   2    1.188062    0.715782    0.550909    11.00000   -1.20000
AFIX   0
C39   1    0.572385    0.497045    0.194775    11.00000    0.00774    0.01138 =
         0.01808    0.00604   -0.00020   -0.00011
C40   1    0.502302    0.457472    0.252065    11.00000    0.01550    0.01507 =
         0.02308    0.00850    0.00556    0.00314
AFIX  43
H40   2    0.503870    0.503997    0.316829    11.00000   -1.20000
AFIX   0
C41   1    0.430024    0.349113    0.213398    11.00000    0.01660    0.02399 =
         0.02759    0.01814    0.00883    0.00472
AFIX  43
H41   2    0.382826    0.322219    0.252464    11.00000   -1.20000
AFIX   0
C42   1    0.426362    0.280840    0.119388    11.00000    0.01347    0.01224 =
         0.02460    0.00633    0.00067   -0.00154
AFIX  43
H42   2    0.376458    0.207479    0.093821    11.00000   -1.20000
AFIX   0
C43   1    0.495787    0.319277    0.061747    11.00000    0.01716    0.01259 =
         0.01741   -0.00496    0.00100   -0.00616
AFIX  43
H43   2    0.493323    0.272336   -0.003152    11.00000   -1.20000
AFIX   0
C44   1    0.569218    0.427498    0.100024    11.00000    0.02022    0.00889 =
         0.02010    0.00420    0.00538   -0.00326
AFIX  43
H44   2    0.617213    0.453715    0.061159    11.00000   -1.20000
AFIX   0
C45   1    0.818821    0.831011    0.149252    11.00000    0.01942    0.02259 =
         0.01502    0.00738    0.00518    0.00404
AFIX  23
H45A  2    0.779187    0.751828    0.117738    11.00000   -1.20000
H45B  2    0.763475    0.866962    0.106858    11.00000   -1.20000
AFIX   0
C46   1    0.949218    0.855796    0.140282    11.00000    0.02771    0.04258 =
         0.02617    0.00991    0.01547    0.00760
AFIX 137
H46A  2    0.987067    0.934462    0.166660    11.00000   -1.50000
H46B  2    0.940750    0.827844    0.065704    11.00000   -1.50000
H46C  2    1.005381    0.821342    0.182598    11.00000   -1.50000
AFIX   0
N1    3    0.629277    0.799373    0.242157    11.00000    0.01189    0.01383 =
         0.01423    0.00361    0.00291    0.00042
N2    3    0.775043    1.015704    0.279533    11.00000    0.01032    0.01447 =
         0.01643    0.00471    0.00020    0.00201
N3    3    1.008304    0.963155    0.375962    11.00000    0.01044    0.01306 =
         0.01352    0.00554    0.00288    0.00170
N4    3    0.866658    0.740484    0.317589    11.00000    0.01540    0.01211 =
         0.01303    0.00602    0.00357    0.00316
RH1   4    0.819705    0.878801    0.301332    11.00000    0.00858    0.00846 =
         0.01175    0.00289    0.00224    0.00057
PART   -1
CL1   5    0.895275    0.378026    0.048613    10.50000    0.03593    0.03298 =
         0.03680    0.01127    0.00262   -0.00141
CL2   5    0.843234    0.571717    0.004662    10.50000    0.03488    0.02939 =
         0.04426    0.00823    0.01439    0.00655
CL3   5    1.102432    0.574326    0.122710    10.50000    0.02507    0.05730 =
         0.05592    0.02841    0.00793   -0.00554
CL4   5    0.987195    0.454218   -0.100689    10.50000    0.10277    0.07478 =
         0.04842    0.03268    0.04880    0.05578
C47   1    0.956051    0.493892    0.017854    10.50000    0.03462    0.04738 =
         0.00936    0.00501    0.00964    0.00389
HKLF    4

REM  sjt-935, red prisms
REM R1 =  0.0597 for    6585 Fo > 4sig(Fo)  and  0.0825 for all    8272 data
REM    508 parameters refined using     21 restraints

END

WGHT      0.0000      5.5763

REM Highest difference peak  0.734,  deepest hole -1.048,  1-sigma level  0.126
Q1    1   0.7177  0.9048  0.2847  11.00000  0.05    0.73
Q2    1   0.9005  0.8431  0.3194  11.00000  0.05    0.68
Q3    1   0.8623  0.8765  0.3964  11.00000  0.05    0.64
Q4    1   0.9447  0.9436  0.3242  11.00000  0.05    0.64
Q5    1   0.7665  0.8972  0.2201  11.00000  0.05    0.63
Q6    1   0.5105  0.6620  0.1906  11.00000  0.05    0.63
Q7    1   0.8840  0.9209  0.2455  11.00000  0.05    0.62
Q8    1   0.8241  1.1579  0.2979  11.00000  0.05    0.60
Q9    1   1.0049  0.9802  0.3084  11.00000  0.05    0.57
Q10   1   0.7525  0.7716  0.2550  11.00000  0.05    0.57
Q11   1   0.8167  0.8059  0.2367  11.00000  0.05    0.56
Q12   1   0.7537  0.8208  0.3475  11.00000  0.05    0.56
Q13   1   0.4593  0.8064  0.1604  11.00000  0.05    0.53
Q14   1   0.9971  0.6818  0.3727  11.00000  0.05    0.53
Q15   1   0.8487  1.0322  0.3907  11.00000  0.05    0.52
Q16   1   1.0319  1.0794  0.3454  11.00000  0.05    0.50
Q17   1   0.6942  0.7958  0.3645  11.00000  0.05    0.49
Q18   1   0.7817  0.7430  0.1598  11.00000  0.05    0.49
Q19   1   0.4818  0.4600  0.0611  11.00000  0.05    0.49
Q20   1   0.5371  0.9400  0.0342  11.00000  0.05    0.48
;
_shelx_res_checksum              46412
_shelx_hkl_file
;
   1   0  -2 26.5300 1.78000   1
  -1   0   2 24.2000 1.74000   1
   1   0  -2 25.1100 1.72000   1
   1   0  -2 25.7400 1.16000   1
  -1   0   2 24.9500 1.16000   1
  -1   0   2 25.0500 1.78000   1
  -1   0   2 27.8100 1.78000   1
   0   1  -2 16.6600 1.25000   1
   0   1  -2 15.5000 0.91000   1
   0   1  -2 14.6200 1.12000   1
   0   1  -2 14.3800 1.20000   1
   0  -1   2 14.0400 1.16000   1
   0  -1   2 15.0000 1.29000   1
   0  -1   2 13.9000 0.86000   1
   0  -2   1 3.40000 0.73000   1
   0  -2   1 3.54000 0.49000   1
   0   2  -1 4.66000 0.76000   1
   0   2  -1 3.62000 0.50000   1
   0   0   2 193.060 12.0400   1
   0   0   2 172.170 11.0000   1
   0   0  -2 184.890 11.3700   1
   0   0  -2 176.640 11.0600   1
   0   0  -2 157.830 10.2800   1
   0   0   2 177.560 10.8600   1
   1   1  -2 113.250 7.01000   1
  -1  -1   2 122.070 7.27000   1
  -1  -1   2 127.600 7.74000   1
   1   1  -2 139.850 8.33000   1
   0   2   0 4.26000 0.56000   1
   0   2   0 3.27000 0.57000   1
   0   2   0 2.93000 0.81000   1
   0  -2   0 2.89000 0.51000   1
   0  -2   0 3.31000 0.77000   1
   0   2   0 3.62000 0.83000   1
   0  -2   0 3.08000 0.56000   1
  -1   2   0 29.8100 1.23000   1
  -1   2   0 28.8100 1.57000   1
   1  -2   0 28.1400 1.77000   1
   1  -2   0 28.9300 1.78000   1
   1  -2   0 28.0500 1.22000   1
  -1   2   0 28.8900 1.75000   1
   1  -2   1 0.71000 0.37000   1
   1  -2   1 1.99000 0.28000   1
   1  -2   1 1.02000 0.68000   1
  -1   2  -1 0.92000 0.46000   1
  -1   2  -1 0.93000 0.34000   1
  -1   2  -1 0.89000 0.32000   1
  -1   2  -1 1.35000 0.63000   1
   2   0  -1 2.90000 0.55000   1
  -2   0   1 1.65000 0.44000   1
   2   0  -1 2.39000 0.76000   1
   2   0  -1 1.84000 0.41000   1
  -2   0   1 2.97000 0.75000   1
  -2   0   1 1.73000 0.68000   1
  -2   0   1 1.42000 0.62000   1
   2   0  -1 2.62000 0.71000   1
   1  -1  -2 62.6600 3.14000   1
   1  -1  -2 65.1600 3.52000   1
   1  -1  -2 59.2500 3.70000   1
  -1   1   2 64.0200 3.80000   1
  -1   1   2 67.7800 3.84000   1
  -1   1   2 64.9600 3.28000   1
  -2   1   1 292.820 20.5800   1
  -2   1   1 305.710 21.3300   1
  -2   1   1 298.620 20.2200   1
   2  -1  -1 295.410 21.0300   1
   2  -1  -1 293.380 20.0200   1
   0   2  -2 10.4600 0.97000   1
   0  -2   2 9.63000 0.80000   1
   0  -2   2 9.30000 0.83000   1
   0   2  -2 9.79000 0.84000   1
   0   2  -2 8.75000 1.14000   1
   2  -1   0 0.18000 0.25000   1
   2  -1   0 0.28000 0.35000   1
  -2   1   0 0.01000 0.23000   1
  -2   1   0 0.41000 0.39000   1
  -2   1   0 -0.0800 0.31000   1
   2  -1   0 -1.0300 0.38000   1
  -2   1   0 0.08000 0.21000   1
  -1  -1  -1 0.49000 0.44000   1
  -1  -1  -1 0.06000 0.42000   1
   1   1   1 0.60000 0.38000   1
   1   1   1 0.12000 0.46000   1
   1   1   1 1.38000 0.67000   1
   1   1   1 0.61000 0.66000   1
  -1  -1  -1 0.82000 0.64000   1
  -1  -1  -1 -0.2000 0.72000   1
   1  -2  -1 3.83000 0.61000   1
  -1   2   1 2.68000 0.83000   1
  -1   2   1 3.48000 0.44000   1
  -1   2   1 5.21000 0.89000   1
  -1   2   1 3.10000 0.40000   1
   1  -2  -1 2.50000 0.42000   1
   1   2  -1 0.48000 0.72000   1
  -1  -2   1 1.13000 0.67000   1
   1   2  -1 0.55000 0.74000   1
  -1  -2   1 0.17000 0.67000   1
   1   2  -1 0.94000 0.72000   1
   2   0   0 0.72000 0.51000   1
  -2   0   0 1.09000 0.67000   1
   2   0   0 1.04000 0.44000   1
   2   0   0 1.44000 0.58000   1
  -2   0   0 1.22000 0.43000   1
  -2   0   0 0.68000 0.65000   1
   1  -1   2 247.570 16.9100   1
   1  -1   2 239.320 15.6300   1
  -1   1  -2 240.350 16.4100   1
  -1   1  -2 236.910 15.3000   1
   1  -1   2 240.460 14.9800   1
  -1   1  -2 240.340 16.5400   1
   1  -1   2 249.770 17.5200   1
   0   1   2 75.5900 4.60000   1
   0   1   2 75.0600 4.36000   1
   0  -1  -2 78.8300 4.62000   1
   0  -1  -2 83.7600 4.85000   1
   0  -1  -2 84.6200 4.85000   1
   0   1   2 73.1400 4.31000   1
   0   1   2 81.6400 4.74000   1
   0   2   1 198.750 13.6400   1
   0   2   1 212.940 14.4400   1
   0  -2  -1 217.710 14.5900   1
   0  -2  -1 202.550 13.8800   1
   0  -2  -1 217.230 14.3700   1
   0   2   1 201.570 13.5500   1
   0   2   1 213.840 14.1800   1
   0  -2  -1 206.290 13.6400   1
  -2   0   2 0.65000 0.56000   1
  -2   0   2 -0.1100 0.69000   1
  -2   0   2 -0.1700 0.63000   1
   2   0  -2 0.17000 0.50000   1
   2   0  -2 0.14000 0.28000   1
   2   0  -2 0.50000 0.74000   1
   2   0  -2 0.13000 0.68000   1
  -1  -2   2 147.590 9.38000   1
   1   2  -2 151.310 9.81000   1
  -1  -2   2 142.390 8.98000   1
  -1  -2   2 149.110 9.31000   1
  -2  -1   1 19.2900 1.60000   1
  -2  -1   1 19.0200 1.58000   1
   2   1  -1 19.1100 1.43000   1
   2   1  -1 21.5200 1.80000   1
   2   1  -1 19.4800 1.80000   1
  -2  -1   1 19.7900 1.50000   1
  -1  -2   0 1.55000 0.75000   1
  -1  -2   0 2.12000 0.93000   1
   1   2   0 2.04000 0.90000   1
   1   2   0 1.81000 0.82000   1
   1   2   0 1.83000 0.67000   1
   1   2   0 2.29000 0.79000   1
  -1  -2   0 1.46000 0.73000   1
   1   0   2 0.38000 0.68000   1
   1   0   2 -0.0900 0.35000   1
   1   0   2 0.19000 0.29000   1
   1   0   2 -0.0400 0.45000   1
  -1   0  -2 0.92000 0.43000   1
  -1   0  -2 0.26000 0.60000   1
  -1   0  -2 0.50000 0.75000   1
  -2   2   0 0.59000 0.34000   1
   2  -2   0 1.04000 0.39000   1
   2  -2   0 1.03000 0.37000   1
  -2   2   0 1.37000 0.40000   1
  -2   2   0 0.38000 0.28000   1
   2  -1  -2 8.07000 1.13000   1
   2  -1  -2 6.84000 0.76000   1
  -2   1   2 7.20000 0.93000   1
  -2   1   2 6.54000 0.98000   1
   1  -2   2 14.3600 0.77000   1
   1  -2   2 13.9400 0.92000   1
   1  -2   2 14.5600 1.33000   1
  -1   2  -2 15.6000 1.57000   1
  -1   2  -2 14.3100 0.76000   1
  -1   2  -2 14.2500 0.90000   1
  -2  -1   2 2.50000 0.99000   1
  -2  -1   2 2.93000 1.07000   1
  -2  -1   2 3.22000 0.88000   1
   2   1  -2 3.50000 0.58000   1
   2   1  -2 2.40000 1.10000   1
   1   1  -3 0.60000 0.71000   1
  -1  -1   3 0.35000 0.56000   1
  -1  -1   3 0.26000 0.73000   1
   1   1  -3 0.65000 0.79000   1
  -1  -1   3 0.49000 0.67000   1
  -1  -1   3 0.52000 0.79000   1
   1   1  -3 0.35000 0.52000   1
   1   1  -3 1.15000 0.89000   1
   2  -1   1 3.16000 0.30000   1
   2  -1   1 2.85000 0.52000   1
   2  -1   1 2.56000 0.75000   1
  -2   1  -1 2.08000 0.49000   1
  -2   1  -1 2.67000 0.38000   1
  -2   1  -1 2.99000 0.90000   1
  -1   0   3 1011.50 116.340   1
   1   0  -3 1016.82 116.660   1
   1   0  -3 1095.38 125.780   1
   1   0  -3 1011.26 114.180   1
  -1   0   3 1030.31 116.360   1
  -1   0   3 1014.22 116.640   1
  -2   2   1 8.74000 0.93000   1
   2  -2  -1 8.81000 0.60000   1
   2  -2  -1 9.12000 1.09000   1
  -2   2   1 8.58000 0.64000   1
  -2   2   1 8.95000 0.66000   1
   0  -1   3 18.9100 1.17000   1
   0   1  -3 20.3900 1.51000   1
   0  -1   3 22.1200 1.72000   1
   0  -1   3 19.3500 1.56000   1
   0  -1   3 21.6400 1.45000   1
   0   1  -3 20.5800 1.77000   1
   0   1  -3 21.7700 1.63000   1
  -2  -1   0 376.090 29.9100   1
  -2  -1   0 371.450 29.1000   1
   2   1   0 353.030 28.2500   1
   2   1   0 363.250 29.2800   1
   2   1   0 378.530 29.6600   1
  -2  -1   0 366.430 29.5800   1
   0  -3   1 -0.2000 0.35000   1
   0   3  -1 0.30000 0.71000   1
   0   3  -1 0.04000 0.61000   1
   0   3  -1 0.45000 0.45000   1
   0  -3   1 0.27000 0.58000   1
  -2   0  -1 103.790 5.50000   1
  -2   0  -1 109.420 6.86000   1
   2   0   1 99.7500 5.43000   1
   2   0   1 99.0500 5.11000   1
   2   0   1 94.0800 5.90000   1
  -2   0  -1 104.010 6.17000   1
   2   0   1 102.260 6.04000   1
   1  -3   1 554.980 49.1100   1
   1  -3   1 538.490 46.2800   1
  -1   3  -1 556.990 49.5800   1
   1  -3   1 540.170 46.0300   1
  -1   3  -1 553.910 49.0000   1
   1  -3   0 18.1600 0.98000   1
   1  -3   0 20.1300 1.50000   1
  -1   3   0 21.2200 1.77000   1
  -1   3   0 20.4300 1.14000   1
  -1   3   0 20.4200 1.58000   1
   1  -3   0 20.8200 1.76000   1
   2  -2   1 14.6300 0.78000   1
  -2   2  -1 14.1500 0.80000   1
   2  -2   1 13.8500 0.79000   1
  -2   2  -1 13.9200 1.17000   1
  -2   2  -1 15.0000 0.88000   1
   2  -2   1 14.2600 1.06000   1
  -2   2  -1 14.7600 0.84000   1
   0   0   3 3.99000 1.01000   1
   0   0   3 3.07000 0.83000   1
   0   0  -3 3.62000 0.86000   1
   0   0  -3 3.86000 0.87000   1
   0   0  -3 3.52000 0.97000   1
   0   0   3 3.57000 0.64000   1
   1  -2  -2 17.7000 1.79000   1
  -1   2   2 16.0800 1.69000   1
   1  -2  -2 17.7400 1.14000   1
   1  -2  -2 19.0100 1.22000   1
  -1   2   2 19.5100 1.34000   1
  -1   2   2 18.8700 1.14000   1
  -1   2   2 20.9500 1.58000   1
   0  -2   3 0.21000 0.62000   1
   0  -2   3 -0.1000 0.62000   1
   0  -2   3 -0.1000 0.37000   1
   0   2  -3 0.08000 0.73000   1
   0   2  -3 0.41000 0.47000   1
   0   2  -3 0.02000 0.55000   1
   0   3   0 0.20000 0.70000   1
   0   3   0 1.06000 0.64000   1
   0   3   0 0.68000 0.68000   1
   0   3   0 0.78000 0.83000   1
   0  -3   0 0.46000 0.68000   1
   0  -3   0 0.98000 0.80000   1
   0  -3   0 0.52000 0.51000   1
   1   2  -3 10.8700 1.21000   1
   1   2  -3 7.97000 1.11000   1
  -1  -2   3 7.14000 1.23000   1
  -1  -2   3 7.26000 1.04000   1
   0   3  -2 33.0100 2.25000   1
   0  -3   2 29.4500 1.73000   1
   0  -3   2 31.2400 1.79000   1
   0  -3   2 30.4600 1.97000   1
   2   0  -3 0.97000 0.40000   1
   2   0  -3 1.88000 0.65000   1
  -2   0   3 2.16000 0.96000   1
  -2   0   3 1.96000 0.85000   1
  -2   0   3 3.31000 0.81000   1
   2   0  -3 2.01000 0.98000   1
  -1  -2  -1 3.95000 0.85000   1
   1   2   1 5.05000 1.07000   1
  -1  -2  -1 4.23000 1.12000   1
   1   2   1 3.37000 0.99000   1
   1   2   1 3.33000 0.94000   1
  -1  -2  -1 4.66000 0.73000   1
  -1  -2  -1 5.60000 0.99000   1
   1   2   1 3.92000 0.74000   1
  -2  -1   3 3.70000 1.06000   1
   2   1  -3 2.90000 0.85000   1
   2   1  -3 3.92000 1.38000   1
   2   1  -3 3.22000 1.27000   1
  -2  -1   3 3.37000 1.21000   1
   1  -1  -3 264.780 19.7200   1
  -1   1   3 283.210 20.0800   1
  -1   1   3 301.440 22.3200   1
  -1   1   3 281.880 20.9300   1
   1  -1  -3 292.960 21.9900   1
   1  -1  -3 285.960 20.1800   1
   1   1   2 5.22000 0.73000   1
   1   1   2 5.96000 0.79000   1
  -1  -1  -2 4.74000 0.63000   1
   1   1   2 4.90000 0.60000   1
  -1  -1  -2 5.06000 0.92000   1
  -1  -1  -2 4.94000 0.71000   1
  -1  -1  -2 5.41000 1.16000   1
   1   1   2 6.83000 1.03000   1
   2  -2  -2 34.8600 2.51000   1
   2  -2  -2 34.6700 1.95000   1
  -2   2   2 36.3500 1.64000   1
  -2   2   2 36.5700 2.38000   1
  -2   2   2 35.3800 1.92000   1
  -2  -2   2 1.44000 0.81000   1
  -2  -2   2 1.89000 0.83000   1
   2   2  -2 1.29000 1.08000   1
   2   2  -2 2.36000 0.65000   1
   2   2  -2 0.20000 1.16000   1
   2   2  -1 0.91000 0.83000   1
  -2  -2   1 0.97000 0.51000   1
  -2  -2   1 -0.0200 0.89000   1
   2   2  -1 -0.3200 0.87000   1
  -2  -2   1 0.09000 0.70000   1
   2   2  -1 0.49000 0.68000   1
  -1   3  -2 11.5600 1.44000   1
  -1   3  -2 12.1600 0.83000   1
   1  -3   2 10.2500 0.75000   1
  -1   3  -2 11.4400 0.85000   1
   1  -3   2 12.5100 0.87000   1
   0  -2  -2 12.6900 1.42000   1
   0  -2  -2 13.8100 1.49000   1
   0  -2  -2 13.3200 1.29000   1
   0   2   2 14.6900 1.33000   1
   0   2   2 15.4300 1.19000   1
   0  -2  -2 13.8400 1.20000   1
   0   2   2 13.7400 1.49000   1
   0   2   2 12.6600 1.44000   1
  -1   3   1 5.78000 0.96000   1
   1  -3  -1 5.77000 1.11000   1
   1  -3  -1 4.29000 0.89000   1
   1  -3  -1 5.07000 0.64000   1
  -1   3   1 5.53000 0.63000   1
  -1   3   1 6.47000 1.16000   1
  -1   3   1 5.33000 0.66000   1
   1   3  -1 30.7000 2.15000   1
   1   3  -1 32.1200 2.34000   1
   1   3  -1 28.4000 2.49000   1
  -1  -3   1 28.0100 2.03000   1
  -1  -3   1 32.0000 2.08000   1
  -1  -3   2 46.9300 2.96000   1
  -1  -3   2 44.9600 2.75000   1
   1   3  -2 44.7600 3.08000   1
   1   3  -2 48.3700 3.37000   1
   2  -3   0 35.6600 2.20000   1
  -2   3   0 33.0900 1.89000   1
  -2   3   0 33.5600 1.96000   1
  -2   3   0 33.4400 1.72000   1
   2  -1  -3 28.1600 2.26000   1
   2  -1  -3 25.1400 1.71000   1
  -2   1   3 28.7600 1.89000   1
  -2   1   3 25.8700 1.29000   1
  -2   1   3 26.4700 1.97000   1
   2  -1  -3 25.8400 1.21000   1
  -3   1   1 0.25000 0.40000   1
  -3   1   1 0.80000 0.39000   1
  -3   1   1 0.90000 0.49000   1
  -3   1   1 0.42000 0.58000   1
   3  -1  -1 1.19000 0.47000   1
   3  -1  -1 0.69000 0.42000   1
   3  -1  -1 0.77000 0.41000   1
   1  -1   3 15.5700 1.39000   1
   1  -1   3 14.0600 0.92000   1
   1  -1   3 13.6800 0.78000   1
  -1   1  -3 15.2400 1.17000   1
  -1   1  -3 14.3000 1.29000   1
  -1   1  -3 15.5200 1.69000   1
   1  -1   3 13.9100 1.43000   1
   2   1   1 27.6500 1.59000   1
   2   1   1 27.1300 1.66000   1
  -2  -1  -1 26.6000 1.52000   1
  -2  -1  -1 27.4200 2.04000   1
  -2  -1  -1 30.9200 2.46000   1
  -2  -1  -1 24.8900 1.58000   1
   2   1   1 27.3200 2.18000   1
   2   1   1 26.5100 1.65000   1
  -3   0   1 33.1200 1.98000   1
  -3   0   1 32.1800 1.94000   1
   3   0  -1 31.9800 1.76000   1
   3   0  -1 34.4700 2.12000   1
   3   0  -1 32.6700 1.88000   1
   3   0  -1 35.1700 2.41000   1
  -3   0   1 34.9600 2.23000   1
  -2   1  -2 0.34000 0.50000   1
  -2   1  -2 0.17000 0.25000   1
  -2   1  -2 0.21000 0.81000   1
   2  -1   2 0.94000 0.49000   1
   2  -1   2 0.35000 0.64000   1
   2  -1   2 0.42000 0.24000   1
  -2   1  -2 0.22000 0.21000   1
   0   1   3 0.56000 0.83000   1
   0   1   3 0.58000 0.65000   1
   0   1   3 0.80000 0.64000   1
   0   1   3 0.56000 0.58000   1
   0  -1  -3 0.92000 0.61000   1
   0  -1  -3 0.54000 0.63000   1
   0  -1  -3 1.20000 0.74000   1
   1  -2   3 -0.1300 0.48000   1
  -1   2  -3 0.43000 0.57000   1
  -1   2  -3 0.47000 0.80000   1
  -1   2  -3 0.28000 0.47000   1
   1  -2   3 0.29000 0.26000   1
   1  -2   3 -0.1500 0.62000   1
  -1   2  -3 0.26000 0.32000   1
  -3   0   2 3.99000 1.02000   1
  -3   0   2 4.79000 0.87000   1
  -3   0   2 4.46000 0.96000   1
   3   0  -2 4.75000 1.08000   1
   3   0  -2 4.84000 0.81000   1
   3   0  -2 4.32000 0.56000   1
  -3   0   2 4.56000 0.82000   1
  -3   0   2 4.68000 0.70000   1
   2  -3   1 16.0700 1.27000   1
  -2   3  -1 15.4800 0.70000   1
   2  -3   1 16.6500 1.10000   1
   2  -3   1 15.5200 1.22000   1
  -2   3  -1 16.8300 0.96000   1
  -2   3  -1 17.9300 1.27000   1
  -2   3  -1 17.4700 1.41000   1
   0  -3  -1 24.7300 2.10000   1
   0  -3  -1 26.8000 2.06000   1
   0   3   1 26.4600 1.77000   1
   0   3   1 25.5500 2.15000   1
   0   3   1 25.1500 1.88000   1
   0   3   1 25.7400 1.83000   1
   0  -3  -1 24.9400 1.87000   1
   0  -3  -1 24.0000 1.56000   1
  -2   2  -2 204.670 12.0500   1
  -2   2  -2 207.910 14.5600   1
  -2   2  -2 200.070 12.6800   1
   2  -2   2 201.270 13.7600   1
   2  -2   2 202.450 12.9000   1
  -3   1   0 0.31000 0.37000   1
  -3   1   0 0.51000 0.50000   1
  -3   1   0 0.09000 0.29000   1
  -3   1   0 0.74000 0.34000   1
   3  -1   0 -0.1300 0.48000   1
   3  -1   0 -0.1500 0.27000   1
   3  -1   0 0.27000 0.38000   1
   3  -1   0 -0.1500 0.41000   1
   3  -1  -2 5.14000 0.43000   1
  -3   1   2 5.83000 0.93000   1
   3  -1  -2 4.69000 0.64000   1
  -3   1   2 5.11000 0.76000   1
  -3   1   2 5.24000 0.46000   1
  -3   1   2 4.40000 0.71000   1
   3  -1  -2 5.77000 0.94000   1
   2  -3  -1 3.81000 0.41000   1
  -2   3   1 4.18000 0.55000   1
  -2   3   1 3.54000 0.81000   1
  -2   3   1 3.96000 0.85000   1
   2  -3  -1 4.04000 0.92000   1
   0   3  -3 3.80000 0.64000   1
   0  -3   3 5.20000 0.71000   1
   0   3  -3 3.37000 0.78000   1
   0   3  -3 4.76000 0.76000   1
   0  -3   3 3.62000 0.67000   1
   2   2  -3 6.83000 1.58000   1
  -2  -2   3 4.70000 1.23000   1
  -2  -2   3 4.51000 1.03000   1
  -2  -2   3 4.80000 0.69000   1
   2   2   0 90.1100 5.53000   1
  -2  -2   0 89.5500 5.96000   1
   2   2   0 84.3300 5.34000   1
  -2  -2   0 77.4300 4.51000   1
   2   2   0 83.6000 5.54000   1
   2   2   0 86.1700 4.77000   1
  -2  -2   0 87.7600 5.22000   1
   1   3   0 225.990 15.5400   1
   1   3   0 208.680 14.6500   1
  -1  -3   0 204.030 13.6400   1
   1   3   0 191.360 13.1900   1
  -1  -3   0 202.810 14.4700   1
   1   3   0 205.300 14.3800   1
  -1  -3   0 197.710 13.7500   1
   1   0   3 0.39000 0.31000   1
   1   0   3 0.09000 0.70000   1
   1   0   3 -0.0100 0.32000   1
   1   0   3 0.57000 0.65000   1
  -1   0  -3 0.76000 0.78000   1
  -1   0  -3 0.27000 0.54000   1
  -1   0  -3 0.42000 0.61000   1
   1   1  -4 240.720 16.9300   1
   1   1  -4 221.690 16.1500   1
   1   1  -4 215.850 15.0300   1
   1   1  -4 241.350 16.9900   1
  -1  -1   4 209.010 15.1400   1
  -1  -1   4 228.670 15.4500   1
  -1  -1   4 222.090 15.6600   1
  -1  -1   4 227.710 15.8800   1
  -3   2   1 83.7500 4.33000   1
  -3   2   1 84.4800 4.45000   1
  -3   2   1 80.1900 4.11000   1
   3  -2  -1 84.4500 4.62000   1
   3  -2  -1 83.8900 4.22000   1
  -3   2   1 81.1300 4.21000   1
   3   0   0 164.530 10.2900   1
  -3   0   0 175.440 11.3700   1
  -3   0   0 170.230 10.5100   1
  -3   0   0 171.750 11.1000   1
   3   0   0 168.420 11.1200   1
   3   0   0 172.940 10.8900   1
  -2   0  -2 0.01000 0.52000   1
  -2   0  -2 -0.6000 0.76000   1
   2   0   2 -0.0200 0.30000   1
   2   0   2 0.20000 0.63000   1
   2   0   2 0.37000 0.56000   1
  -2   0  -2 0.16000 0.29000   1
   2   0   2 -0.0500 0.24000   1
  -2   0  -2 -0.1400 0.30000   1
  -1  -3   3 2.47000 0.62000   1
   1   3  -3 1.60000 0.87000   1
   1   3  -3 3.21000 0.73000   1
  -1  -3   3 2.23000 0.73000   1
   3  -2   0 -0.0200 0.33000   1
  -3   2   0 0.32000 0.30000   1
   3  -2   0 0.18000 0.35000   1
  -3   2   0 0.11000 0.32000   1
   3  -2   0 0.05000 0.34000   1
  -3   2   0 0.12000 0.35000   1
  -3  -1   2 2.38000 0.82000   1
   3   1  -2 2.24000 0.99000   1
  -3  -1   2 2.50000 0.64000   1
  -3  -1   2 2.96000 0.76000   1
   3   1  -2 3.72000 1.02000   1
   3   1  -2 1.27000 0.50000   1
   1   0  -4 348.160 27.8700   1
   1   0  -4 342.530 26.2800   1
  -1   0   4 340.340 26.8600   1
  -1   0   4 346.970 26.5900   1
   1   0  -4 362.310 28.6300   1
  -1   0   4 352.540 28.2500   1
   3   1  -1 61.4100 3.57000   1
   3   1  -1 67.1000 4.30000   1
   3   1  -1 61.9700 3.97000   1
  -3  -1   1 61.0200 3.67000   1
  -3  -1   1 63.1500 3.80000   1
  -3  -1   1 58.6500 3.87000   1
  -1  -2   4 4.06000 0.74000   1
  -1  -2   4 4.22000 0.99000   1
   1   2  -4 2.72000 1.03000   1
   1   2  -4 4.28000 1.19000   1
   1   2  -4 3.98000 0.83000   1
   1   2  -4 3.27000 0.92000   1
   0  -1   4 0.19000 0.60000   1
   0   1  -4 0.16000 0.57000   1
   0  -1   4 -0.0600 0.74000   1
   0  -1   4 0.59000 0.36000   1
   0   1  -4 0.87000 0.76000   1
   0  -1   4 0.30000 0.51000   1
   0   1  -4 0.93000 0.61000   1
  -3   0   3 22.2100 1.76000   1
   3   0  -3 19.7600 2.01000   1
  -3   0   3 20.6900 1.67000   1
   3   0  -3 19.6300 1.40000   1
   3   0  -3 22.5800 1.73000   1
  -3   0   3 20.0600 1.87000   1
   3   0  -3 21.7400 1.08000   1
   1  -2  -3 1.08000 0.46000   1
   1  -2  -3 0.81000 0.85000   1
   1  -2  -3 0.36000 0.54000   1
  -1   2   3 0.60000 0.41000   1
  -1   2   3 1.05000 0.73000   1
  -1   2   3 0.98000 0.66000   1
   1  -3   3 96.6600 5.93000   1
  -1   3  -3 94.3600 5.08000   1
  -1   3  -3 99.2300 5.37000   1
   1  -3   3 91.8100 5.09000   1
   1  -3   3 97.0000 5.16000   1
  -1   3  -3 94.3400 6.30000   1
   2   1  -4 1.29000 0.60000   1
   2   1  -4 -0.0800 0.96000   1
   2   1  -4 0.84000 0.46000   1
  -2  -1   4 1.79000 0.71000   1
  -2  -1   4 1.54000 0.71000   1
  -2  -1   4 0.69000 0.93000   1
   2   1  -4 0.20000 0.92000   1
  -1   4  -1 41.6000 2.53000   1
  -1   4  -1 42.2500 2.19000   1
   1  -4   1 38.9000 1.89000   1
   1  -4   1 39.7600 2.72000   1
  -1   4  -1 42.1400 2.71000   1
   1  -4   1 41.0200 2.47000   1
  -3   2   2 38.7100 1.71000   1
   3  -2  -2 38.2100 2.56000   1
   3  -2  -2 37.0000 1.95000   1
  -3   2   2 40.4500 2.41000   1
  -3   2   2 40.6800 2.11000   1
   2  -3   2 5.13000 0.53000   1
   2  -3   2 4.18000 0.44000   1
   2  -3   2 4.76000 0.80000   1
  -2   3  -2 4.24000 0.44000   1
  -2   3  -2 5.47000 1.07000   1
  -2   3  -2 4.19000 0.52000   1
  -2   3  -2 5.34000 0.49000   1
  -2   0   4 520.560 46.3800   1
   2   0  -4 501.760 43.0500   1
  -2   0   4 509.590 45.6800   1
  -2   0   4 534.210 47.7500   1
  -2   0   4 538.260 45.5800   1
   2   0  -4 448.230 41.1800   1
   2   0  -4 504.270 44.6700   1
   0  -2   4 2.75000 0.87000   1
   0  -2   4 2.01000 0.79000   1
   0  -2   4 2.09000 0.47000   1
   0   2  -4 2.22000 0.90000   1
   0   2  -4 2.74000 0.96000   1
   0   2  -4 4.85000 0.82000   1
   0   2  -4 5.56000 0.68000   1
  -1   3   2 8.43000 1.02000   1
   1  -3  -2 8.15000 0.83000   1
   1  -3  -2 8.49000 1.24000   1
   1  -3  -2 8.45000 0.80000   1
  -1   3   2 6.82000 0.83000   1
  -1   3   2 7.16000 1.25000   1
  -1   3   2 7.52000 0.77000   1
   0   4  -1 15.2300 1.36000   1
   0   4  -1 15.7600 1.16000   1
   0   4  -1 14.8400 1.66000   1
   0  -4   1 15.1800 1.03000   1
   0  -4   1 14.2400 1.30000   1
  -2   2   3 5.75000 0.94000   1
  -2   2   3 6.07000 0.61000   1
  -2   2   3 6.07000 0.96000   1
   2  -2  -3 5.81000 0.63000   1
   2  -2  -3 5.32000 0.50000   1
   2  -2  -3 5.66000 1.17000   1
   1   2   2 36.7500 2.39000   1
   1   2   2 32.3200 1.89000   1
   1   2   2 33.1300 2.27000   1
   1   2   2 35.8100 2.53000   1
  -1  -2  -2 32.7400 2.52000   1
  -1  -2  -2 31.8300 2.03000   1
  -1  -2  -2 32.2700 2.08000   1
  -1  -2  -2 33.4700 2.06000   1
   3  -1   1 4.41000 0.74000   1
  -3   1  -1 4.56000 1.00000   1
  -3   1  -1 4.43000 0.48000   1
   3  -1   1 5.00000 0.76000   1
   3  -1   1 4.04000 0.47000   1
  -3   1  -1 4.33000 0.58000   1
  -1   4   0 35.8500 2.64000   1
   1  -4   0 37.4400 2.33000   1
   1  -4   0 34.2900 1.76000   1
  -1   4   0 35.7000 2.32000   1
   1  -4   0 38.2400 2.67000   1
  -1   4   0 38.9300 2.11000   1
   0   4  -2 101.600 6.54000   1
   0  -4   2 97.4200 5.40000   1
   0  -4   2 97.5100 5.83000   1
   0  -4   2 97.8900 5.51000   1
  -3   1   3 17.6100 1.29000   1
  -3   1   3 16.3600 1.34000   1
  -3   1   3 16.3100 1.40000   1
   3  -1  -3 14.7300 1.11000   1
   3  -1  -3 16.5500 1.57000   1
   3  -1  -3 13.6100 0.49000   1
  -3  -1   3 24.3700 1.83000   1
   3   1  -3 23.3800 2.12000   1
  -3  -1   3 24.2100 1.70000   1
  -3  -1   3 25.0700 2.20000   1
   3   1  -3 24.8300 2.04000   1
   3   1  -3 22.9200 1.27000   1
  -2   3   2 47.3800 2.81000   1
  -2   3   2 40.0900 2.12000   1
  -2   3   2 42.1200 2.06000   1
   2  -3  -2 40.4300 1.97000   1
   2  -3  -2 38.2800 2.83000   1
  -3   2  -1 248.080 16.0300   1
  -3   2  -1 263.740 17.8200   1
  -3   2  -1 255.950 16.7800   1
   3  -2   1 255.290 18.0500   1
   3  -2   1 260.640 17.7600   1
   3  -2   1 272.450 17.5400   1
  -3   2  -1 263.480 18.7900   1
   2   3  -2 68.0800 4.02000   1
  -2  -3   2 55.8500 3.64000   1
  -2  -3   2 71.1100 4.13000   1
   2   3  -2 69.0900 4.54000   1
   2   3  -2 69.4300 4.61000   1
   0   0  -4 47.7600 2.91000   1
   0   0  -4 49.1300 3.12000   1
   0   0   4 47.2400 2.61000   1
   0   0  -4 45.3800 3.03000   1
   0   0   4 46.3800 3.16000   1
   0   0   4 48.1100 2.90000   1
   1  -4   2 26.9800 1.52000   1
  -1   4  -2 27.7300 1.64000   1
  -1   4  -2 28.6100 1.61000   1
   1  -4   2 25.1800 1.41000   1
   1  -4   2 27.0000 1.40000   1
   3   1   0 1.46000 0.59000   1
  -3  -1   0 2.20000 0.68000   1
   3   1   0 1.27000 0.85000   1
   3   1   0 1.53000 0.64000   1
  -3  -1   0 1.56000 0.49000   1
  -3  -1   0 1.17000 0.93000   1
   2   3  -1 0.69000 0.89000   1
  -2  -3   1 1.45000 0.69000   1
  -2  -3   1 1.06000 0.65000   1
  -2  -3   1 1.11000 0.97000   1
   2   3  -1 1.49000 0.68000   1
   2   3  -1 0.69000 0.91000   1
  -1  -3  -1 6.33000 1.09000   1
   1   3   1 5.73000 1.10000   1
   1   3   1 5.97000 1.13000   1
   1   3   1 4.54000 0.78000   1
  -1  -3  -1 5.56000 0.83000   1
   1   3   1 5.61000 0.99000   1
  -1  -3  -1 4.77000 1.17000   1
  -1  -3  -1 7.47000 0.92000   1
   2   2  -4 10.2900 1.57000   1
  -2  -2   4 11.5300 1.43000   1
   2   2  -4 12.3900 1.18000   1
   2   2  -4 13.2900 1.62000   1
  -2  -2   4 12.0900 1.20000   1
   0   4   0 7.21000 0.98000   1
   0   4   0 3.58000 1.21000   1
   0   4   0 5.36000 0.90000   1
   0  -4   0 6.28000 1.17000   1
   0  -4   0 5.78000 0.90000   1
   0  -4   0 6.06000 0.64000   1
   0   4   0 7.25000 0.85000   1
   1   1   3 43.0600 2.36000   1
   1   1   3 45.3400 2.85000   1
   1   1   3 42.2900 2.97000   1
  -1  -1  -3 43.0900 3.03000   1
  -1  -1  -3 45.9800 2.71000   1
   1   1   3 44.2200 2.35000   1
  -1  -1  -3 39.6800 2.58000   1
  -2  -2  -1 27.8000 1.91000   1
  -2  -2  -1 23.9500 1.53000   1
  -2  -2  -1 28.6900 2.34000   1
  -2  -2  -1 27.8800 1.90000   1
   2   2   1 25.7500 1.56000   1
   2   2   1 32.5200 2.10000   1
   2   2   1 31.3600 2.36000   1
   2   2   1 27.4400 1.96000   1
  -3   3   0 28.2200 1.24000   1
  -3   3   0 27.7800 1.54000   1
  -3   3   0 28.1300 1.21000   1
  -3   3   0 29.0400 1.60000   1
   3  -3   0 30.1600 1.63000   1
   3  -3   0 27.0900 1.45000   1
  -3   0  -1 3.76000 0.55000   1
   3   0   1 3.45000 0.75000   1
   3   0   1 4.01000 0.60000   1
   3   0   1 4.19000 0.86000   1
   3   0   1 3.09000 0.40000   1
  -3   0  -1 3.95000 0.75000   1
  -3   0  -1 3.42000 1.02000   1
   1  -1  -4 0.84000 0.50000   1
  -1   1   4 1.21000 0.62000   1
  -1   1   4 0.85000 0.42000   1
   1  -1  -4 0.58000 0.59000   1
   1  -1  -4 0.90000 0.86000   1
  -1   1   4 1.68000 0.84000   1
   0  -2  -3 34.6600 2.30000   1
   0  -2  -3 37.1300 2.29000   1
   0  -2  -3 37.2100 2.52000   1
   0   2   3 37.6000 2.35000   1
   0   2   3 35.4900 2.38000   1
   0   2   3 38.7400 2.65000   1
   0   2   3 36.0700 2.22000   1
  -2  -1  -2 29.5000 1.72000   1
  -2  -1  -2 31.0300 2.38000   1
   2   1   2 26.3900 2.17000   1
   2   1   2 27.9800 1.41000   1
   2   1   2 28.6000 1.61000   1
   2   1   2 26.9000 1.95000   1
  -2  -1  -2 29.1900 1.59000   1
  -2  -1  -2 30.9200 2.02000   1
  -3   3   1 14.0600 0.89000   1
  -3   3   1 11.9400 0.89000   1
   3  -3  -1 11.8900 1.04000   1
   3  -3  -1 11.6300 0.65000   1
  -3   3   1 12.0100 0.73000   1
   0   3   2 19.0600 1.47000   1
   0   3   2 20.4300 1.77000   1
   0   3   2 18.1700 1.40000   1
   0   3   2 16.3000 1.40000   1
   0  -3  -2 16.1500 1.54000   1
   0  -3  -2 15.1000 1.20000   1
   0  -3  -2 17.3200 1.70000   1
   0  -3  -2 16.9200 1.36000   1
  -2  -3   3 35.2400 2.29000   1
  -2  -3   3 37.2000 2.28000   1
  -2  -3   3 36.1800 2.66000   1
   2   3  -3 39.4700 2.99000   1
   2  -1  -4 275.000 19.6600   1
  -2   1   4 287.650 20.8400   1
  -2   1   4 264.070 19.3100   1
  -2   1   4 254.320 17.0800   1
   2  -1  -4 221.990 17.1000   1
   2  -1  -4 265.050 17.9300   1
   2  -4   0 31.0700 1.93000   1
  -2   4   0 33.0700 1.46000   1
  -2   4   0 34.4000 2.32000   1
  -2   4   0 32.5900 1.97000   1
   2  -4   0 32.0500 1.39000   1
   2  -4   0 34.4500 2.33000   1
  -2   4  -1 73.6000 4.35000   1
  -2   4  -1 76.3600 4.06000   1
   2  -4   1 73.0000 3.90000   1
   2  -4   1 76.7300 4.24000   1
   2  -4   1 70.6700 3.16000   1
  -2   4  -1 74.5300 3.99000   1
  -1  -3   4 4.24000 0.71000   1
  -1  -3   4 2.66000 0.92000   1
   1   3  -4 3.94000 0.97000   1
   1   3  -4 2.33000 0.93000   1
   1   3  -4 3.14000 0.72000   1
   0   3  -4 8.15000 0.90000   1
   0   3  -4 10.6000 0.99000   1
   0  -3   4 10.2500 1.11000   1
   0  -3   4 9.17000 0.71000   1
   0  -3   4 9.55000 1.10000   1
   0   3  -4 9.19000 1.35000   1
   3   2  -2 40.9800 3.08000   1
  -3  -2   2 41.1400 2.63000   1
   3   2  -2 42.6900 3.05000   1
   3   2  -2 42.7200 2.40000   1
  -3  -2   2 43.1500 2.96000   1
  -3  -2   2 41.5700 2.61000   1
   2  -2   3 7.01000 0.89000   1
  -2   2  -3 7.43000 0.67000   1
   2  -2   3 6.16000 0.90000   1
  -2   2  -3 9.06000 1.29000   1
  -2   2  -3 7.21000 0.56000   1
  -1  -4   2 50.7900 2.91000   1
   1   4  -2 55.3400 3.33000   1
  -1  -4   2 49.3800 3.04000   1
   1   4  -2 50.4400 3.58000   1
   2  -1   3 1.28000 0.30000   1
   2  -1   3 0.25000 0.67000   1
  -2   1  -3 2.07000 0.61000   1
  -2   1  -3 1.32000 0.41000   1
   2  -1   3 1.68000 0.74000   1
   2  -1   3 2.17000 0.24000   1
  -2   1  -3 2.01000 0.94000   1
   0  -4   3 8.66000 0.95000   1
   0   4  -3 9.80000 0.78000   1
   0   4  -3 9.55000 1.20000   1
   0  -4   3 9.40000 0.91000   1
   1  -4  -1 32.0300 2.52000   1
   1  -4  -1 37.5400 2.27000   1
  -1   4   1 36.7300 2.04000   1
   1  -4  -1 34.0200 1.72000   1
  -1   4   1 36.2900 2.23000   1
  -1   4   1 36.4700 2.67000   1
  -1   4   1 32.3800 2.19000   1
   1   4  -1 120.490 8.17000   1
  -1  -4   1 121.710 7.74000   1
   1   4  -1 123.700 7.74000   1
  -1  -4   1 129.510 7.84000   1
   1   4  -1 126.520 8.00000   1
   1   4  -1 124.720 8.10000   1
  -3   3  -1 9.49000 0.68000   1
  -3   3  -1 10.5000 0.91000   1
  -3   3  -1 9.27000 0.60000   1
   3  -3   1 10.8800 0.82000   1
   3  -3   1 8.92000 0.68000   1
   3  -3   1 8.29000 0.56000   1
  -3   3  -1 9.35000 0.80000   1
  -3  -2   1 21.0900 1.60000   1
  -3  -2   1 27.0600 2.07000   1
  -3  -2   1 22.0000 1.65000   1
   3   2  -1 20.4700 1.87000   1
   3   2  -1 23.3000 2.03000   1
   3   2  -1 21.6500 1.59000   1
  -3   2   3 0.75000 0.58000   1
  -3   2   3 0.57000 0.49000   1
   3  -2  -3 0.41000 0.39000   1
   3  -2  -3 0.38000 0.75000   1
  -1   2  -4 9.02000 1.30000   1
  -1   2  -4 9.30000 0.93000   1
   1  -2   4 7.70000 0.56000   1
   1  -2   4 7.08000 0.99000   1
  -1   2  -4 9.34000 1.00000   1
   1  -2   4 9.15000 0.95000   1
   1  -1   4 -0.2800 0.57000   1
   1  -1   4 0.39000 0.32000   1
   1  -1   4 1.12000 0.69000   1
  -1   1  -4 -0.0300 0.56000   1
  -1   1  -4 0.14000 0.39000   1
  -1   1  -4 0.62000 0.75000   1
   3   2  -3 31.8400 1.92000   1
  -3  -2   3 34.6100 2.03000   1
  -3  -2   3 32.2900 1.84000   1
  -3  -2   3 34.6600 2.25000   1
   3   2  -3 34.1300 2.65000   1
   3   0  -4 69.4100 3.39000   1
  -3   0   4 72.7400 4.58000   1
  -3   0   4 68.7800 4.22000   1
  -3   0   4 65.1000 4.05000   1
   3   0  -4 70.1900 4.57000   1
   3   0  -4 62.6700 3.66000   1
  -2   4   1 9.75000 1.22000   1
   2  -4  -1 6.12000 0.94000   1
   2  -4  -1 6.58000 0.50000   1
  -2   4   1 6.76000 0.60000   1
  -2   4   1 7.17000 0.93000   1
  -2  -3   0 0.39000 0.58000   1
  -2  -3   0 1.54000 0.90000   1
  -2  -3   0 0.77000 0.61000   1
   2   3   0 0.55000 0.54000   1
   2   3   0 1.13000 0.65000   1
   2   3   0 0.56000 0.81000   1
   2   3   0 1.39000 0.87000   1
   1  -4   3 1.03000 0.48000   1
  -1   4  -3 1.46000 0.87000   1
  -1   4  -3 1.49000 0.45000   1
  -1   4  -3 0.81000 0.35000   1
   1  -4   3 1.04000 0.39000   1
   3   1  -4 11.0100 1.43000   1
  -3  -1   4 8.29000 1.33000   1
  -3  -1   4 8.58000 1.07000   1
   3   1  -4 9.00000 0.94000   1
   3   1  -4 9.16000 1.39000   1
  -3   3   2 1.90000 0.48000   1
  -3   3   2 2.22000 0.64000   1
   3  -3  -2 1.40000 0.38000   1
   3  -3  -2 1.65000 0.80000   1
   1   4  -3 2.17000 1.01000   1
  -1  -4   3 2.70000 0.80000   1
  -1  -4   3 2.58000 0.70000   1
  -1  -4   3 2.84000 0.61000   1
   2  -4   2 2.55000 0.31000   1
  -2   4  -2 2.62000 0.42000   1
  -2   4  -2 2.39000 0.37000   1
  -2   4  -2 2.71000 0.47000   1
   2  -4   2 2.65000 0.38000   1
  -2   4  -2 3.01000 0.89000   1
   0  -1  -4 10.6300 1.27000   1
   0  -1  -4 12.0200 1.09000   1
   0   1   4 12.2300 1.03000   1
   0  -1  -4 10.7500 1.23000   1
   0   1   4 10.5200 1.42000   1
   0   1   4 11.8000 1.08000   1
   2  -3   3 11.2400 0.61000   1
   2  -3   3 12.6000 0.85000   1
  -2   3  -3 12.0300 1.51000   1
  -2   3  -3 10.9700 0.88000   1
   2  -3   3 12.3700 1.12000   1
  -2   3  -3 11.4500 0.60000   1
   2   0   3 58.8900 2.91000   1
   2   0   3 53.4000 3.30000   1
   2   0   3 55.2600 3.58000   1
  -2   0  -3 57.1600 3.34000   1
   2   0   3 54.0000 2.66000   1
  -2   0  -3 54.0700 2.83000   1
  -2   0  -3 57.5400 2.83000   1
  -2   0  -3 55.1400 3.80000   1
  -3   2  -2 1.46000 0.37000   1
  -3   2  -2 0.88000 0.22000   1
  -3   2  -2 1.02000 0.83000   1
   3  -2   2 1.06000 0.59000   1
   3  -2   2 1.10000 0.43000   1
   0  -4  -1 20.6800 1.81000   1
   0  -4  -1 18.6600 1.86000   1
   0  -4  -1 19.6500 1.53000   1
   0  -4  -1 20.8600 1.22000   1
   0   4   1 21.2800 1.58000   1
   0   4   1 19.4500 1.44000   1
   0   4   1 20.1500 1.60000   1
   0   4   1 17.1500 1.81000   1
  -4   1   1 27.2500 1.58000   1
  -4   1   1 24.9900 1.31000   1
  -4   1   1 27.8600 1.64000   1
  -4   1   1 25.5900 1.72000   1
   4  -1  -1 28.4400 1.65000   1
   4  -1  -1 26.2000 1.37000   1
   4  -1  -1 29.9800 1.90000   1
   4  -1  -1 25.7200 1.71000   1
  -3   1  -2 0.41000 0.39000   1
   3  -1   2 -0.9300 0.50000   1
   3  -1   2 0.97000 0.50000   1
  -3   1  -2 -0.0900 0.76000   1
   3  -1   2 0.10000 0.22000   1
  -3   1  -2 0.16000 0.23000   1
  -4   1   2 2.68000 0.68000   1
   4  -1  -2 2.94000 0.75000   1
   4  -1  -2 2.61000 0.39000   1
  -4   1   2 3.05000 0.49000   1
  -4   1   2 3.50000 0.53000   1
  -4   1   2 2.14000 0.62000   1
  -4   1   2 3.64000 0.51000   1
  -3   1   4 8.69000 1.02000   1
  -3   1   4 8.00000 1.17000   1
   3  -1  -4 9.58000 1.34000   1
   3  -1  -4 8.70000 0.87000   1
   3  -1  -4 9.81000 0.49000   1
  -3   1   4 8.48000 1.02000   1
   2   3  -4 12.4800 1.63000   1
  -2  -3   4 12.0500 1.11000   1
  -2  -3   4 10.8200 1.44000   1
   2   3  -4 11.6700 1.12000   1
  -3  -1  -1 12.4900 0.85000   1
  -3  -1  -1 13.5300 1.23000   1
  -3  -1  -1 13.4700 1.53000   1
   3   1   1 12.9700 1.39000   1
   3   1   1 13.4200 1.16000   1
   3   1   1 12.9000 0.94000   1
   3   1   1 11.3700 0.69000   1
   1  -3   4 -0.1100 0.52000   1
   1  -3   4 0.10000 0.28000   1
   1  -3   4 -0.1200 0.51000   1
  -1   3  -4 -0.3000 0.75000   1
  -1   3  -4 0.16000 0.38000   1
  -1   3  -4 0.42000 0.43000   1
  -1  -1   5 125.250 8.18000   1
   1   1  -5 120.650 7.62000   1
   1   1  -5 139.340 8.65000   1
  -1  -1   5 128.630 7.78000   1
  -1  -1   5 124.240 7.57000   1
   1   1  -5 125.560 8.02000   1
  -1  -1   5 122.040 7.69000   1
  -4   0   2 5.15000 0.62000   1
   4   0  -2 6.50000 1.00000   1
   4   0  -2 4.12000 0.71000   1
   4   0  -2 4.30000 0.79000   1
  -4   0   2 4.97000 0.72000   1
  -4   0   2 5.31000 0.76000   1
   4   0  -2 4.35000 0.46000   1
  -1  -4   0 61.2800 3.77000   1
  -1  -4   0 67.2400 4.08000   1
  -1  -4   0 66.6700 3.86000   1
  -1  -4   0 72.4200 4.81000   1
   1   4   0 70.3900 4.45000   1
   1   4   0 71.5600 4.17000   1
   1   4   0 67.3900 4.44000   1
   1   4   0 68.7200 4.28000   1
   2  -3  -3 65.4700 4.24000   1
   2  -3  -3 60.5600 3.25000   1
  -2   3   3 65.2300 3.36000   1
  -2   3   3 66.4700 3.72000   1
  -2   3   3 63.3700 3.55000   1
   2  -3  -3 63.5700 3.39000   1
   1   0   4 21.1200 1.32000   1
  -1   0  -4 23.3100 1.57000   1
  -1   0  -4 21.9300 1.36000   1
  -1   0  -4 21.7200 1.87000   1
   1   0   4 20.4000 1.79000   1
   1   0   4 20.5100 1.57000   1
   1   0   4 18.5900 1.10000   1
  -1   3   3 22.2800 1.40000   1
  -1   3   3 22.4100 1.73000   1
  -1   3   3 21.5900 1.58000   1
  -1   3   3 20.1800 1.88000   1
   1  -3  -3 21.0900 1.30000   1
   1  -3  -3 21.2600 1.41000   1
   1  -3  -3 25.0000 2.03000   1
  -1  -2   5 59.1700 3.44000   1
   1   2  -5 63.0400 4.22000   1
   1   2  -5 56.9600 3.66000   1
   1   2  -5 66.2100 4.06000   1
   1   2  -5 61.2000 3.67000   1
  -1  -2   5 57.1000 3.39000   1
  -1  -2   5 57.8900 3.84000   1
  -4   0   1 27.0400 1.59000   1
   4   0  -1 28.5900 1.58000   1
   4   0  -1 28.2200 1.74000   1
  -4   0   1 29.0300 1.77000   1
  -4   0   1 25.8000 1.72000   1
   4   0  -1 26.6900 2.02000   1
   4   0  -1 29.0500 1.79000   1
  -2  -1   5 174.720 11.8000   1
  -2  -1   5 174.730 11.0800   1
  -2  -1   5 184.400 12.4100   1
   2   1  -5 185.290 11.7600   1
   2   1  -5 198.480 13.5700   1
   2   1  -5 192.180 13.3600   1
   2   1  -5 187.310 12.4100   1
  -2  -1   5 155.370 11.2600   1
  -4   2   1 0.11000 0.24000   1
  -4   2   1 0.09000 0.28000   1
   4  -2  -1 0.09000 0.24000   1
  -4   2   1 0.02000 0.32000   1
  -4   2   1 -0.1600 0.35000   1
   4  -2  -1 0.19000 0.36000   1
   4  -2  -1 0.45000 0.33000   1
   3   2   0 0.40000 0.33000   1
  -3  -2   0 0.17000 0.57000   1
   3   2   0 -0.1800 0.63000   1
  -3  -2   0 0.01000 0.48000   1
  -3  -2   0 0.17000 0.80000   1
   3   2   0 0.76000 0.53000   1
   3   2   0 -0.7200 0.75000   1
  -2   2   4 97.2900 6.19000   1
  -2   2   4 121.860 7.42000   1
   2  -2  -4 90.9700 6.35000   1
   2  -2  -4 123.570 7.18000   1
   2  -2  -4 114.400 6.29000   1
  -2   2   4 114.010 6.26000   1
   3   2  -4 66.3300 4.47000   1
  -3  -2   4 64.6000 3.94000   1
  -3  -2   4 64.6900 4.42000   1
   3   2  -4 62.2800 4.34000   1
  -1   2   4 15.5800 1.24000   1
  -1   2   4 15.2400 1.08000   1
   1  -2  -4 17.2300 1.17000   1
   1  -2  -4 17.1900 1.20000   1
  -1   2   4 16.8500 1.59000   1
   1  -2  -4 15.8300 1.68000   1
  -3   4   0 106.590 6.06000   1
  -3   4   0 112.040 6.23000   1
   3  -4   0 108.120 6.31000   1
  -3   4   0 108.200 6.18000   1
  -3   3  -2 90.9600 4.54000   1
  -3   3  -2 87.9800 5.52000   1
  -3   3  -2 88.0300 4.64000   1
   3  -3   2 89.7600 5.27000   1
   3  -3   2 89.3300 4.73000   1
  -3   3  -2 85.9800 4.26000   1
   4  -1   0 27.4800 1.56000   1
  -4   1   0 27.2900 1.74000   1
  -4   1   0 29.2800 1.62000   1
  -4   1   0 28.4900 1.65000   1
   4  -1   0 28.5400 1.74000   1
   4  -1   0 29.1600 1.87000   1
   4  -1   0 27.2900 1.33000   1
   1   0  -5 86.6100 5.44000   1
   1   0  -5 84.0800 4.71000   1
  -1   0   5 80.5500 4.51000   1
   1   0  -5 84.2000 4.96000   1
  -1   0   5 74.7700 4.52000   1
  -1   0   5 76.5700 5.08000   1
  -4   2   2 67.2700 3.65000   1
  -4   2   2 69.2900 4.06000   1
  -4   2   2 72.7800 4.10000   1
   4  -2  -2 66.8800 3.78000   1
   4  -2  -2 68.5800 3.30000   1
  -4   2   2 68.7300 3.23000   1
  -4   2   2 67.8700 3.49000   1
  -2   0   5 154.020 10.3600   1
   2   0  -5 148.720 9.07000   1
   2   0  -5 163.490 10.8500   1
  -2   0   5 139.150 9.01000   1
  -2   0   5 154.490 9.30000   1
  -2   0   5 144.750 9.43000   1
   2   0  -5 135.870 8.97000   1
  -4   0   3 45.1700 2.24000   1
   4   0  -3 46.9900 2.29000   1
   4   0  -3 44.1000 3.18000   1
   4   0  -3 46.2200 2.79000   1
  -4   0   3 47.2300 2.91000   1
  -4   0   3 45.1600 2.69000   1
  -4   0   3 48.3900 3.21000   1
  -4   0   3 48.0000 2.87000   1
   0   4  -4 21.4100 1.27000   1
   0   4  -4 24.3900 2.03000   1
   0   4  -4 23.0000 1.57000   1
   0  -4   4 22.3300 1.40000   1
   0  -4   4 22.6000 1.46000   1
  -1  -2  -3 58.1600 3.44000   1
  -1  -2  -3 53.2100 3.55000   1
  -1  -2  -3 49.5700 2.85000   1
  -1  -2  -3 48.4500 2.94000   1
   1   2   3 57.9200 3.41000   1
   1   2   3 53.2400 3.51000   1
   1   2   3 53.0800 3.28000   1
   1   2   3 50.5400 2.78000   1
  -1  -3  -2 0.69000 0.75000   1
  -1  -3  -2 1.43000 0.58000   1
  -1  -3  -2 2.19000 0.85000   1
  -1  -3  -2 1.14000 0.59000   1
   1   3   2 1.08000 0.77000   1
   1   3   2 0.89000 0.54000   1
   1   3   2 1.13000 0.64000   1
   1   3   2 0.83000 0.84000   1
   3   0   2 17.7200 0.90000   1
   3   0   2 17.6000 1.34000   1
   3   0   2 18.3600 1.06000   1
   3   0   2 17.2500 1.57000   1
  -3   0  -2 15.3400 1.75000   1
  -3   0  -2 17.9500 1.38000   1
  -3   0  -2 18.3700 1.02000   1
  -4   2   0 6.40000 0.43000   1
  -4   2   0 6.98000 0.56000   1
   4  -2   0 6.42000 0.73000   1
  -4   2   0 5.87000 0.71000   1
  -4   2   0 6.56000 0.52000   1
   4  -2   0 6.97000 0.53000   1
   4  -2   0 7.24000 0.59000   1
  -2  -2   5 14.5200 1.58000   1
  -2  -2   5 11.6400 1.13000   1
   2   2  -5 13.9700 1.40000   1
   2   2  -5 12.5000 1.14000   1
   2   2  -5 15.3000 1.16000   1
   2   2  -5 13.4300 1.73000   1
  -4   1   3 37.1700 2.35000   1
   4  -1  -3 41.2800 1.85000   1
   4  -1  -3 42.8600 2.71000   1
  -4   1   3 43.6900 2.70000   1
  -4   1   3 41.8500 2.63000   1
   0   2  -5 9.28000 1.17000   1
   0  -2   5 10.5700 1.05000   1
   0   2  -5 10.6100 1.05000   1
   0  -2   5 7.60000 1.01000   1
   0  -2   5 9.79000 0.86000   1
   0   2  -5 10.5000 0.88000   1
   0   2  -5 9.34000 1.12000   1
   2   2   2 29.9500 2.37000   1
   2   2   2 30.7500 1.66000   1
  -2  -2  -2 32.9200 1.92000   1
  -2  -2  -2 31.0400 2.01000   1
  -2  -2  -2 31.4900 2.44000   1
  -2  -2  -2 32.5700 1.88000   1
   2   2   2 32.3700 2.16000   1
   2   2   2 31.9700 2.10000   1
   0   1  -5 28.5700 1.89000   1
   0  -1   5 26.3600 1.56000   1
   0   1  -5 28.4300 1.86000   1
   0   1  -5 27.2700 2.09000   1
   0  -1   5 26.6400 1.43000   1
   0  -1   5 27.2000 2.14000   1
   0  -1   5 25.6300 1.75000   1
   1  -5   1 0.81000 0.34000   1
  -1   5  -1 0.73000 0.45000   1
   1  -5   1 0.31000 0.55000   1
   1  -5   1 0.45000 0.77000   1
  -1   5  -1 1.10000 0.80000   1
  -1   5  -1 1.44000 0.59000   1
   1  -4  -2 44.2100 2.27000   1
  -1   4   2 40.9400 2.93000   1
   1  -4  -2 37.2300 2.43000   1
   1  -4  -2 46.3700 2.63000   1
   1  -4  -2 37.9000 2.87000   1
  -1   4   2 45.4700 2.54000   1
  -1   4   2 40.1900 2.51000   1
  -1   4   2 41.8500 2.43000   1
  -2   4   2 63.9500 3.88000   1
  -2   4   2 65.4800 3.42000   1
  -2   4   2 62.9200 4.26000   1
  -2   4   2 68.6700 3.64000   1
   2  -4  -2 68.8600 3.41000   1
   2  -4  -2 61.1800 3.71000   1
  -1  -4   4 67.9900 3.96000   1
   1   4  -4 68.3700 3.86000   1
  -1  -4   4 67.8800 4.22000   1
   1   4  -4 70.9400 4.34000   1
   3  -4  -1 6.80000 0.89000   1
   3  -4  -1 6.11000 0.39000   1
  -3   4   1 6.85000 0.44000   1
  -3   4   1 7.37000 0.79000   1
  -3   4   1 8.72000 0.94000   1
  -3   4   1 7.99000 0.81000   1
   3  -4   1 0.91000 0.55000   1
   3  -4   1 1.43000 0.42000   1
  -3   4  -1 1.57000 0.36000   1
  -3   4  -1 1.32000 0.57000   1
  -3   4  -1 -0.0200 0.45000   1
  -3   4  -1 1.14000 0.11000   1
   4   1  -2 72.8800 4.61000   1
   4   1  -2 66.9500 4.37000   1
  -4  -1   2 70.3900 4.03000   1
  -4  -1   2 66.6000 4.01000   1
  -4  -1   2 66.1500 3.84000   1
   4   1  -2 67.6800 3.63000   1
   2   4  -2 78.9300 4.75000   1
   2   4  -2 84.2100 5.29000   1
  -2  -4   2 66.2100 4.21000   1
   2   4  -2 75.2500 5.05000   1
  -2  -4   2 77.6500 4.59000   1
   1  -5   2 81.1000 4.24000   1
  -1   5  -2 84.2700 5.07000   1
  -1   5  -2 81.1600 4.79000   1
   1  -5   2 83.9000 4.81000   1
   1  -5   2 80.7100 4.31000   1
   3   3  -2 43.9300 3.28000   1
   3   3  -2 47.4800 2.93000   1
  -3  -3   2 43.7100 2.77000   1
  -3  -3   2 51.0300 3.06000   1
  -3  -3   2 54.8500 3.43000   1
   3   3  -2 53.4200 3.60000   1
   0  -5   2 1.46000 0.38000   1
   0  -5   2 1.74000 0.60000   1
   0   5  -2 1.46000 0.64000   1
   0   5  -2 1.64000 0.53000   1
   0   5  -2 0.84000 0.88000   1
   4   0   0 5.20000 0.76000   1
   4   0   0 5.68000 0.67000   1
   4   0   0 6.55000 0.96000   1
  -4   0   0 6.03000 0.58000   1
  -4   0   0 4.75000 0.70000   1
  -4   0   0 5.88000 0.98000   1
   3  -3  -3 47.9200 3.25000   1
   3  -3  -3 51.1500 2.55000   1
  -3   3   3 49.1200 2.65000   1
  -3   3   3 50.2900 3.09000   1
  -3   3   3 51.1500 2.26000   1
   2  -4   3 39.7400 1.95000   1
   2  -4   3 40.2800 2.44000   1
  -2   4  -3 41.6400 2.08000   1
  -2   4  -3 40.4800 3.04000   1
  -2   4  -3 38.4200 1.99000   1
   2  -4   3 39.3300 1.90000   1
   0  -5   1 63.7700 3.94000   1
   0  -5   1 66.7700 3.55000   1
   0   5  -1 68.7300 4.55000   1
   0   5  -1 69.5100 4.18000   1
   0   5  -1 70.2200 3.91000   1
  -1  -3   5 23.7500 1.95000   1
   1   3  -5 28.0000 2.13000   1
   1   3  -5 28.6100 2.30000   1
   1   3  -5 27.2600 2.04000   1
   1   3  -5 24.6100 1.71000   1
  -1  -3   5 26.4900 1.67000   1
   2   3   1 31.6600 2.25000   1
   2   3   1 26.9300 1.96000   1
  -2  -3  -1 32.7700 2.02000   1
  -2  -3  -1 35.0700 2.30000   1
  -2  -3  -1 34.6800 2.62000   1
  -2  -3  -1 33.5600 2.10000   1
   2   3   1 31.6300 2.45000   1
   2   3   1 29.5700 1.79000   1
   2   4  -3 10.0200 1.22000   1
  -2  -4   3 11.0300 1.03000   1
  -2  -4   3 10.3600 1.05000   1
   2   4  -3 11.1800 1.52000   1
   3   3  -3 7.80000 0.80000   1
  -3  -3   3 8.63000 0.98000   1
  -3  -3   3 8.47000 1.00000   1
   3   3  -3 8.86000 1.33000   1
   3   3  -3 8.02000 1.35000   1
   4   1  -3 4.51000 1.06000   1
  -4  -1   3 4.00000 1.09000   1
   4   1  -3 3.46000 0.46000   1
  -4  -1   3 4.53000 0.83000   1
  -4  -1   3 4.24000 0.64000   1
   4   1  -3 4.99000 0.80000   1
   0   3   3 27.4800 1.78000   1
   0   3   3 26.3700 1.88000   1
   0  -3  -3 25.3000 1.91000   1
   0  -3  -3 27.2700 2.12000   1
   0  -3  -3 25.7200 1.53000   1
   0   3   3 25.8700 2.01000   1
   0   3   3 24.7300 1.69000   1
   0  -3  -3 25.7300 1.76000   1
  -1   5   0 22.7400 1.32000   1
  -1   5   0 22.3900 1.91000   1
  -1   5   0 20.5600 1.49000   1
   1  -5   0 20.7200 1.05000   1
   1  -5   0 21.4400 1.86000   1
   1  -5   0 20.2400 1.47000   1
  -4  -1   1 50.3400 2.97000   1
  -4  -1   1 46.9600 2.92000   1
  -4  -1   1 54.1000 3.20000   1
   4   1  -1 53.7600 3.49000   1
   4   1  -1 51.9100 3.05000   1
   4   1  -1 51.9400 2.94000   1
   3  -2  -4 30.2200 1.80000   1
   3  -2  -4 31.6200 2.43000   1
   3  -2  -4 32.8900 1.41000   1
  -3   2   4 32.4000 1.99000   1
  -3   2   4 31.4500 1.40000   1
  -3   2   4 30.7700 2.06000   1
  -2  -1  -3 31.1700 1.60000   1
   2   1   3 35.6000 2.03000   1
  -2  -1  -3 31.7500 2.05000   1
   2   1   3 30.7100 1.59000   1
  -2  -1  -3 31.3900 1.74000   1
   2   1   3 31.0100 2.41000   1
  -2  -1  -3 34.0100 2.55000   1
   2   1   3 35.5400 2.29000   1
  -2  -4   1 7.56000 0.94000   1
   2   4  -1 6.36000 0.85000   1
   2   4  -1 8.52000 1.28000   1
   2   4  -1 6.35000 0.93000   1
   2   4  -1 8.66000 1.30000   1
  -2  -4   1 9.71000 1.40000   1
  -2  -4   1 8.10000 0.90000   1
  -4   3   1 25.2800 1.20000   1
  -4   3   1 26.2100 1.42000   1
   4  -3  -1 24.0200 1.45000   1
   4  -3  -1 25.7600 1.31000   1
  -4   3   1 24.6600 1.26000   1
  -4   3   1 26.9700 1.45000   1
   1  -4   4 79.9100 4.48000   1
   1  -4   4 80.4700 4.81000   1
   1  -4   4 81.2500 4.33000   1
  -1   4  -4 71.3900 4.93000   1
  -1   4  -4 77.1200 4.24000   1
  -1   4  -4 84.9300 4.51000   1
   0   3  -5 32.8200 1.93000   1
   0  -3   5 30.4500 1.63000   1
   0  -3   5 30.6800 2.12000   1
   0  -3   5 27.1000 1.94000   1
   0   3  -5 31.9500 2.30000   1
   0   3  -5 31.5100 2.22000   1
   0   3  -5 30.8000 1.93000   1
   2  -5   1 68.7500 3.20000   1
  -2   5  -1 73.8600 4.18000   1
   2  -5   1 74.8600 4.07000   1
   2  -5   1 74.1400 4.31000   1
   2  -5   1 68.7000 3.18000   1
  -2   5  -1 74.4600 4.38000   1
   0   0   5 16.4200 1.60000   1
   0   0  -5 17.3300 1.35000   1
   0   0  -5 16.5500 1.34000   1
   0   0  -5 17.5000 1.50000   1
   0   0   5 13.7500 0.98000   1
   0   0   5 14.8100 1.22000   1
  -4   2   3 9.20000 0.85000   1
  -4   2   3 8.28000 0.82000   1
   4  -2  -3 9.88000 0.67000   1
   4  -2  -3 8.77000 1.00000   1
   3   3  -1 6.28000 0.90000   1
   3   3  -1 8.77000 1.26000   1
  -3  -3   1 7.71000 0.92000   1
  -3  -3   1 9.98000 1.34000   1
   3   3  -1 7.03000 1.29000   1
   3   1  -5 20.5100 1.95000   1
   3   1  -5 18.5500 1.26000   1
   3   1  -5 16.9400 1.28000   1
   3   1  -5 19.6200 1.92000   1
  -3  -1   5 19.9400 1.86000   1
  -3  -1   5 18.0800 1.48000   1
  -3  -1   5 16.7500 1.38000   1
   4  -3   0 138.350 7.65000   1
  -4   3   0 132.660 7.21000   1
  -4   3   0 129.870 7.29000   1
   4  -3   0 131.970 7.67000   1
  -4   3   0 128.600 7.45000   1
   4  -3   0 128.720 7.41000   1
  -2   1   5 14.2900 0.84000   1
  -2   1   5 15.5500 1.26000   1
  -2   1   5 14.5200 1.54000   1
   2  -1  -5 14.0000 1.63000   1
   2  -1  -5 13.0900 0.88000   1
   2  -1  -5 16.1500 1.20000   1
   2  -2   4 7.71000 0.91000   1
  -2   2  -4 8.32000 1.32000   1
  -2   2  -4 9.46000 0.86000   1
  -2   2  -4 7.85000 0.66000   1
   2  -2   4 7.67000 0.42000   1
   2  -2   4 9.98000 1.05000   1
  -1  -1  -4 16.4000 1.18000   1
  -1  -1  -4 16.1200 1.62000   1
   1   1   4 15.7200 1.33000   1
   1   1   4 18.2100 1.23000   1
   1   1   4 16.5800 1.61000   1
  -1  -1  -4 14.0100 1.22000   1
   1   1   4 15.6800 1.02000   1
  -1  -4  -1 37.2300 2.67000   1
  -1  -4  -1 36.3500 2.61000   1
  -1  -4  -1 36.0000 2.15000   1
  -1  -4  -1 35.1300 2.26000   1
   1   4   1 37.1600 2.76000   1
   1   4   1 32.8100 2.07000   1
   1   4   1 39.8100 2.64000   1
   1   4   1 37.4000 2.38000   1
   0   2   4 19.6200 1.73000   1
   0   2   4 19.9500 1.31000   1
   0   2   4 22.5000 1.67000   1
   0   2   4 20.5900 1.47000   1
   0  -2  -4 20.6800 1.57000   1
   0  -2  -4 20.1000 1.39000   1
   0  -2  -4 19.3700 1.61000   1
   3   0  -5 52.9100 3.14000   1
   3   0  -5 57.4700 4.00000   1
  -3   0   5 62.7200 4.03000   1
  -3   0   5 58.6000 3.54000   1
  -3   0   5 57.8200 3.52000   1
   3   0  -5 58.2300 2.95000   1
   2  -5   0 0.06000 0.40000   1
   2  -5   0 0.33000 0.22000   1
  -2   5   0 -0.0800 0.47000   1
  -2   5   0 0.46000 0.33000   1
  -2   5   0 0.75000 0.70000   1
   2  -5   0 1.48000 0.70000   1
   0  -5   3 54.3500 2.85000   1
   0  -5   3 57.4100 3.31000   1
   0  -5   3 55.8200 3.07000   1
   0   5  -3 60.4200 3.81000   1
  -1   1   5 40.3800 2.44000   1
   1  -1  -5 43.5900 2.58000   1
   1  -1  -5 38.6100 2.72000   1
   1  -1  -5 39.9100 2.30000   1
  -1   1   5 37.0900 2.68000   1
  -1   1   5 38.9000 2.14000   1
   4  -2   1 3.90000 0.53000   1
  -4   2  -1 4.25000 0.43000   1
  -4   2  -1 4.25000 0.50000   1
  -4   2  -1 3.30000 0.76000   1
   4  -2   1 5.46000 0.58000   1
   4  -2   1 4.77000 0.25000   1
   0   4   2 36.0600 2.66000   1
   0  -4  -2 37.3300 2.60000   1
   0  -4  -2 39.4600 2.79000   1
   0   4   2 36.5300 2.25000   1
   0   4   2 36.3700 2.33000   1
   0   4   2 35.1400 2.44000   1
   0  -4  -2 37.1500 2.03000   1
   0  -4  -2 35.6300 2.30000   1
   4   0  -4 52.7000 3.57000   1
  -4   0   4 46.6300 2.88000   1
  -4   0   4 46.9100 2.92000   1
  -4   0   4 47.7000 3.16000   1
   4   0  -4 46.8900 2.66000   1
   4   0  -4 47.1700 3.18000   1
   4   0  -4 47.1100 2.27000   1
  -2  -3   5 21.6400 1.85000   1
   2   3  -5 20.4200 1.53000   1
  -2  -3   5 22.1700 1.54000   1
   2   3  -5 20.5000 1.48000   1
   2   3  -5 22.0000 2.04000   1
   4  -1   1 5.92000 0.69000   1
   4  -1   1 6.72000 0.34000   1
   4  -1   1 6.87000 0.65000   1
  -4   1  -1 6.20000 0.65000   1
  -4   1  -1 7.07000 0.96000   1
   4  -1   1 7.45000 0.79000   1
  -4   1  -1 6.45000 0.56000   1
   2  -1   4 28.3200 1.40000   1
   2  -1   4 29.5700 2.12000   1
  -2   1  -4 25.9800 2.14000   1
  -2   1  -4 27.2200 1.46000   1
   2  -1   4 28.2200 1.30000   1
   2  -1   4 20.7500 1.64000   1
  -2   1  -4 26.4800 1.57000   1
  -3   4   2 1.02000 0.79000   1
  -3   4   2 1.24000 0.34000   1
  -3   4   2 0.82000 0.39000   1
   3  -4  -2 0.99000 0.31000   1
   3  -4  -2 1.46000 0.77000   1
  -3   4   2 0.51000 0.57000   1
   0  -5   0 1.26000 0.92000   1
   0  -5   0 1.44000 0.45000   1
   0   5   0 1.23000 0.43000   1
   0   5   0 2.27000 0.69000   1
   0   5   0 1.96000 0.64000   1
   0   5   0 1.11000 0.91000   1
   0  -5   0 1.78000 0.48000   1
   4  -3  -2 23.3500 1.18000   1
   4  -3  -2 24.6900 1.73000   1
  -4   3   2 25.2800 1.23000   1
  -4   3   2 26.7100 1.44000   1
  -4   3   2 25.0400 1.46000   1
  -3   4  -2 42.3500 2.14000   1
  -3   4  -2 45.8300 2.98000   1
  -3   4  -2 42.7100 2.19000   1
   3  -4   2 39.8000 2.35000   1
   3  -4   2 42.5200 1.96000   1
  -3   4  -2 41.9300 1.91000   1
  -1   5  -3 14.9700 1.28000   1
   1  -5   3 16.9900 1.03000   1
   1  -5   3 14.8300 0.83000   1
  -1   5  -3 16.5400 1.72000   1
   1  -5   3 15.4200 1.04000   1
   3   2   1 101.530 6.15000   1
   3   2   1 101.730 5.65000   1
   3   2   1 95.6000 5.98000   1
  -3  -2  -1 103.900 5.96000   1
  -3  -2  -1 100.800 6.31000   1
  -3  -2  -1 106.990 7.02000   1
   3   2   1 102.420 6.61000   1
  -2   5  -2 18.6300 1.70000   1
   2  -5   2 17.7900 1.07000   1
   2  -5   2 17.5700 0.87000   1
   2  -5   2 18.7800 0.93000   1
  -2   5  -2 19.5600 1.15000   1
  -2   5  -2 19.4600 1.15000   1
  -3   2  -3 26.4400 1.06000   1
   3  -2   3 27.2400 1.82000   1
   3  -2   3 31.3800 1.86000   1
  -3   2  -3 30.3800 2.34000   1
  -3   2  -3 30.0000 1.73000   1
  -3  -3   4 0.43000 0.55000   1
  -3  -3   4 0.64000 0.80000   1
  -3  -3   4 0.20000 0.54000   1
   3   3  -4 1.06000 0.86000   1
  -2   3  -4 6.11000 0.56000   1
   2  -3   4 5.22000 0.76000   1
   2  -3   4 4.95000 0.35000   1
  -2   3  -4 6.25000 1.16000   1
  -2   3  -4 4.66000 0.43000   1
   2  -3   4 4.22000 0.77000   1
  -2   3  -4 4.52000 0.61000   1
  -2  -4   4 112.120 6.90000   1
   2   4  -4 115.200 7.70000   1
  -2  -4   4 105.560 6.63000   1
  -2  -4   4 114.980 7.40000   1
  -1  -5   2 9.51000 1.00000   1
   1   5  -2 9.48000 1.38000   1
   1   5  -2 7.61000 1.16000   1
  -1  -5   2 10.5600 0.90000   1
   4  -1  -4 12.8100 1.37000   1
  -4   1   4 11.4500 1.12000   1
  -4   1   4 12.2400 1.00000   1
  -4   1   4 12.1900 1.28000   1
   4  -1  -4 10.8300 0.47000   1
   4  -1  -4 11.6900 0.88000   1
   3   1   2 126.710 7.48000   1
   3   1   2 124.240 6.99000   1
  -3  -1  -2 121.900 8.15000   1
   3   1   2 126.120 7.98000   1
  -3  -1  -2 122.990 7.10000   1
  -3  -1  -2 113.070 7.30000   1
  -3  -1  -2 115.890 6.68000   1
   3   1   2 128.030 8.26000   1
   4   1  -4 52.2300 2.74000   1
   4   1  -4 55.8800 3.72000   1
  -4  -1   4 49.7400 3.15000   1
  -4  -1   4 50.4500 3.03000   1
   4   1  -4 52.9600 3.81000   1
  -4  -1   4 56.1300 3.58000   1
   3   2  -5 -1.0200 0.82000   1
   3   2  -5 0.05000 0.45000   1
   3   2  -5 -0.2900 0.79000   1
  -3  -2   5 1.01000 0.77000   1
  -3  -2   5 0.33000 0.51000   1
   1  -2   5 70.1300 4.44000   1
  -1   2  -5 81.4500 4.40000   1
  -1   2  -5 70.1600 4.81000   1
  -1   2  -5 77.5500 4.48000   1
   1  -2   5 74.0500 3.74000   1
   1  -2   5 76.5700 4.60000   1
   3  -1   3 32.4800 1.38000   1
  -3   1  -3 32.7900 1.43000   1
  -3   1  -3 31.3400 1.37000   1
  -3   1  -3 33.1000 1.85000   1
   3  -1   3 29.9100 2.03000   1
  -3   1  -3 34.6800 2.60000   1
   3  -1   3 34.5100 2.26000   1
   3  -1   3 34.8700 1.49000   1
   4   1   0 53.0700 3.40000   1
   4   1   0 50.2500 2.82000   1
  -4  -1   0 47.4300 3.30000   1
   4   1   0 47.5800 2.76000   1
  -4  -1   0 49.9400 3.00000   1
  -4  -1   0 48.1800 2.62000   1
  -1  -5   3 4.98000 0.62000   1
  -1  -5   3 5.91000 0.77000   1
  -1  -5   3 4.38000 0.90000   1
   1   5  -3 4.94000 1.10000   1
  -1   5   1 67.5600 3.90000   1
  -1   5   1 65.3500 3.55000   1
  -1   5   1 65.4000 4.34000   1
   1  -5  -1 61.9200 3.68000   1
  -1   5   1 62.7400 3.85000   1
   1  -5  -1 60.0900 3.14000   1
   1  -5  -1 60.3400 4.10000   1
   3  -1  -5 102.320 6.10000   1
   3  -1  -5 106.730 5.66000   1
  -3   1   5 91.0000 5.55000   1
  -3   1   5 111.280 6.94000   1
   3  -1  -5 111.440 7.16000   1
  -3   1   5 104.340 5.49000   1
  -3   1   5 104.870 6.48000   1
  -4  -2   2 68.5400 4.11000   1
   4   2  -2 75.5600 4.92000   1
  -4  -2   2 70.5800 4.31000   1
   4   2  -2 70.0500 4.66000   1
   4   2  -2 71.0800 4.00000   1
  -4  -2   2 71.8200 4.58000   1
  -4   3  -1 92.5700 4.85000   1
  -4   3  -1 90.1600 4.63000   1
   4  -3   1 87.5800 5.06000   1
   4  -3   1 92.3200 4.69000   1
   4  -3   1 92.6100 4.86000   1
  -4   3  -1 91.3000 5.29000   1
  -4   3  -1 87.7700 4.50000   1
   1   5  -1 24.1100 1.78000   1
  -1  -5   1 29.4000 1.84000   1
  -1  -5   1 26.8400 1.61000   1
   1   5  -1 29.7200 2.09000   1
   1   5  -1 26.6700 2.25000   1
   1   5  -1 24.4700 1.68000   1
  -3   3  -3 0.11000 0.39000   1
  -3   3  -3 0.57000 0.79000   1
  -3   3  -3 0.51000 0.22000   1
   3  -3   3 -0.0900 0.36000   1
   3  -3   3 0.86000 0.52000   1
  -2   5   1 66.2600 3.53000   1
  -2   5   1 67.2200 3.51000   1
   2  -5  -1 63.9800 4.20000   1
   2  -5  -1 64.6300 3.77000   1
   2  -5  -1 66.4600 3.35000   1
  -2   5   1 69.0800 4.49000   1
  -2   5   1 64.9300 3.94000   1
  -2  -4   0 10.7500 1.06000   1
   2   4   0 10.5300 1.11000   1
   2   4   0 12.8500 1.45000   1
   2   4   0 9.44000 1.37000   1
  -2  -4   0 11.5500 1.09000   1
  -2  -4   0 9.88000 1.46000   1
   2   4   0 11.8000 0.90000   1
   4   2  -3 50.2200 3.42000   1
   4   2  -3 46.1000 2.52000   1
  -4  -2   3 43.1000 2.80000   1
   4   2  -3 45.1100 3.24000   1
  -4  -2   3 50.5400 2.96000   1
  -1   1  -5 54.8700 3.25000   1
  -1   1  -5 58.2900 3.84000   1
   1  -1   5 55.0300 3.66000   1
  -1   1  -5 55.1600 3.01000   1
   1  -1   5 55.9700 3.09000   1
   1  -1   5 56.9000 3.45000   1
   2  -3  -4 1.52000 0.48000   1
   2  -3  -4 1.80000 0.90000   1
   2  -3  -4 0.66000 0.50000   1
  -2   3   4 1.65000 0.58000   1
  -2   3   4 1.03000 0.60000   1
  -2   3   4 1.39000 0.46000   1
   4   0   1 118.540 7.73000   1
   4   0   1 129.370 7.08000   1
   4   0   1 130.360 7.79000   1
   4   0   1 118.760 7.57000   1
  -4   0  -1 132.090 7.68000   1
  -4   0  -1 141.130 8.66000   1
  -4   0  -1 124.470 8.18000   1
  -1   3  -5 -0.1400 0.77000   1
  -1   3  -5 0.43000 0.47000   1
  -1   3  -5 0.44000 0.46000   1
  -1   3  -5 0.06000 0.39000   1
   1  -3   5 0.23000 0.27000   1
   1  -3   5 0.46000 0.50000   1
   1  -3   5 -0.0600 0.53000   1
   1   4  -5 10.1900 1.04000   1
  -1  -4   5 6.69000 0.67000   1
  -1  -4   5 5.92000 1.03000   1
   1   4  -5 6.26000 1.01000   1
   1   4  -5 6.21000 0.80000   1
   3   3   0 115.270 6.94000   1
   3   3   0 115.170 7.38000   1
  -3  -3   0 133.210 8.75000   1
   3   3   0 126.800 8.40000   1
   3   3   0 118.370 7.44000   1
  -3  -3   0 116.780 7.37000   1
  -3  -3   0 119.980 7.30000   1
   0  -4   5 73.0700 3.91000   1
   0   4  -5 72.7900 4.18000   1
   0  -4   5 71.6800 4.38000   1
   0   4  -5 72.4300 4.74000   1
   0   4  -5 75.2300 4.32000   1
   2  -4  -3 6.99000 0.86000   1
   2  -4  -3 6.28000 0.59000   1
  -2   4   3 7.36000 1.16000   1
  -2   4   3 6.62000 0.67000   1
   2  -4  -3 7.19000 1.12000   1
  -2   4   3 6.53000 0.88000   1
  -2   4   3 6.20000 0.57000   1
   2   0   4 5.82000 0.88000   1
   2   0   4 6.64000 1.04000   1
  -2   0  -4 4.32000 0.64000   1
   2   0   4 5.62000 0.56000   1
   2   0   4 4.95000 0.44000   1
  -2   0  -4 6.73000 0.80000   1
  -2   0  -4 4.60000 1.12000   1
   1  -3  -4 73.3600 4.23000   1
   1  -3  -4 70.1400 4.01000   1
  -1   3   4 70.8700 4.15000   1
  -1   3   4 73.5700 4.04000   1
  -1   3   4 67.5000 4.41000   1
  -1   3   4 64.7900 4.06000   1
   1  -3  -4 73.1300 4.71000   1
   0   5  -4 0.04000 0.43000   1
   0   5  -4 0.70000 0.57000   1
   0   5  -4 0.94000 0.82000   1
   0  -5   4 0.71000 0.40000   1
   0  -5   4 0.62000 0.47000   1
   0  -1  -5 39.8800 2.64000   1
   0   1   5 37.2700 2.79000   1
   0   1   5 40.6100 2.25000   1
   0  -1  -5 41.6400 2.49000   1
   0   1   5 38.8600 2.28000   1
   0  -1  -5 41.9500 2.71000   1
  -4  -2   1 7.51000 0.85000   1
  -4  -2   1 8.28000 0.93000   1
  -4  -2   1 9.11000 1.25000   1
   4   2  -1 8.86000 1.24000   1
   4   2  -1 8.09000 1.15000   1
   4   2  -1 7.23000 0.87000   1
  -3   5   0 38.9700 2.11000   1
  -3   5   0 36.8800 2.10000   1
  -3   5   0 38.9600 2.35000   1
   3  -5   0 38.7300 2.44000   1
  -4   3   3 0.14000 0.14000   1
  -4   3   3 -0.2300 0.50000   1
  -4   3   3 0.01000 0.13000   1
   4  -3  -3 0.11000 0.62000   1
   4  -3  -3 0.30000 0.25000   1
  -4   3   3 0.07000 0.34000   1
  -1   4   3 25.2200 2.01000   1
   1  -4  -3 24.3500 1.69000   1
   1  -4  -3 26.9200 2.11000   1
   1  -4  -3 24.2600 1.49000   1
  -1   4   3 23.8900 1.47000   1
  -1   4   3 22.3700 1.63000   1
  -1   4   3 24.2500 1.77000   1
   4  -4   0 10.7500 0.84000   1
  -4   4   0 11.5200 0.80000   1
  -4   4   0 10.4800 0.67000   1
  -4   4   0 10.3700 0.48000   1
  -4   4   0 10.3900 0.50000   1
   4  -4   0 10.9000 0.79000   1
   3  -5   1 93.2500 5.32000   1
  -3   5  -1 92.5000 5.12000   1
  -3   5  -1 89.7200 5.28000   1
  -3   5  -1 90.6000 4.97000   1
   4  -2  -4 9.83000 0.70000   1
  -4   2   4 10.3100 1.01000   1
   4  -2  -4 10.9400 1.33000   1
  -4   2   4 9.94000 1.05000   1
  -2   5  -3 35.8200 1.77000   1
  -2   5  -3 36.9000 1.97000   1
  -2   5  -3 39.8400 1.96000   1
   2  -5   3 38.5300 1.92000   1
   2  -5   3 36.6700 1.85000   1
  -2   5  -3 38.5000 2.75000   1
  -4   4   1 2.44000 0.26000   1
  -4   4   1 2.58000 0.52000   1
   4  -4  -1 2.03000 0.64000   1
  -4   4   1 2.13000 0.31000   1
  -4   4   1 1.88000 0.48000   1
   2  -4   4 7.30000 0.88000   1
  -2   4  -4 7.30000 0.62000   1
  -2   4  -4 8.64000 0.56000   1
   2  -4   4 8.32000 0.68000   1
  -2   4  -4 9.76000 1.33000   1
   2  -4   4 7.56000 0.47000   1
   2   1  -6 3.48000 0.63000   1
  -2  -1   6 4.34000 0.65000   1
  -2  -1   6 4.54000 0.52000   1
  -2  -1   6 3.56000 1.04000   1
  -2  -1   6 4.16000 0.73000   1
   2   1  -6 3.94000 0.72000   1
   2   1  -6 4.09000 1.11000   1
   1   2  -6 9.18000 1.09000   1
   1   2  -6 7.67000 0.91000   1
   1   2  -6 8.12000 1.11000   1
   1   2  -6 8.03000 1.24000   1
  -1  -2   6 6.59000 1.13000   1
  -1  -2   6 7.25000 0.71000   1
  -1  -2   6 9.31000 0.94000   1
  -1  -2   6 6.08000 0.80000   1
  -3   3   4 6.48000 0.72000   1
  -3   3   4 6.25000 0.50000   1
  -3   3   4 5.16000 0.86000   1
   3  -3  -4 5.57000 0.52000   1
   3  -3  -4 8.59000 1.17000   1
   3  -3  -4 6.27000 0.59000   1
   1   1  -6 59.7400 3.83000   1
   1   1  -6 57.9300 3.57000   1
   1   1  -6 49.5600 3.19000   1
  -1  -1   6 55.5700 3.20000   1
  -1  -1   6 63.4600 3.93000   1
  -1  -1   6 55.6700 3.25000   1
  -1  -1   6 56.5500 3.14000   1
   4   2  -4 1.01000 0.41000   1
  -4  -2   4 1.10000 0.58000   1
  -4  -2   4 2.61000 0.97000   1
  -4  -2   4 1.40000 0.65000   1
   4   2  -4 1.91000 0.87000   1
   4   2  -4 0.95000 0.92000   1
  -3   0  -3 8.77000 0.62000   1
  -3   0  -3 9.07000 0.93000   1
   3   0   3 8.65000 0.55000   1
   3   0   3 9.21000 1.17000   1
   3   0   3 9.71000 1.00000   1
  -3   0  -3 8.86000 0.58000   1
  -3   0  -3 8.74000 1.33000   1
   3   0   3 9.41000 0.66000   1
  -2   2   5 4.87000 0.61000   1
  -2   2   5 8.03000 0.94000   1
  -2   2   5 5.31000 0.82000   1
   2  -2  -5 6.20000 0.77000   1
   2  -2  -5 6.78000 0.72000   1
   2  -2  -5 8.17000 1.29000   1
  -1  -3  -3 0.39000 0.50000   1
  -1  -3  -3 0.58000 0.51000   1
   1   3   3 0.32000 0.80000   1
   1   3   3 1.16000 0.61000   1
   1   3   3 1.11000 0.49000   1
   1   3   3 0.65000 0.67000   1
  -1  -3  -3 1.04000 0.67000   1
  -1  -3  -3 1.58000 0.80000   1
   0  -5  -1 0.39000 0.81000   1
   0  -5  -1 0.67000 0.43000   1
   0  -5  -1 0.56000 0.54000   1
   0   5   1 0.79000 0.53000   1
   0  -5  -1 1.03000 0.80000   1
   0   5   1 0.37000 0.82000   1
   0   5   1 1.35000 0.64000   1
   0   5   1 0.94000 0.57000   1
  -1  -5   4 10.5600 1.03000   1
  -1  -5   4 9.59000 0.84000   1
  -1  -5   4 9.26000 0.90000   1
   1   5  -4 13.1400 1.42000   1
   2   2  -6 92.6600 5.99000   1
   2   2  -6 80.2300 4.70000   1
   2   2  -6 87.2700 5.38000   1
  -2  -2   6 77.4400 4.69000   1
   2   2  -6 84.8200 5.07000   1
  -2  -2   6 70.9500 4.83000   1
  -2  -3  -2 36.2700 2.19000   1
  -2  -3  -2 38.2200 2.25000   1
   2   3   2 35.5000 2.59000   1
  -2  -3  -2 38.6000 2.75000   1
   2   3   2 31.4900 1.84000   1
  -2  -3  -2 34.4500 2.28000   1
   2   3   2 34.1000 2.28000   1
   2   3   2 38.5500 2.46000   1
  -1   5  -4 27.2200 1.58000   1
  -1   5  -4 26.8000 1.40000   1
   1  -5   4 26.1100 1.67000   1
   1  -5   4 26.9300 1.41000   1
  -1   5  -4 30.7500 2.28000   1
   2   2   3 38.2000 2.47000   1
   2   2   3 41.9200 2.86000   1
   2   2   3 38.7400 2.04000   1
   2   2   3 45.5400 2.45000   1
  -2  -2  -3 38.6800 2.14000   1
  -2  -2  -3 39.3800 2.21000   1
  -2  -2  -3 33.3900 1.93000   1
  -2  -2  -3 39.0300 2.76000   1
  -1   0  -5 32.9500 2.56000   1
   1   0   5 36.4400 2.59000   1
  -1   0  -5 37.7300 2.14000   1
   1   0   5 36.5100 2.32000   1
  -1   0  -5 37.0500 2.28000   1
   1   0   5 37.0400 1.91000   1
   1   0   5 35.2200 1.89000   1
   1   5   0 10.0400 0.98000   1
  -1  -5   0 10.7600 1.05000   1
  -1  -5   0 10.5000 0.94000   1
  -1  -5   0 10.5600 1.44000   1
   1   5   0 11.0200 1.10000   1
   1   5   0 10.7400 1.36000   1
   1   5   0 8.79000 1.06000   1
  -4   2  -2 1.27000 0.24000   1
  -4   2  -2 1.56000 0.41000   1
  -4   2  -2 1.18000 0.65000   1
   4  -2   2 0.79000 0.43000   1
   4  -2   2 0.62000 0.54000   1
   3   3  -5 72.7200 4.47000   1
  -3  -3   5 84.1500 5.32000   1
  -3  -3   5 72.9000 4.49000   1
   3   3  -5 76.9600 5.36000   1
  -3   4   3 93.8600 4.81000   1
  -3   4   3 99.1700 6.05000   1
   3  -4  -3 93.5800 6.12000   1
   3  -4  -3 93.6800 5.05000   1
  -3   4   3 91.1200 5.24000   1
  -3   5   1 1.00000 0.48000   1
  -3   5   1 0.53000 0.68000   1
  -3   5   1 0.25000 0.26000   1
   3  -5  -1 0.55000 0.64000   1
   3  -5  -1 0.22000 0.21000   1
   3  -4   3 0.16000 0.32000   1
  -3   4  -3 0.19000 0.30000   1
  -3   4  -3 0.19000 0.28000   1
  -3   4  -3 0.61000 0.29000   1
  -3   4  -3 0.38000 0.74000   1
   3  -4   3 0.09000 0.47000   1
  -2  -4   5 0.44000 0.47000   1
   2   4  -5 -0.1600 0.48000   1
   2   4  -5 0.05000 0.68000   1
  -2  -4   5 0.60000 0.69000   1
   4   0  -5 2.39000 0.56000   1
   4   0  -5 2.89000 0.34000   1
   4   0  -5 2.60000 0.94000   1
  -4   0   5 3.40000 0.94000   1
  -4   0   5 2.22000 0.71000   1
  -4   0   5 2.27000 0.70000   1
   3   4  -3 9.03000 0.92000   1
   3   4  -3 8.37000 1.37000   1
  -3  -4   3 8.43000 0.93000   1
   3   4  -3 9.69000 1.39000   1
  -3  -4   3 8.37000 0.96000   1
   5  -1  -2 33.7600 2.08000   1
  -5   1   2 31.1700 1.92000   1
  -5   1   2 30.1800 1.63000   1
  -5   1   2 30.9200 1.66000   1
  -5   1   2 30.9900 1.75000   1
   5  -1  -2 30.7200 1.62000   1
   5  -1  -2 33.5100 1.88000   1
   5  -1  -2 35.1200 2.16000   1
   1  -2  -5 43.9100 2.56000   1
   1  -2  -5 41.6500 2.86000   1
   1  -2  -5 39.6200 2.43000   1
  -1   2   5 39.4200 2.21000   1
  -1   2   5 43.2100 2.99000   1
  -1   2   5 45.7200 2.70000   1
  -2   0   6 28.1000 1.55000   1
  -2   0   6 27.7400 1.82000   1
   2   0  -6 32.6900 2.03000   1
  -2   0   6 29.5500 2.34000   1
  -2   0   6 28.6000 1.88000   1
   2   0  -6 30.4800 1.73000   1
   2   0  -6 32.6400 2.49000   1
   3   4  -2 18.6800 1.44000   1
  -3  -4   2 19.2000 1.48000   1
  -3  -4   2 19.7400 1.41000   1
   3   4  -2 19.5100 1.86000   1
   3   4  -2 19.2800 1.95000   1
  -1  -2  -4 1.28000 0.55000   1
   1   2   4 1.55000 0.45000   1
   1   2   4 0.82000 0.54000   1
   1   2   4 1.24000 0.83000   1
  -1  -2  -4 0.84000 0.80000   1
   1   2   4 1.50000 0.56000   1
  -1  -2  -4 1.99000 0.65000   1
  -1  -4  -2 0.21000 0.47000   1
  -1  -4  -2 -0.0200 0.44000   1
  -1  -4  -2 0.57000 0.73000   1
  -1  -4  -2 0.20000 0.68000   1
   1   4   2 0.04000 0.43000   1
   1   4   2 0.91000 0.73000   1
   1   4   2 -0.0700 0.66000   1
   1   4   2 0.35000 0.57000   1
  -4   4  -1 2.08000 0.56000   1
  -4   4  -1 3.26000 0.44000   1
  -4   4  -1 2.45000 0.53000   1
   4  -4   1 2.77000 0.28000   1
   4  -4   1 2.75000 0.46000   1
   4  -4   1 2.71000 0.48000   1
  -4   4  -1 2.40000 0.28000   1
   4  -1   2 108.080 5.70000   1
   4  -1   2 93.4500 5.85000   1
   4  -1   2 101.600 6.02000   1
  -4   1  -2 99.6600 6.55000   1
  -4   1  -2 102.750 5.34000   1
  -4   1  -2 103.460 6.15000   1
   4   1  -5 1.09000 0.87000   1
  -4  -1   5 2.45000 0.89000   1
   4   1  -5 0.83000 0.51000   1
   4   1  -5 1.19000 0.88000   1
  -4  -1   5 1.30000 0.60000   1
  -1   4  -5 9.37000 0.83000   1
   1  -4   5 6.70000 0.60000   1
  -1   4  -5 7.76000 1.30000   1
   1  -4   5 7.88000 0.82000   1
  -1   4  -5 8.54000 0.79000   1
  -3   2   5 0.43000 0.23000   1
  -3   2   5 0.04000 0.54000   1
   3  -2  -5 0.55000 0.27000   1
   3  -2  -5 -0.4200 0.73000   1
   3  -2  -5 -0.2000 0.43000   1
   4  -4  -2 14.6200 0.75000   1
   4  -4  -2 15.1000 1.40000   1
  -4   4   2 16.9000 0.90000   1
  -4   4   2 16.4700 0.90000   1
  -4   4   2 15.8900 1.07000   1
   1   3  -6 14.6700 1.57000   1
  -1  -3   6 12.8300 1.03000   1
  -1  -3   6 12.8500 1.10000   1
   1   3  -6 11.7400 1.19000   1
   1   3  -6 12.9500 1.03000   1
   1   3  -6 12.7600 1.26000   1
  -1  -3   6 13.1300 1.36000   1
  -5   1   1 84.4200 4.77000   1
   5  -1  -1 84.2400 4.95000   1
   5  -1  -1 89.3800 4.91000   1
   5  -1  -1 82.1900 4.52000   1
   5  -1  -1 88.2500 5.14000   1
  -5   1   1 83.6200 4.71000   1
  -5   1   1 84.2600 4.76000   1
   4  -3   2 1.47000 0.46000   1
  -4   3  -2 2.13000 0.29000   1
  -4   3  -2 1.59000 0.24000   1
  -4   3  -2 1.67000 0.70000   1
  -4   3  -2 1.35000 0.19000   1
   4  -3   2 1.40000 0.35000   1
  -4   3  -2 2.22000 0.41000   1
   3  -5   2 48.1200 2.55000   1
   3  -5   2 48.3000 2.06000   1
  -3   5  -2 48.1100 2.11000   1
  -3   5  -2 51.3900 2.62000   1
  -3   5  -2 49.1900 2.51000   1
  -3   5  -2 49.9300 3.19000   1
   1   0  -6 83.7800 5.36000   1
   1   0  -6 84.8300 4.86000   1
  -1   0   6 86.6300 5.06000   1
  -1   0   6 87.7200 4.95000   1
  -1   0   6 66.2100 4.68000   1
  -2   5   2 9.92000 1.34000   1
  -2   5   2 10.8300 0.75000   1
  -2   5   2 8.81000 0.74000   1
  -2   5   2 9.18000 0.97000   1
   2  -5  -2 9.50000 1.27000   1
   2  -5  -2 9.15000 0.60000   1
   5   0  -2 110.040 6.34000   1
  -5   0   2 108.750 6.88000   1
  -5   0   2 114.090 6.98000   1
  -5   0   2 118.900 6.96000   1
   5   0  -2 119.280 6.96000   1
   5   0  -2 120.100 7.61000   1
   5   0  -2 118.480 7.31000   1
   0  -2   6 16.0600 1.07000   1
   0  -2   6 17.7400 1.54000   1
   0  -2   6 15.0700 1.22000   1
   0  -2   6 13.6100 0.88000   1
   0   2  -6 17.5300 1.27000   1
   0   2  -6 14.5300 1.53000   1
   0   2  -6 15.1600 1.25000   1
  -4  -1  -1 20.7600 1.16000   1
   4   1   1 24.3600 1.86000   1
   4   1   1 20.6400 1.28000   1
  -4  -1  -1 23.2700 1.90000   1
  -4  -1  -1 20.0400 1.49000   1
   4   1   1 18.2800 1.41000   1
   4   1   1 20.5500 1.10000   1
  -5   2   2 0.48000 0.33000   1
  -5   2   2 1.06000 0.60000   1
   5  -2  -2 1.69000 0.30000   1
   5  -2  -2 0.57000 0.46000   1
  -5   2   2 1.31000 0.37000   1
  -5   2   2 1.96000 0.47000   1
  -5   2   2 1.52000 0.36000   1
  -5   2   1 7.67000 0.65000   1
   5  -2  -1 7.77000 0.72000   1
   5  -2  -1 9.35000 0.71000   1
   5  -2  -1 8.45000 0.71000   1
  -5   2   1 8.60000 0.80000   1
  -5   2   1 8.32000 0.67000   1
  -5   2   1 7.74000 0.63000   1
   2   5  -2 19.2000 1.87000   1
   2   5  -2 18.4800 1.75000   1
  -2  -5   2 18.0000 1.30000   1
  -2  -5   3 10.9900 0.99000   1
   2   5  -3 13.1600 1.40000   1
   2   5  -3 12.2200 1.53000   1
  -5   1   3 9.46000 1.00000   1
   5  -1  -3 10.3100 1.11000   1
   5  -1  -3 9.81000 0.65000   1
  -5   1   3 9.85000 0.81000   1
  -5   1   3 9.34000 0.65000   1
  -5   1   3 9.93000 0.76000   1
  -5   1   3 10.9900 1.00000   1
  -3  -1   6 16.9700 1.74000   1
  -3  -1   6 17.0700 1.32000   1
   3   1  -6 20.6900 1.86000   1
   3   1  -6 13.7300 1.67000   1
   3   1  -6 17.5000 1.23000   1
  -1   5   2 0.16000 0.43000   1
  -1   5   2 0.70000 0.48000   1
   1  -5  -2 0.57000 0.32000   1
   1  -5  -2 0.43000 0.78000   1
  -1   5   2 0.51000 0.78000   1
   1  -5  -2 1.06000 0.55000   1
   4  -1  -5 36.2700 1.50000   1
   4  -1  -5 33.0500 2.00000   1
  -4   1   5 35.4400 2.15000   1
   4  -1  -5 40.6400 2.83000   1
  -4   1   5 39.8800 2.46000   1
   1  -6   2 83.8500 4.84000   1
   1  -6   2 80.6800 4.33000   1
   1  -6   2 86.6500 4.76000   1
  -1   6  -2 84.0400 5.05000   1
  -1   6  -2 81.7000 4.97000   1
   1  -6   1 67.9500 4.15000   1
  -1   6  -1 84.9000 4.51000   1
  -1   6  -1 81.4200 4.87000   1
  -1   6  -1 76.7900 5.04000   1
   1  -6   1 77.8700 4.10000   1
   1  -6   1 77.6100 4.64000   1
   5   0  -3 0.96000 0.58000   1
   5   0  -3 0.72000 0.75000   1
   5   0  -3 0.87000 0.33000   1
  -5   0   3 1.38000 0.75000   1
  -5   0   3 1.31000 0.55000   1
  -5   0   3 1.14000 0.50000   1
  -5   0   3 -0.0600 0.42000   1
   0   3   4 64.5800 3.76000   1
   0   3   4 70.8800 4.35000   1
   0   3   4 69.6500 3.98000   1
   0  -3  -4 69.5500 4.02000   1
   0  -3  -4 69.5500 4.28000   1
   0  -3  -4 69.1400 4.33000   1
   0   3   4 66.2500 4.32000   1
  -4  -2   0 45.2400 2.75000   1
  -4  -2   0 43.9200 2.44000   1
   4   2   0 42.7100 2.62000   1
  -4  -2   0 46.9300 3.04000   1
   4   2   0 47.7600 3.19000   1
   4   2   0 41.4600 2.20000   1
   4   2   0 48.3000 2.92000   1
   0   1  -6 15.9700 1.27000   1
   0   1  -6 17.5700 1.52000   1
   0  -1   6 14.9900 1.05000   1
   0  -1   6 16.4700 1.27000   1
   0  -1   6 15.8600 1.59000   1
   0  -1   6 15.6600 0.94000   1
   2   4   1 10.4700 1.24000   1
  -2  -4  -1 9.20000 1.23000   1
  -2  -4  -1 9.11000 0.96000   1
  -2  -4  -1 7.59000 1.35000   1
  -2  -4  -1 10.9600 0.96000   1
   2   4   1 10.1700 1.30000   1
   2   4   1 8.95000 0.87000   1
   3   4  -4 6.50000 1.21000   1
  -3  -4   4 7.85000 1.17000   1
   3   4  -4 4.80000 0.56000   1
  -3  -2  -2 13.5300 1.48000   1
  -3  -2  -2 10.2800 0.79000   1
   3   2   2 11.3200 0.94000   1
   3   2   2 10.9600 1.34000   1
   3   2   2 10.5000 0.73000   1
  -3  -2  -2 12.1800 0.90000   1
   2   3  -6 48.2500 3.34000   1
  -2  -3   6 40.2000 2.54000   1
  -2  -3   6 46.4900 3.17000   1
   2   3  -6 48.0000 3.45000   1
   2   3  -6 44.8600 2.89000   1
   0   4   3 72.8100 4.30000   1
   0  -4  -3 79.2500 4.97000   1
   0  -4  -3 79.5900 5.01000   1
   0  -4  -3 69.0100 3.92000   1
   0  -4  -3 79.5200 4.70000   1
   0   4   3 76.9200 5.01000   1
   0   4   3 83.8700 5.15000   1
   0   4   3 79.2100 4.72000   1
  -5   0   1 16.7800 1.14000   1
   5   0  -1 17.7000 1.33000   1
   5   0  -1 20.1900 1.60000   1
   5   0  -1 18.8300 1.27000   1
  -5   0   1 18.8400 1.50000   1
   5   0  -1 17.9600 1.14000   1
  -5   0   1 18.3900 1.17000   1
   3   0  -6 46.6800 2.85000   1
   3   0  -6 51.5900 2.69000   1
  -3   0   6 46.8800 2.88000   1
  -3   0   6 55.5200 3.61000   1
  -3   0   6 52.1800 2.64000   1
   3   0  -6 48.3700 3.03000   1
  -3  -4   1 -0.5200 0.74000   1
   3   4  -1 -0.2800 0.69000   1
   3   4  -1 0.16000 0.42000   1
   3   4  -1 0.32000 0.70000   1
  -3  -4   1 -0.1000 0.45000   1
   0  -6   2 3.51000 0.44000   1
   0  -6   2 2.97000 0.67000   1
   0   6  -2 3.30000 0.99000   1
   0   6  -2 4.21000 0.63000   1
   0  -3   6 23.0700 1.28000   1
   0  -3   6 23.7500 1.67000   1
   0  -3   6 24.0700 1.81000   1
   0   3  -6 26.7700 1.71000   1
   0   3  -6 26.3100 1.96000   1
   0   3  -6 23.1200 2.00000   1
   0   3  -6 27.4000 1.61000   1
   2   1   4 28.2500 1.46000   1
   2   1   4 27.8000 1.53000   1
   2   1   4 23.7700 2.02000   1
  -2  -1  -4 27.5100 2.20000   1
  -2  -1  -4 28.3300 1.59000   1
   4   3  -3 84.7900 5.76000   1
   4   3  -3 92.8100 5.49000   1
   4   3  -3 92.2800 6.22000   1
   3   2  -6 15.4900 1.09000   1
  -3  -2   6 12.8900 1.16000   1
   3   2  -6 14.8400 1.70000   1
  -3  -2   6 15.5300 1.60000   1
   3   2  -6 12.3100 1.61000   1
  -3  -3  -1 81.4800 4.75000   1
  -3  -3  -1 86.9100 5.58000   1
   3   3   1 75.0000 4.27000   1
   3   3   1 79.4300 5.21000   1
   3   3   1 78.2200 4.91000   1
   4   3  -2 20.9600 1.97000   1
   4   3  -2 22.1300 1.85000   1
   4   3  -2 21.1100 1.46000   1
  -4  -3   2 18.4000 1.42000   1
  -4  -3   2 22.4300 1.74000   1
   2  -6   1 4.53000 0.59000   1
   2  -6   1 3.73000 0.86000   1
  -2   6  -1 3.10000 0.65000   1
  -2   6  -1 3.28000 0.38000   1
  -2   6  -1 3.22000 0.72000   1
   2  -6   1 2.90000 0.33000   1
   4   2  -5 24.4500 1.75000   1
   4   2  -5 22.1200 2.00000   1
  -4  -2   5 27.0300 2.25000   1
  -5   2   3 16.4800 1.14000   1
   5  -2  -3 16.2700 1.24000   1
   5  -2  -3 15.7500 0.74000   1
  -5   2   3 16.3500 0.80000   1
  -5   2   3 16.7900 1.28000   1
  -5   2   3 15.6500 1.04000   1
  -5   2   3 15.3800 0.95000   1
  -5   2   0 10.9600 0.73000   1
  -5   2   0 10.7400 0.73000   1
   5  -2   0 10.3000 0.62000   1
   5  -2   0 10.3500 0.78000   1
  -5   2   0 9.26000 0.92000   1
  -5   2   0 10.3600 0.70000   1
   5  -2   0 10.4500 0.75000   1
  -2  -5   1 12.4300 1.01000   1
   2   5  -1 11.9100 1.45000   1
   2   5  -1 10.6600 1.41000   1
   0  -6   1 26.3800 1.44000   1
   0   6  -1 28.0800 1.90000   1
   0   6  -1 30.7700 2.28000   1
   0   6  -1 27.6400 1.86000   1
  -4   0  -2 66.9300 4.04000   1
   4   0   2 69.3900 3.33000   1
   4   0   2 73.3500 3.86000   1
   4   0   2 66.6700 4.19000   1
  -4   0  -2 66.8900 4.52000   1
  -4   0  -2 72.1600 3.66000   1
   2  -2   5 19.4600 0.89000   1
   2  -2   5 21.5700 1.69000   1
  -2   2  -5 21.6700 1.33000   1
  -2   2  -5 20.9400 1.22000   1
  -2   2  -5 20.7600 1.86000   1
  -3   5   2 52.4100 3.50000   1
   3  -5  -2 49.4000 3.37000   1
   3  -5  -2 50.5500 2.43000   1
  -3   5   2 48.5200 2.99000   1
  -3   5   2 50.7400 2.57000   1
  -3   5   2 52.1800 2.62000   1
   2   5  -4 2.84000 0.98000   1
  -2  -5   4 1.89000 0.82000   1
  -2  -5   4 1.51000 0.45000   1
   5  -1   0 7.72000 0.69000   1
   5  -1   0 8.90000 0.81000   1
   5  -1   0 7.19000 0.60000   1
  -5   1   0 7.10000 0.75000   1
  -5   1   0 7.31000 0.60000   1
  -5   1   0 7.61000 1.00000   1
   5  -1   0 7.38000 0.67000   1
  -3   2  -4 0.29000 0.72000   1
  -3   2  -4 0.11000 0.35000   1
   3  -2   4 0.60000 0.53000   1
  -3   2  -4 0.02000 0.21000   1
   0  -6   3 89.1100 5.07000   1
   0  -6   3 83.6400 4.66000   1
   0   6  -3 98.5200 5.96000   1
   0  -6   3 87.6300 5.17000   1
   0  -5   5 32.2200 1.74000   1
   0  -5   5 31.8900 1.93000   1
   0   5  -5 30.2400 1.72000   1
   0   5  -5 33.6100 2.53000   1
   0   5  -5 35.0000 2.26000   1
  -1   6  -3 60.6900 3.60000   1
  -1   6  -3 58.8000 3.45000   1
   1  -6   3 57.7800 3.28000   1
   1  -6   3 59.7700 3.09000   1
   1  -6   3 58.5900 3.06000   1
   1  -6   0 134.880 9.01000   1
  -1   6   0 133.760 8.51000   1
  -1   6   0 131.660 8.89000   1
  -1   6   0 141.050 8.60000   1
   1  -6   0 129.390 7.55000   1
  -4   3   4 25.9000 1.76000   1
  -4   3   4 26.2100 1.54000   1
   4  -3  -4 26.0300 2.04000   1
   4  -3  -4 26.2500 1.39000   1
   3   1   3 0.76000 0.68000   1
   3   1   3 0.29000 0.31000   1
   3   1   3 0.05000 0.33000   1
  -3  -1  -3 0.26000 0.38000   1
  -3  -1  -3 0.78000 0.30000   1
  -3  -1  -3 -0.5600 0.74000   1
   5  -3  -1 13.6400 0.89000   1
   5  -3  -1 12.9200 0.80000   1
  -5   3   1 13.0400 0.92000   1
  -5   3   1 13.6900 0.89000   1
  -5   3   1 12.3400 0.83000   1
  -5   3   1 14.4200 0.84000   1
  -5   3   1 12.4300 0.70000   1
   2  -1  -6 189.980 12.3800   1
  -2   1   6 201.920 14.1300   1
  -2   1   6 185.460 12.2000   1
   2  -1  -6 206.210 14.4700   1
   2  -6   2 49.9000 2.80000   1
   2  -6   2 52.5000 2.46000   1
  -2   6  -2 54.1800 3.04000   1
  -2   6  -2 54.3500 3.53000   1
  -2   6  -2 52.0900 2.84000   1
   2  -6   2 51.0700 2.38000   1
  -2   3  -5 13.9500 1.02000   1
  -2   3  -5 15.1300 1.48000   1
  -2   3  -5 13.4600 1.00000   1
   2  -3   5 11.9300 0.57000   1
   2  -3   5 14.2500 1.09000   1
  -1  -5   5 22.6000 1.47000   1
  -1  -5   5 23.4700 1.78000   1
   1   5  -5 23.4300 1.77000   1
   1   5  -5 21.3900 1.47000   1
  -2   5  -4 104.500 6.84000   1
  -2   5  -4 99.3900 5.45000   1
  -2   5  -4 106.290 5.79000   1
   2  -5   4 101.560 5.56000   1
   2  -5   4 97.9000 5.39000   1
  -4  -3   4 0.45000 0.84000   1
   4   3  -4 0.42000 0.38000   1
   4   3  -4 0.42000 0.82000   1
  -5  -1   2 14.8900 1.35000   1
  -5  -1   2 15.5800 1.20000   1
  -5  -1   2 16.7900 1.28000   1
   5   1  -2 15.9400 1.17000   1
   5   1  -2 17.2200 1.54000   1
   5   1  -2 14.5200 0.96000   1
   5   1  -2 16.6100 1.56000   1
  -3   3  -4 37.7200 1.80000   1
  -3   3  -4 40.8300 2.91000   1
   3  -3   4 38.2200 2.12000   1
  -3   3  -4 37.6200 2.06000   1
  -5  -1   3 34.0600 2.05000   1
  -5  -1   3 37.3900 2.13000   1
  -5  -1   3 32.3100 2.08000   1
   5   1  -3 35.2200 1.99000   1
   5   1  -3 35.8600 2.56000   1
   5   1  -3 39.6500 2.67000   1
   5   1  -3 35.2400 2.19000   1
  -2   6   0 49.2500 3.28000   1
   2  -6   0 47.9700 2.27000   1
   2  -6   0 50.3000 3.29000   1
  -2   6   0 53.6600 2.65000   1
  -2   6   0 49.1000 2.96000   1
   2  -6   0 47.4300 2.85000   1
  -4   4  -2 14.2100 0.88000   1
  -4   4  -2 13.4800 0.75000   1
  -4   4  -2 11.7200 0.67000   1
  -4   4  -2 12.5000 1.29000   1
   4  -4   2 12.9100 1.00000   1
   4  -4   2 12.4200 0.71000   1
   0   2   5 5.67000 0.79000   1
   0   2   5 7.69000 1.09000   1
   0  -2  -5 7.58000 1.02000   1
   0   2   5 8.04000 0.75000   1
   0  -2  -5 7.27000 1.04000   1
   0   2   5 6.64000 0.81000   1
   5   0  -4 9.85000 1.21000   1
   5   0  -4 11.5500 1.37000   1
  -5   0   4 8.39000 1.26000   1
   5   0  -4 9.41000 0.59000   1
  -5   0   4 8.88000 0.87000   1
  -5   0   4 8.26000 0.84000   1
  -5   3   2 19.7900 1.10000   1
  -5   3   2 19.0600 1.10000   1
  -5   3   2 19.8900 1.33000   1
  -5   3   2 18.7700 0.92000   1
   5  -3  -2 18.6000 0.89000   1
   5  -3  -2 16.9100 1.20000   1
  -5   3   2 21.4500 1.25000   1
   1   1   5 0.86000 0.41000   1
   1   1   5 0.82000 0.56000   1
  -1  -1  -5 0.12000 0.48000   1
  -1  -1  -5 1.03000 0.75000   1
   1   1   5 1.26000 0.72000   1
   1   1   5 0.74000 0.36000   1
   1   5   1 1.22000 0.82000   1
  -1  -5  -1 1.03000 0.51000   1
  -1  -5  -1 1.02000 0.85000   1
  -1  -5  -1 2.01000 0.84000   1
   1   5   1 1.36000 0.66000   1
   0   0   6 2.49000 0.78000   1
   0   0   6 0.18000 0.51000   1
   0   0   6 0.77000 0.39000   1
   0   0  -6 0.80000 0.63000   1
   0   0  -6 0.47000 0.69000   1
   5  -1  -4 20.0500 0.87000   1
  -5   1   4 20.4800 1.46000   1
  -5   1   4 17.8800 1.22000   1
  -5   1   4 19.8800 1.55000   1
   5  -1  -4 22.2400 1.77000   1
  -2   1  -5 0.32000 0.46000   1
   2  -1   5 0.59000 0.60000   1
   2  -1   5 0.08000 0.28000   1
   2  -1   5 0.03000 0.24000   1
  -2   1  -5 0.09000 0.70000   1
  -2   1  -5 0.45000 0.40000   1
   1   4  -6 17.2700 1.55000   1
   1   4  -6 14.1300 1.47000   1
   1   4  -6 13.3900 1.06000   1
  -1  -4   6 15.3400 1.43000   1
  -1  -4   6 16.3800 1.08000   1
   4  -4  -3 2.01000 0.77000   1
  -4   4   3 1.32000 0.58000   1
  -4   4   3 1.59000 0.31000   1
  -4   4   3 1.15000 0.26000   1
  -4   4   3 1.88000 0.46000   1
   4  -4  -3 1.90000 0.29000   1
  -3   1  -4 6.22000 1.10000   1
   3  -1   4 5.99000 0.39000   1
  -3   1  -4 6.33000 0.49000   1
   3  -1   4 4.84000 0.92000   1
   3  -1   4 6.16000 0.45000   1
  -3   1  -4 5.69000 0.66000   1
   0   5   2 29.9800 1.96000   1
   0   5   2 29.6100 2.31000   1
   0   5   2 34.0000 2.27000   1
   0  -5  -2 31.1200 2.22000   1
   0  -5  -2 29.1400 1.73000   1
   0  -5  -2 29.9400 2.31000   1
  -5   3   0 4.28000 0.48000   1
  -5   3   0 4.26000 0.51000   1
  -5   3   0 4.52000 0.55000   1
  -5   3   0 3.77000 0.35000   1
   5  -3   0 4.07000 0.50000   1
   5  -3   0 4.54000 0.47000   1
   5  -3   0 5.01000 0.49000   1
   1  -1  -6 9.61000 1.22000   1
   1  -1  -6 8.70000 0.96000   1
  -1   1   6 7.70000 1.14000   1
  -1   1   6 8.01000 0.74000   1
  -1   1   6 7.95000 0.87000   1
  -4   5   0 29.9000 1.87000   1
  -4   5   0 29.0600 1.52000   1
  -4   5   0 28.0500 1.70000   1
   4  -5   0 29.2000 1.69000   1
  -3   5  -3 94.3500 5.13000   1
  -3   5  -3 86.9700 5.68000   1
   3  -5   3 92.2200 4.73000   1
  -3   5  -3 92.0900 4.75000   1
   3  -5   3 91.7300 4.82000   1
   3  -5   3 83.8100 5.17000   1
  -3   5  -3 91.3800 4.89000   1
  -4  -3   1 85.7200 5.15000   1
   4   3  -1 84.4400 5.48000   1
   4   3  -1 95.1600 6.14000   1
  -4  -3   1 94.3900 6.07000   1
  -3   1   6 2.77000 0.38000   1
  -3   1   6 2.01000 0.88000   1
   3  -1  -6 1.80000 0.94000   1
   3  -1  -6 1.81000 0.43000   1
   2  -4  -4 18.4700 1.20000   1
  -2   4   4 17.8400 1.36000   1
  -2   4   4 19.6700 1.23000   1
   2  -4  -4 14.9600 1.61000   1
   2  -4  -4 18.2600 1.10000   1
  -2   4   4 14.9700 1.57000   1
   4  -2  -5 24.8900 1.48000   1
   4  -2  -5 23.3400 2.02000   1
  -4   2   5 25.5200 1.86000   1
   3   4  -5 12.3000 1.56000   1
  -3  -4   5 12.9000 1.52000   1
   5   0   0 115.430 7.27000   1
   5   0   0 118.370 6.60000   1
   5   0   0 117.420 6.91000   1
   5   0   0 115.000 7.02000   1
  -5   0   0 110.880 7.19000   1
  -5   0   0 113.640 7.08000   1
  -5   0   0 115.910 6.72000   1
   0   4  -6 20.3000 1.30000   1
   0   4  -6 23.8000 1.69000   1
   0   4  -6 22.5800 1.96000   1
   0   4  -6 21.7800 1.43000   1
   0  -4   6 21.5700 1.62000   1
   0  -4   6 21.9800 1.20000   1
  -4   5   1 172.580 9.76000   1
  -4   5   1 170.260 11.2100   1
  -4   5   1 176.860 11.0100   1
  -4   5   1 179.360 11.6900   1
   4  -5  -1 178.040 11.5800   1
   2  -3  -5 12.0800 0.86000   1
   2  -3  -5 8.67000 1.34000   1
   2  -3  -5 13.2200 1.02000   1
  -2   3   5 12.3700 0.82000   1
  -2   3   5 12.8600 1.28000   1
   5   1  -1 11.9300 1.34000   1
   5   1  -1 12.0900 0.86000   1
  -5  -1   1 12.1900 1.17000   1
  -5  -1   1 10.8200 0.86000   1
  -5  -1   1 11.9700 0.96000   1
   5   1  -1 12.3900 1.10000   1
  -1   5  -5 42.8500 2.99000   1
  -1   5  -5 45.2300 2.46000   1
  -1   5  -5 43.5900 2.34000   1
   1  -5   5 45.5200 2.55000   1
   1  -5   5 43.0000 2.20000   1
  -3  -3   6 2.50000 0.91000   1
   3   3  -6 2.12000 0.67000   1
   3   3  -6 2.91000 0.97000   1
   3   3  -6 1.77000 0.99000   1
   5   1  -4 3.74000 0.95000   1
   5   1  -4 3.83000 1.07000   1
  -5  -1   4 3.42000 1.03000   1
   5   1  -4 3.62000 0.40000   1
   1   6  -2 13.6000 1.51000   1
  -1  -6   2 11.2600 0.89000   1
   1   6  -2 12.0900 1.13000   1
   0  -6   0 4.29000 0.98000   1
   0   6   0 4.33000 1.00000   1
   0   6   0 3.87000 0.68000   1
   0  -6   0 3.46000 0.46000   1
  -1  -6   3 36.9800 2.10000   1
   1   6  -3 40.3000 2.55000   1
   1   6  -3 35.4600 2.66000   1
   4  -5   1 0.60000 0.37000   1
  -4   5  -1 1.38000 0.38000   1
  -4   5  -1 0.70000 0.40000   1
  -4   5  -1 0.20000 0.37000   1
   4  -5   1 0.35000 0.40000   1
  -1   2  -6 9.60000 1.38000   1
   1  -2   6 11.3900 0.80000   1
   1  -2   6 12.0800 0.76000   1
   1  -2   6 12.3700 1.26000   1
  -1   2  -6 12.1300 0.95000   1
   3   4   0 19.4000 1.72000   1
   3   4   0 18.4500 1.17000   1
   3   4   0 20.5700 1.78000   1
  -3  -4   0 21.2200 1.87000   1
  -3   4   4 1.35000 0.34000   1
  -3   4   4 1.15000 0.49000   1
   3  -4  -4 1.34000 0.41000   1
   3  -4  -4 0.90000 0.80000   1
   3  -4  -4 1.29000 0.37000   1
   2   4  -6 2.55000 0.97000   1
  -2  -4   6 2.68000 0.84000   1
  -2  -4   6 2.53000 0.60000   1
   2   4  -6 2.39000 0.86000   1
   0  -6   4 135.740 8.72000   1
   0   6  -4 148.030 9.72000   1
   0  -6   4 140.580 8.55000   1
   0  -6   4 144.180 8.88000   1
  -2   4  -5 17.5100 1.27000   1
   2  -4   5 19.5500 1.20000   1
  -2   4  -5 16.8800 1.71000   1
  -2   4  -5 19.7200 1.07000   1
   2  -4   5 17.3700 0.86000   1
  -2   4  -5 18.1200 1.11000   1
  -2   6  -3 0.19000 0.35000   1
  -2   6  -3 0.77000 0.31000   1
  -2   6  -3 0.20000 0.72000   1
   2  -6   3 0.14000 0.23000   1
   2  -6   3 0.15000 0.26000   1
   2  -6   3 -0.2800 0.31000   1
   4  -2   3 3.71000 0.62000   1
  -4   2  -3 3.93000 0.49000   1
  -4   2  -3 5.71000 1.01000   1
  -3   4  -4 1.38000 0.20000   1
  -3   4  -4 2.26000 0.83000   1
  -3   4  -4 1.65000 0.32000   1
   3  -4   4 1.64000 0.40000   1
   5  -3  -3 53.4900 3.11000   1
  -5   3   3 52.6900 2.23000   1
  -5   3   3 54.9400 2.87000   1
  -5   3   3 50.1700 2.84000   1
   1  -4  -4 11.4000 0.82000   1
  -1   4   4 10.3400 1.17000   1
   1  -4  -4 10.0200 1.29000   1
  -1   4   4 10.8400 1.27000   1
   1  -4  -4 10.2400 0.96000   1
  -1   4   4 11.0800 0.83000   1
   5  -2  -4 8.24000 1.10000   1
   5  -2  -4 6.58000 0.56000   1
  -5   2   4 7.74000 0.80000   1
  -5   2   4 6.36000 0.81000   1
   3  -3  -5 4.40000 0.48000   1
   3  -3  -5 4.69000 0.64000   1
   3  -3  -5 5.46000 1.02000   1
  -3   3   5 4.44000 0.43000   1
  -3   3   5 5.88000 0.86000   1
   1  -3   6 31.6700 1.61000   1
   1  -3   6 30.8400 2.17000   1
  -1   3  -6 32.1200 2.01000   1
  -1   3  -6 33.9800 1.99000   1
  -1   3  -6 32.9300 2.45000   1
   2   5   0 4.62000 0.99000   1
   2   5   0 4.18000 0.97000   1
  -2  -5   0 3.35000 1.04000   1
  -2   6   1 66.6300 4.48000   1
   2  -6  -1 72.2200 3.74000   1
  -2   6   1 76.0300 4.07000   1
  -2   6   1 73.5300 4.05000   1
   2  -6  -1 72.5000 4.75000   1
   5  -2   1 1.28000 0.40000   1
  -5   2  -1 -0.3300 0.65000   1
  -5   2  -1 0.24000 0.31000   1
  -5   2  -1 1.12000 0.34000   1
   5  -2   1 0.58000 0.39000   1
   3  -6   1 94.9400 5.51000   1
  -3   6  -1 97.7600 5.74000   1
  -3   6  -1 99.6900 5.75000   1
  -3   6  -1 102.110 6.05000   1
   3  -6   1 101.880 6.02000   1
  -4  -1   6 0.28000 0.83000   1
   4   1  -6 1.45000 0.87000   1
   4   1  -6 1.10000 0.42000   1
   4   1  -6 3.30000 0.90000   1
   4  -3   3 1.38000 0.43000   1
  -4   3  -3 1.79000 0.86000   1
  -4   3  -3 2.93000 0.47000   1
  -2  -5   5 36.0100 2.60000   1
   2   5  -5 35.7100 2.73000   1
  -2   5   3 0.75000 0.66000   1
  -2   5   3 -0.1200 0.42000   1
   2  -5  -3 -0.0300 0.74000   1
  -2   5   3 0.49000 0.34000   1
   2  -5  -3 0.32000 0.31000   1
  -4   0   6 1.05000 0.67000   1
   4   0  -6 -0.1500 0.82000   1
   4   0  -6 0.92000 0.29000   1
   4   2   1 32.1200 1.63000   1
   4   2   1 33.6100 1.96000   1
   4   2   1 35.1800 2.45000   1
  -4  -2  -1 30.6400 1.74000   1
  -4  -2  -1 34.2900 2.53000   1
  -3   6   0 8.57000 0.43000   1
  -3   6   0 9.17000 0.80000   1
  -3   6   0 8.79000 1.10000   1
   3  -6   0 8.53000 0.41000   1
   3  -6   0 9.46000 1.12000   1
   4   3  -5 17.3400 1.84000   1
   4   3  -5 16.7700 1.14000   1
  -4  -3   5 17.1500 1.71000   1
   1  -6   4 -0.1500 0.31000   1
   1  -6   4 -0.2500 0.30000   1
  -1   6  -4 0.04000 0.67000   1
   1  -6   4 0.26000 0.24000   1
  -1   6  -4 0.51000 0.44000   1
  -1   6   1 22.0800 1.47000   1
  -1   6   1 20.2300 1.79000   1
  -1   6   1 21.9900 1.36000   1
   1  -6  -1 21.1800 1.84000   1
   1  -6  -1 20.9500 1.15000   1
  -1   1  -6 -0.0800 0.70000   1
   1  -1   6 0.06000 0.31000   1
   1  -1   6 0.41000 0.32000   1
   1  -1   6 0.54000 0.69000   1
  -1   1  -6 0.33000 0.41000   1
  -1   3   5 0.60000 0.41000   1
   1  -3  -5 1.43000 0.59000   1
   1  -3  -5 0.88000 0.75000   1
  -1   3   5 0.83000 0.70000   1
  -1   3   5 1.82000 0.71000   1
   1   6  -1 3.51000 0.71000   1
   1   6  -1 2.85000 0.90000   1
  -1  -6   1 1.91000 0.51000   1
  -2  -3  -3 7.44000 1.23000   1
   2   3   3 9.29000 1.02000   1
  -2  -3  -3 7.95000 0.81000   1
   2   3   3 8.37000 0.69000   1
   2   3   3 9.89000 1.17000   1
  -2  -3  -3 8.79000 0.90000   1
   5  -1   1 18.2700 1.23000   1
   5  -1   1 19.5600 1.33000   1
   5  -1   1 19.5600 0.88000   1
   5  -1   1 19.1300 1.17000   1
  -5   1  -1 19.0200 1.07000   1
  -5   1  -1 20.9100 1.30000   1
  -5   1  -1 21.0700 1.66000   1
  -4   1  -3 4.38000 0.70000   1
   4  -1   3 4.87000 0.25000   1
   4  -1   3 6.77000 0.79000   1
   4  -1   3 6.11000 0.44000   1
  -4   1  -3 6.54000 1.01000   1
  -4   1  -3 5.96000 0.40000   1
   2   0   5 5.17000 0.47000   1
  -2   0  -5 5.75000 1.11000   1
  -2   0  -5 6.89000 0.72000   1
   2   0   5 7.92000 1.07000   1
   2   0   5 6.95000 0.63000   1
   4   1   2 14.2000 0.82000   1
  -4  -1  -2 16.1800 1.52000   1
  -4  -1  -2 13.7100 0.94000   1
   4   1   2 15.7200 1.11000   1
   4   1   2 14.1400 1.40000   1
  -3   0  -4 45.0200 3.07000   1
   3   0   4 44.2100 2.17000   1
   3   0   4 43.3800 2.07000   1
   3   0   4 43.4100 2.73000   1
  -3   0  -4 45.5600 2.25000   1
  -5   4   1 31.9000 1.59000   1
   5  -4  -1 30.2500 1.56000   1
  -5   4   1 32.1900 1.48000   1
   5  -4  -1 31.3500 1.76000   1
  -5   4   1 31.6000 1.69000   1
  -5   4   1 32.6000 1.58000   1
  -5   3  -1 4.93000 0.32000   1
   5  -3   1 5.29000 0.62000   1
   5  -3   1 5.50000 0.59000   1
  -5   3  -1 5.91000 0.85000   1
  -5   3  -1 4.46000 0.42000   1
  -5   3  -1 4.85000 0.52000   1
   5  -3   1 5.25000 0.35000   1
   5   2  -3 80.2600 4.65000   1
   5   2  -3 85.2300 5.59000   1
   5   2  -3 80.4800 5.35000   1
  -5  -2   3 82.0400 5.02000   1
   1   6  -4 30.8400 2.06000   1
  -1  -6   4 24.4000 1.53000   1
  -1  -6   4 28.1500 1.81000   1
   1   3   4 22.2300 1.56000   1
   1   3   4 23.5900 1.51000   1
  -1  -3  -4 22.9200 1.72000   1
   1   3   4 21.3500 1.75000   1
  -1  -3  -4 22.0800 1.43000   1
  -1  -3  -4 21.5900 1.85000   1
   4  -5  -2 3.80000 0.36000   1
  -4   5   2 3.60000 0.54000   1
  -4   5   2 4.13000 0.60000   1
  -4   5   2 4.17000 0.92000   1
  -4   5   2 4.43000 0.39000   1
   4  -5  -2 3.94000 0.84000   1
  -1  -4  -3 8.63000 1.22000   1
   1   4   3 11.4400 1.21000   1
   1   4   3 9.37000 1.17000   1
  -1  -4  -3 11.2500 1.22000   1
   1  -5  -3 0.39000 0.63000   1
   1  -5  -3 0.09000 0.43000   1
  -1   5   3 0.18000 0.36000   1
   1  -5  -3 -0.1600 0.30000   1
  -1   5   3 0.43000 0.66000   1
  -1   5   3 -0.1000 0.52000   1
  -3   5   3 39.5400 2.03000   1
  -3   5   3 37.3500 1.92000   1
   3  -5  -3 38.9800 2.05000   1
   3  -5  -3 38.1800 2.67000   1
  -3   5   3 41.5400 2.75000   1
  -5   0   5 31.9700 2.19000   1
   5   0  -5 32.7600 2.41000   1
   5   0  -5 29.9700 1.47000   1
   5   0  -5 33.0300 2.57000   1
  -3   6  -2 10.3700 0.75000   1
  -3   6  -2 10.8200 0.70000   1
  -3   6  -2 10.8300 1.04000   1
   3  -6   2 10.1100 0.38000   1
   3  -6   2 10.6000 0.72000   1
   3  -6   2 9.74000 0.43000   1
  -5   4   0 2.87000 0.40000   1
   5  -4   0 2.60000 0.38000   1
   5  -4   0 1.41000 0.34000   1
  -5   4   0 2.31000 0.37000   1
  -5   4   0 1.30000 0.30000   1
   2   4   2 5.38000 0.68000   1
  -2  -4  -2 5.49000 0.92000   1
  -2  -4  -2 5.55000 1.02000   1
   2   4   2 4.06000 0.96000   1
   2   4   2 5.10000 0.95000   1
  -5  -2   2 0.88000 0.54000   1
   5   2  -2 -0.1400 0.70000   1
   5   2  -2 0.22000 0.68000   1
  -5  -2   2 0.27000 0.39000   1
   5   2  -2 -0.2800 0.41000   1
  -2  -2   7 14.0800 1.01000   1
   2   2  -7 14.9400 1.13000   1
   2   2  -7 16.7700 1.56000   1
  -2  -2   7 13.7200 1.43000   1
  -2  -2   7 14.7400 1.14000   1
   2   2  -7 13.7900 1.56000   1
   4   2  -6 -0.2700 0.80000   1
  -4  -2   6 -0.5000 0.73000   1
   4   2  -6 -0.2800 0.76000   1
  -2  -1   7 41.6100 2.55000   1
  -2  -1   7 47.6300 2.84000   1
   2   1  -7 46.5100 2.62000   1
   2   1  -7 47.4800 3.21000   1
  -2  -1   7 44.1400 2.47000   1
   2  -2  -6 15.7500 1.18000   1
   2  -2  -6 15.0100 1.52000   1
  -2   2   6 14.8700 1.02000   1
  -2   2   6 13.9500 1.37000   1
   3   5  -3 15.7200 1.56000   1
   3   5  -3 15.6800 1.61000   1
  -2  -2  -4 24.3700 1.93000   1
   2   2   4 23.1300 1.42000   1
   2   2   4 22.2700 1.25000   1
   2   2   4 20.8800 1.78000   1
  -2  -2  -4 20.8100 1.28000   1
  -2  -2  -4 22.5700 1.41000   1
  -1  -2   7 3.85000 0.88000   1
  -1  -2   7 2.00000 0.62000   1
  -1  -2   7 2.31000 0.44000   1
   1   2  -7 5.69000 0.85000   1
   1   2  -7 4.28000 0.91000   1
   0   1   6 5.38000 0.66000   1
   0  -1  -6 4.67000 0.84000   1
   0   1   6 4.14000 0.95000   1
   0   1   6 3.55000 0.71000   1
   0  -1  -6 5.06000 0.89000   1
  -5   4   2 9.60000 0.64000   1
  -5   4   2 9.22000 0.60000   1
  -5   4   2 8.14000 0.55000   1
  -5   4   2 9.01000 0.69000   1
   5  -4  -2 8.19000 0.93000   1
  -4  -3   0 90.4900 5.77000   1
   4   3   0 88.2700 5.75000   1
   4   3   0 83.2000 4.80000   1
   4   3   0 88.0400 5.47000   1
  -4  -3   0 78.3300 4.76000   1
  -4   5  -2 46.1300 2.25000   1
  -4   5  -2 46.1300 2.05000   1
   4  -5   2 44.7600 2.54000   1
   4  -5   2 45.1000 1.99000   1
  -4   5  -2 49.1800 2.55000   1
  -4   5  -2 50.2300 3.06000   1
  -4   1   6 1.36000 0.74000   1
   4  -1  -6 1.43000 0.84000   1
   4  -1  -6 1.22000 0.28000   1
  -3   6   1 18.1600 0.97000   1
  -3   6   1 17.8700 1.54000   1
   3  -6  -1 17.4900 1.55000   1
   3  -6  -1 16.7800 0.77000   1
  -1   4  -6 8.69000 0.88000   1
  -1   4  -6 9.52000 1.30000   1
  -1   4  -6 8.76000 0.75000   1
  -1   4  -6 9.05000 0.84000   1
   1  -4   6 8.31000 0.85000   1
   1  -4   6 8.47000 0.61000   1
  -5  -2   4 17.5400 1.66000   1
   5   2  -4 16.3800 1.60000   1
   5   2  -4 14.8100 0.93000   1
   5   2  -4 15.4300 1.50000   1
   5  -1  -5 0.73000 0.10000   1
  -5   1   5 2.14000 0.69000   1
   5  -1  -5 0.26000 0.36000   1
   5  -1  -5 1.35000 0.78000   1
   5  -1  -5 1.44000 0.15000   1
   5   1   0 62.8200 4.06000   1
  -5  -1   0 69.8100 4.38000   1
  -5  -1   0 62.7200 3.46000   1
   5   1   0 64.7500 3.72000   1
  -4   4  -3 7.96000 0.44000   1
  -4   4  -3 10.4600 1.19000   1
   4  -4   3 9.11000 0.60000   1
  -4   4  -3 9.62000 0.64000   1
  -4   4  -3 7.91000 0.46000   1
  -5  -1   5 117.000 7.44000   1
   5   1  -5 99.5500 5.63000   1
   5   1  -5 96.8300 6.48000   1
   5   1  -5 112.840 7.42000   1
  -1  -1   7 4.58000 1.01000   1
  -1  -1   7 4.50000 0.59000   1
   1   1  -7 7.06000 1.03000   1
   1   1  -7 5.83000 0.82000   1
  -1  -1   7 5.10000 0.56000   1
   3   5  -2 5.82000 1.08000   1
   3   5  -2 5.05000 1.03000   1
  -3   2   6 1.10000 0.66000   1
   3  -2  -6 0.19000 0.32000   1
   3  -2  -6 0.44000 0.70000   1
  -3   2   6 0.18000 0.28000   1
  -3  -3  -2 21.4200 1.55000   1
   3   3   2 21.7300 1.79000   1
   3   3   2 20.8600 1.60000   1
  -3  -3  -2 20.9900 1.28000   1
  -3  -3  -2 22.4900 1.94000   1
   3   3   2 20.6900 1.24000   1
   4   4  -3 7.85000 1.24000   1
   4   4  -3 6.28000 1.15000   1
   3   5  -4 37.1700 2.79000   1
  -3  -5   4 37.4800 2.73000   1
   3   2   3 14.1200 0.97000   1
   3   2   3 12.2200 0.79000   1
  -3  -2  -3 13.1300 0.91000   1
  -3  -2  -3 11.0500 0.78000   1
   3   2   3 11.5700 1.38000   1
  -3  -2  -3 12.0200 1.44000   1
  -1  -3   7 0.45000 0.36000   1
   1   3  -7 0.16000 0.71000   1
   1   3  -7 1.54000 0.77000   1
  -1  -3   7 0.35000 0.66000   1
   1   3  -7 0.71000 0.53000   1
   4  -4  -4 31.5100 2.30000   1
  -4   4   4 31.2100 1.38000   1
  -4   4   4 32.2400 1.73000   1
   4  -4  -4 30.5600 1.60000   1
   1   5  -6 14.4600 1.27000   1
  -1  -5   6 12.6300 0.89000   1
  -1  -5   6 11.8100 1.15000   1
   1   5  -6 13.2100 1.25000   1
   0  -6  -1 0.67000 0.40000   1
   0  -6  -1 1.43000 0.73000   1
   0   6   1 0.10000 0.72000   1
   0   6   1 0.55000 0.64000   1
   5   0   1 64.1600 3.08000   1
   5   0   1 66.7700 3.71000   1
   5   0   1 61.8500 3.90000   1
  -5   0  -1 63.7700 3.44000   1
  -5   0  -1 66.2100 4.12000   1
  -5   0  -1 62.3900 3.60000   1
   4  -3  -5 18.2000 1.15000   1
  -4   3   5 19.3300 1.29000   1
  -4   3   5 16.7900 0.73000   1
   4  -3  -5 19.9600 1.77000   1
  -2  -3   7 0.21000 0.67000   1
  -2  -3   7 0.32000 0.39000   1
   2   3  -7 -0.0800 0.60000   1
   2   3  -7 0.10000 0.58000   1
   2   3  -7 0.30000 0.76000   1
  -3  -1   7 12.9700 1.40000   1
   3   1  -7 16.1100 1.54000   1
   3   1  -7 12.9500 1.08000   1
  -1   0  -6 6.86000 1.08000   1
   1   0   6 7.51000 0.75000   1
   1   0   6 6.43000 0.58000   1
   1   0   6 7.60000 1.07000   1
  -1   0  -6 7.28000 0.73000   1
   0   5  -6 61.4500 3.59000   1
   0   5  -6 66.2500 3.88000   1
   0   5  -6 63.4500 4.19000   1
   0  -5   6 63.4400 3.70000   1
   0  -5   6 60.1700 3.31000   1
   1   2   5 40.8300 2.41000   1
  -1  -2  -5 40.7600 2.78000   1
  -1  -2  -5 41.0100 2.41000   1
   1   2   5 43.8500 2.83000   1
   1   2   5 39.5800 2.28000   1
   4   4  -4 0.13000 0.79000   1
   2   0  -7 196.170 13.2400   1
  -2   0   7 202.790 14.4100   1
  -2   0   7 204.420 13.7900   1
   2   0  -7 210.200 15.0600   1
  -4  -4   2 38.9900 2.69000   1
   4   4  -2 38.9600 2.75000   1
   4   4  -2 32.0600 2.54000   1
  -3  -4   6 3.71000 0.98000   1
   3   4  -6 4.69000 1.04000   1
   1  -2  -6 2.97000 0.60000   1
   1  -2  -6 1.52000 0.81000   1
  -1   2   6 3.38000 0.50000   1
  -1   2   6 3.04000 0.80000   1
   5  -3  -4 -0.3000 0.25000   1
  -5   3   4 -0.3600 0.39000   1
   5  -3  -4 0.78000 0.65000   1
   2  -5   5 6.78000 0.63000   1
  -2   5  -5 8.26000 1.11000   1
   2  -5   5 5.61000 0.47000   1
  -2   5  -5 6.77000 0.58000   1
  -2   5  -5 7.00000 0.60000   1
  -1  -6   0 2.21000 0.56000   1
   1   6   0 5.07000 0.77000   1
   1   6   0 3.34000 0.92000   1
  -2   6  -4 89.9200 4.93000   1
  -2   6  -4 85.8300 4.62000   1
  -2   6  -4 90.9500 5.73000   1
  -2   6  -4 88.9600 4.84000   1
   2  -6   4 84.2300 4.62000   1
   2  -6   4 85.5000 4.63000   1
  -3   5  -4 4.76000 0.39000   1
  -3   5  -4 5.76000 0.96000   1
  -3   5  -4 4.23000 0.49000   1
   3  -5   4 4.82000 0.54000   1
   3  -5   4 4.35000 0.34000   1
  -3   5  -4 4.82000 0.49000   1
   0  -4  -4 0.65000 0.72000   1
   0  -4  -4 1.05000 0.59000   1
   0   4   4 1.42000 0.75000   1
   0   4   4 0.76000 0.47000   1
   0   4   4 1.94000 0.65000   1
  -1  -5  -2 20.0700 1.68000   1
   1   5   2 14.9200 1.48000   1
  -1  -5  -2 18.3000 1.57000   1
   1   5   2 19.2300 1.67000   1
  -4   0  -3 22.8400 1.80000   1
  -4   0  -3 19.5100 1.03000   1
   4   0   3 18.7200 1.61000   1
   4   0   3 21.0100 0.98000   1
   4   0   3 19.6900 1.09000   1
   0   6  -5 4.26000 0.59000   1
   0  -6   5 5.24000 0.66000   1
   0  -6   5 3.10000 0.57000   1
   0   6  -5 6.47000 1.07000   1
   0   6  -5 4.10000 0.88000   1
  -5  -2   1 52.0500 3.20000   1
  -5  -2   1 45.5000 2.76000   1
   5   2  -1 51.2400 3.32000   1
   5   2  -1 50.5000 3.34000   1
   3   2  -7 1.83000 0.53000   1
  -3  -2   7 2.32000 0.90000   1
   3   2  -7 3.53000 0.90000   1
   3   2  -7 2.08000 0.92000   1
  -5   4  -1 39.8100 1.85000   1
  -5   4  -1 38.7600 1.85000   1
  -5   4  -1 39.6300 2.23000   1
   5  -4   1 40.0000 1.91000   1
   5  -4   1 38.5400 1.81000   1
   5  -4   1 39.2200 2.09000   1
   2   6  -3 18.1900 1.67000   1
   2   6  -3 23.0600 1.80000   1
  -2   6   2 -0.3000 0.60000   1
   2  -6  -2 0.37000 0.24000   1
  -2   6   2 -0.3000 0.33000   1
  -2   6   2 0.08000 0.34000   1
   2  -6  -2 0.19000 0.67000   1
   0   3   5 1.16000 0.66000   1
   0  -3  -5 1.74000 0.69000   1
   0   3   5 0.64000 0.48000   1
   0  -3  -5 0.95000 0.68000   1
   0   3   5 0.96000 0.65000   1
  -3  -4  -1 8.03000 1.22000   1
   3   4   1 9.05000 1.14000   1
   3   4   1 7.50000 1.08000   1
   3   4   1 6.98000 0.64000   1
  -3   0   7 162.960 10.2200   1
  -3   0   7 158.360 10.7600   1
   3   0  -7 159.350 11.0800   1
   3   0  -7 160.440 10.0600   1
   0  -2   7 23.5200 1.87000   1
   0  -2   7 20.8300 1.18000   1
   0   2  -7 25.3300 1.76000   1
   0   2  -7 22.6700 1.73000   1
   0  -2   7 24.7400 1.52000   1
  -3   6  -3 86.2500 4.59000   1
   3  -6   3 83.0600 4.53000   1
  -3   6  -3 84.6200 4.65000   1
  -3   6  -3 85.0800 4.29000   1
  -3   6  -3 84.4500 5.33000   1
   3  -6   3 85.7600 4.26000   1
   2   6  -2 8.89000 1.18000   1
   2   6  -2 6.10000 1.06000   1
  -5   4   3 0.61000 0.21000   1
   5  -4  -3 0.98000 0.63000   1
  -5   4   3 0.88000 0.48000   1
   5  -4  -3 0.64000 0.29000   1
  -5   4   3 0.99000 0.40000   1
  -1  -6   5 13.1800 0.99000   1
  -1  -6   5 13.3400 1.13000   1
   1   6  -5 13.4600 1.26000   1
   5  -2  -5 0.11000 0.32000   1
   5  -2  -5 -0.0700 0.63000   1
  -5   2   5 -0.1300 0.52000   1
  -1   0   7 10.2500 0.79000   1
   1   0  -7 10.7400 1.26000   1
   1   0  -7 9.83000 0.94000   1
  -1   0   7 10.7100 1.25000   1
   3   5  -1 23.5500 2.00000   1
   3   5  -1 26.8700 1.98000   1
  -3  -5   1 25.2600 2.12000   1
  -2  -5  -1 5.99000 1.08000   1
  -2  -5  -1 3.59000 0.67000   1
   2   5   1 5.45000 0.81000   1
   2   5   1 5.47000 1.00000   1
  -4  -3   6 21.5500 1.92000   1
   4   3  -6 20.5100 1.98000   1
   4   3  -6 23.0400 1.97000   1
   1  -7   2 7.73000 0.60000   1
  -1   7  -2 7.14000 1.00000   1
  -1   7  -2 8.46000 0.66000   1
  -5   2  -2 40.9700 2.18000   1
  -5   2  -2 43.8300 2.79000   1
  -5   2  -2 38.3800 1.77000   1
   5  -2   2 40.0600 2.21000   1
   5   2  -5 11.3800 1.44000   1
   5   2  -5 10.5500 1.31000   1
   5   2  -5 9.36000 0.69000   1
  -5  -2   5 11.4500 1.32000   1
   0   5   3 2.21000 0.75000   1
   0  -5  -3 1.86000 0.80000   1
   0  -5  -3 2.24000 0.79000   1
   0   5   3 2.43000 0.84000   1
   4  -5  -3 67.2900 3.46000   1
  -4   5   3 65.1800 3.42000   1
  -4   5   3 69.0600 4.14000   1
   4  -5  -3 69.9100 4.43000   1
  -4   5   3 65.7400 3.17000   1
  -2  -5   6 0.37000 0.57000   1
   2   5  -6 0.37000 0.58000   1
   0   3  -7 49.1400 2.94000   1
   0  -3   7 46.4000 2.56000   1
   0  -3   7 45.1800 3.00000   1
   0   3  -7 46.5800 3.16000   1
   2   6  -4 7.32000 1.16000   1
  -2  -6   4 7.62000 1.04000   1
  -1   6  -5 17.5800 1.61000   1
  -1   6  -5 19.3100 1.22000   1
  -1   6  -5 16.8100 1.00000   1
   1  -6   5 17.0100 0.99000   1
   1  -6   5 18.6500 1.12000   1
  -1   6   2 1.22000 0.47000   1
  -1   6   2 3.49000 0.53000   1
  -1   6   2 1.35000 0.77000   1
   1  -6  -2 0.12000 0.32000   1
   1  -6  -2 0.32000 0.77000   1
   3  -2   5 0.19000 0.50000   1
   3  -2   5 0.24000 0.10000   1
  -3   2  -5 1.01000 0.69000   1
  -3   2  -5 0.60000 0.25000   1
   3  -3   5 3.82000 0.65000   1
  -3   3  -5 3.84000 0.88000   1
  -3   3  -5 3.01000 0.46000   1
  -3   3  -5 2.21000 0.38000   1
  -3  -5   5 5.39000 0.95000   1
   3   5  -5 8.40000 1.17000   1
   2   1   5 51.5400 3.45000   1
   2   1   5 49.7400 2.66000   1
  -2  -1  -5 54.5300 2.90000   1
  -2  -1  -5 54.0400 3.56000   1
   2   1   5 53.8200 2.81000   1
   1  -7   1 52.6600 2.78000   1
  -1   7  -1 61.4900 3.39000   1
  -1   7  -1 56.4200 3.53000   1
  -6   1   2 34.6800 1.87000   1
  -6   1   2 30.4500 1.79000   1
  -6   1   2 31.1300 1.78000   1
   6  -1  -2 35.0600 2.13000   1
   6  -1  -2 32.8100 2.10000   1
   6  -1  -2 34.7800 1.89000   1
   6  -1  -2 32.4300 1.66000   1
  -5   3  -2 3.16000 0.83000   1
   5  -3   2 4.08000 0.47000   1
  -5   3  -2 3.90000 0.34000   1
  -5   3  -2 3.75000 0.50000   1
  -3  -1  -4 34.1800 1.81000   1
  -3  -1  -4 32.5200 2.46000   1
  -3  -1  -4 33.7000 1.86000   1
   3   1   4 34.2900 2.39000   1
   3   1   4 32.6800 1.73000   1
   3   1   4 32.5500 1.74000   1
   4  -6   0 84.5600 4.90000   1
  -4   6   0 81.8600 4.52000   1
  -4   6   0 77.5900 4.41000   1
  -4   6   0 82.3700 4.60000   1
  -3   6   2 29.1700 1.93000   1
   3  -6  -2 29.2600 1.44000   1
   3  -6  -2 29.0700 2.17000   1
  -3   6   2 27.5100 1.49000   1
  -3   6   2 28.1600 1.57000   1
   4  -2  -6 8.51000 1.20000   1
  -4   2   6 6.37000 0.39000   1
  -4   2   6 7.25000 0.87000   1
   4  -2  -6 7.37000 0.43000   1
   0  -1   7 0.57000 0.64000   1
   0  -1   7 -0.2300 0.27000   1
   0  -1   7 0.27000 0.39000   1
   0   1  -7 -0.2400 0.47000   1
   0   1  -7 -0.5100 0.52000   1
   1   4  -7 2.02000 0.83000   1
  -1  -4   7 1.51000 0.42000   1
  -1  -4   7 3.12000 0.78000   1
   1   4  -7 2.63000 0.85000   1
   1   4  -7 1.90000 0.70000   1
  -4  -4   5 8.43000 1.26000   1
   4   4  -5 7.17000 1.30000   1
  -6   1   3 3.64000 0.57000   1
  -6   1   3 3.86000 0.60000   1
  -6   1   3 4.85000 0.83000   1
   6  -1  -3 3.53000 0.65000   1
   6  -1  -3 3.84000 0.42000   1
  -6   1   3 4.61000 0.55000   1
  -6   2   2 13.1600 0.98000   1
  -6   2   2 14.7500 0.99000   1
   6  -2  -2 14.6100 0.86000   1
   6  -2  -2 14.5900 0.99000   1
  -6   2   2 17.5500 1.13000   1
  -6   2   2 14.5200 1.03000   1
  -6   2   2 14.5400 0.90000   1
   4   4  -1 48.2600 3.40000   1
   4   4  -1 50.6200 3.21000   1
  -4  -4   1 55.1000 3.58000   1
   3   3  -7 23.1300 1.99000   1
  -3  -3   7 19.5700 1.85000   1
   3   3  -7 19.0700 1.80000   1
   3   3  -7 18.6600 1.37000   1
   2  -7   1 7.85000 0.96000   1
  -2   7  -1 4.71000 0.49000   1
  -2   7  -1 4.48000 0.86000   1
   2  -7   1 4.43000 0.36000   1
  -4   6  -1 0.07000 0.39000   1
  -4   6  -1 0.71000 0.36000   1
  -4   6  -1 0.02000 0.32000   1
   4  -6   1 0.36000 0.40000   1
   1  -7   3 47.2900 2.41000   1
   1  -7   3 48.4400 2.49000   1
  -1   7  -3 55.9000 3.26000   1
   0  -7   2 21.1700 1.21000   1
   0   7  -2 22.6000 1.45000   1
   0   7  -2 25.3300 1.93000   1
   1  -5   6 23.3000 1.21000   1
  -1   5  -6 25.2100 2.02000   1
  -1   5  -6 25.6300 1.60000   1
   1  -5   6 23.1800 1.47000   1
  -1   5  -6 22.2200 1.42000   1
  -2   2  -6 12.6800 1.42000   1
  -2   2  -6 11.7300 0.78000   1
   2  -2   6 11.8700 0.83000   1
   2  -2   6 11.9900 0.66000   1
   2  -2   6 13.7700 1.14000   1
   2  -3   6 28.9100 1.32000   1
   2  -3   6 32.9700 2.01000   1
  -2   3  -6 31.0900 2.39000   1
  -2   3  -6 32.2500 1.79000   1
  -5   1  -2 0.75000 0.59000   1
  -5   1  -2 -0.1400 0.42000   1
  -5   1  -2 0.30000 0.24000   1
   5  -1   2 0.26000 0.28000   1
   5  -1   2 -0.1700 0.43000   1
   2  -7   2 12.7300 0.71000   1
  -2   7  -2 11.7100 1.20000   1
   2  -7   2 12.1800 0.62000   1
  -4   5  -3 0.35000 0.61000   1
   4  -5   3 1.12000 0.28000   1
  -4   5  -3 1.17000 0.28000   1
  -4   5  -3 1.22000 0.34000   1
  -4   5  -3 0.83000 0.24000   1
  -5   5   1 32.6300 1.75000   1
   5  -5  -1 33.9600 1.86000   1
  -5   5   1 29.3100 1.60000   1
  -5   5   1 26.6600 1.09000   1
  -5   5   1 28.4100 1.15000   1
   0  -7   3 4.40000 0.55000   1
   0   7  -3 5.76000 0.95000   1
   0  -7   3 6.14000 0.66000   1
   5   3  -3 65.0000 4.25000   1
   5   3  -3 54.1700 3.80000   1
  -5  -3   3 56.1900 3.75000   1
  -2   4   5 21.0100 1.73000   1
  -2   4   5 20.1500 1.19000   1
  -2   4   5 20.2600 1.40000   1
   2  -4  -5 21.9000 1.29000   1
   2  -4  -5 23.2300 1.83000   1
  -5   5   0 1.65000 0.14000   1
  -5   5   0 1.57000 0.13000   1
   5  -5   0 1.70000 0.35000   1
   5  -5   0 2.45000 0.41000   1
  -5   5   0 1.55000 0.52000   1
  -5   5   0 1.78000 0.40000   1
  -5   5   0 2.14000 0.41000   1
   6  -2  -1 16.7300 1.10000   1
   6  -2  -1 15.8200 0.99000   1
   6  -2  -1 15.6600 0.92000   1
  -6   2   1 17.1300 1.06000   1
  -6   2   1 16.8700 1.00000   1
  -6   2   1 16.1000 1.00000   1
  -6   2   1 16.8800 1.07000   1
   4   2   2 26.4200 1.45000   1
  -4  -2  -2 28.9800 2.16000   1
   4   2   2 27.5500 1.66000   1
   4   2   2 26.3300 2.00000   1
  -4  -2  -2 26.7500 1.48000   1
   2   4  -7 42.6200 2.96000   1
  -2  -4   7 45.6100 3.08000   1
   2   4  -7 44.4800 2.79000   1
   2   4  -7 50.5700 3.39000   1
   6   0  -3 143.330 8.92000   1
   6   0  -3 120.350 8.38000   1
   6   0  -3 139.430 8.37000   1
  -6   0   3 144.150 8.82000   1
  -6   0   3 145.360 9.44000   1
   2   6  -1 39.7000 2.70000   1
   2   6  -1 40.8400 2.88000   1
   4  -6  -1 0.72000 0.50000   1
  -4   6   1 0.89000 0.55000   1
  -4   6   1 0.34000 0.34000   1
  -4   6   1 0.11000 0.13000   1
   4  -6  -1 0.14000 0.12000   1
  -6   2   3 -0.2300 0.41000   1
  -6   2   3 -0.1100 0.28000   1
   6  -2  -3 -0.0100 0.41000   1
   6  -2  -3 0.24000 0.18000   1
  -6   2   3 0.03000 0.30000   1
  -6   2   3 0.44000 0.39000   1
  -6   1   1 1.05000 0.40000   1
  -6   1   1 0.80000 0.41000   1
  -6   1   1 1.71000 0.50000   1
   6  -1  -1 1.91000 0.49000   1
   6  -1  -1 1.48000 0.58000   1
   6  -1  -1 0.90000 0.36000   1
   6  -1  -1 1.19000 0.42000   1
   6   0  -2 13.3000 1.29000   1
   6   0  -2 12.3600 1.11000   1
   6   0  -2 13.2800 0.91000   1
  -6   0   2 10.9700 1.00000   1
  -6   0   2 13.2400 0.98000   1
   6   0  -2 10.8800 0.77000   1
  -3   4   5 38.5200 2.29000   1
  -3   4   5 38.4300 1.98000   1
   3  -4  -5 42.4700 2.16000   1
   3  -4  -5 42.9900 2.91000   1
   3  -4  -5 37.6700 2.12000   1
  -2   1   7 1.70000 0.71000   1
   2  -1  -7 1.27000 0.46000   1
  -2   1   7 1.13000 0.37000   1
   2  -1  -7 1.61000 0.77000   1
   5   0  -6 2.52000 0.32000   1
   5   0  -6 2.31000 0.95000   1
  -5   0   6 2.50000 0.79000   1
   5   0  -6 1.70000 0.28000   1
  -3   1  -5 20.4400 1.74000   1
   3  -1   5 16.9000 0.84000   1
   3  -1   5 18.5100 0.94000   1
   3  -1   5 17.5000 1.51000   1
   3  -4   5 15.5800 1.14000   1
  -3   4  -5 14.6100 0.89000   1
  -3   4  -5 16.1400 1.54000   1
  -3   4  -5 15.5200 0.94000   1
   5   3  -4 102.480 6.85000   1
   5   3  -4 102.880 6.16000   1
  -4   3  -4 6.51000 0.58000   1
   4  -3   4 6.79000 0.69000   1
  -4   3  -4 8.43000 1.08000   1
  -4   2  -4 0.10000 0.67000   1
   4  -2   4 0.39000 0.57000   1
  -4   2  -4 0.98000 0.37000   1
  -2   5   4 42.9600 2.47000   1
  -2   5   4 41.9000 2.94000   1
  -2   5   4 43.4200 2.33000   1
   2  -5  -4 40.9800 2.24000   1
   2  -5  -4 46.5300 2.52000   1
   2  -5  -4 39.5300 2.80000   1
   5   1   1 0.12000 0.25000   1
   5   1   1 -0.4000 0.37000   1
  -5  -1  -1 -0.3600 0.28000   1
   5   1   1 0.25000 0.60000   1
  -5  -1  -1 0.13000 0.51000   1
   4   3   1 7.93000 0.66000   1
  -4  -3  -1 8.45000 0.72000   1
  -4  -3  -1 8.21000 1.17000   1
   4   3   1 9.18000 1.19000   1
   4   3   1 9.28000 1.01000   1
  -5  -1   6 8.62000 1.23000   1
   5   1  -6 11.1100 1.43000   1
   5   1  -6 8.71000 0.65000   1
   5   1  -6 11.4800 1.35000   1
   0  -7   1 15.6600 0.94000   1
   0   7  -1 16.2300 1.17000   1
   0   7  -1 17.4700 1.56000   1
  -4  -1   7 37.5500 2.64000   1
   4   1  -7 38.5600 2.82000   1
   4   1  -7 34.9400 1.97000   1
   0  -4   7 47.2000 2.67000   1
   0   4  -7 54.8400 3.50000   1
   0  -4   7 49.6800 2.98000   1
   0   4  -7 56.1200 3.59000   1
   0   4  -7 53.4500 2.97000   1
  -3   1   7 96.3300 5.43000   1
  -3   1   7 99.2900 6.26000   1
   3  -1  -7 97.0700 5.45000   1
   3  -1  -7 96.1000 6.35000   1
  -2   7   0 37.6700 2.37000   1
  -2   7   0 38.0300 2.01000   1
   2  -7   0 38.4500 2.71000   1
   2  -7   0 35.1600 1.73000   1
  -5  -3   2 13.8400 1.35000   1
   5   3  -2 14.0800 1.45000   1
   5   3  -2 13.3000 1.50000   1
  -5  -2   0 2.35000 0.48000   1
   5   2   0 3.58000 0.50000   1
   5   2   0 3.94000 0.91000   1
   5   2   0 4.11000 0.69000   1
  -5  -2   0 2.68000 0.83000   1
   0   2   6 21.8100 1.57000   1
   0  -2  -6 21.8500 1.65000   1
   0   2   6 21.1700 1.70000   1
   0  -2  -6 22.3800 1.66000   1
  -1   7   0 5.11000 0.62000   1
  -1   7   0 4.45000 0.89000   1
   1  -7   0 5.15000 1.02000   1
   1  -7   0 4.18000 0.42000   1
  -3   5   4 21.8700 1.13000   1
  -3   5   4 20.4500 1.26000   1
   3  -5  -4 19.8300 1.76000   1
   3  -5  -4 20.7900 1.16000   1
  -3   5   4 24.3400 1.85000   1
  -5   4  -2 23.6700 1.07000   1
  -5   4  -2 26.8400 1.33000   1
  -5   4  -2 27.0700 1.25000   1
  -5   4  -2 28.7700 1.95000   1
   5  -4   2 27.6200 1.40000   1
  -5   4  -2 26.9700 1.18000   1
  -2   1  -6 11.8200 1.34000   1
  -2   1  -6 11.2300 0.78000   1
   2  -1   6 10.4300 0.66000   1
   2  -1   6 9.86000 0.63000   1
   2  -1   6 13.0400 1.24000   1
  -6   1   4 0.73000 0.55000   1
   6  -1  -4 0.66000 0.53000   1
  -6   1   4 0.36000 0.35000   1
   6  -1  -4 0.46000 0.25000   1
  -6   1   4 1.04000 0.46000   1
  -2   4  -6 0.23000 0.47000   1
  -2   4  -6 0.02000 0.71000   1
  -2   4  -6 0.43000 0.24000   1
  -2   4  -6 0.16000 0.41000   1
   2  -4   6 0.39000 0.22000   1
   2  -4   6 -0.1800 0.41000   1
  -1  -1  -6 112.620 6.99000   1
   1   1   6 119.540 7.02000   1
   1   1   6 123.690 8.01000   1
   1   1   6 113.530 6.91000   1
  -1  -1  -6 122.180 7.91000   1
  -6   3   2 4.74000 0.46000   1
   6  -3  -2 5.42000 0.63000   1
  -6   3   2 4.87000 0.65000   1
   6  -3  -2 4.74000 0.43000   1
  -6   3   2 7.04000 0.53000   1
  -6   3   2 4.89000 0.66000   1
  -6   3   2 4.17000 0.43000   1
   2   6  -5 2.28000 0.84000   1
  -2  -6   5 1.71000 0.77000   1
   5  -5  -2 1.62000 0.63000   1
  -5   5   2 1.58000 0.37000   1
  -5   5   2 1.51000 0.29000   1
  -5   5   2 1.73000 0.42000   1
  -2   7  -3 38.5900 2.59000   1
   2  -7   3 34.0300 1.89000   1
   2  -7   3 36.6000 1.76000   1
   2  -7   3 34.6000 1.63000   1
  -2   7  -3 36.4700 2.20000   1
  -4   0   7 35.0000 2.40000   1
   4   0  -7 29.8800 1.54000   1
   4   0  -7 30.0800 2.43000   1
  -6   0   4 2.43000 0.36000   1
  -6   0   4 3.10000 0.79000   1
   6   0  -4 1.62000 0.86000   1
   6   0  -4 1.80000 0.35000   1
   6   0  -4 2.38000 0.75000   1
  -2   3   6 2.45000 0.53000   1
  -2   3   6 3.05000 0.75000   1
   2  -3  -6 3.03000 0.49000   1
   2  -3  -6 4.21000 0.90000   1
  -4   6  -2 5.47000 0.51000   1
  -4   6  -2 6.59000 0.71000   1
  -4   6  -2 7.13000 0.85000   1
  -6   3   1 3.55000 0.42000   1
  -6   3   1 3.50000 0.55000   1
   6  -3  -1 3.36000 0.42000   1
  -6   3   1 2.73000 0.44000   1
   6  -3  -1 3.55000 0.43000   1
   6  -3  -1 3.28000 0.38000   1
  -6   3   1 4.29000 0.49000   1
   5  -1  -6 13.2300 0.57000   1
   5  -1  -6 13.0600 1.48000   1
  -5   1   6 16.7000 1.40000   1
   5  -1  -6 12.4900 0.53000   1
   5  -5   1 22.7300 1.28000   1
   5  -5   1 19.2400 0.80000   1
   5  -5   1 20.5300 1.20000   1
  -5   5  -1 22.2200 1.19000   1
  -5   5  -1 23.0500 1.33000   1
  -5   5  -1 22.4900 1.34000   1
  -5   5  -1 21.4800 0.87000   1
   1   6   1 22.4000 1.75000   1
   1   6   1 25.8700 1.81000   1
  -1  -6  -1 22.2100 1.98000   1
  -1  -6  -1 21.9100 1.83000   1
  -4  -1  -3 33.7700 2.40000   1
   4   1   3 36.3700 2.39000   1
   4   1   3 34.4000 1.82000   1
   4   1   3 33.7800 1.69000   1
  -4  -1  -3 33.6200 1.67000   1
  -3   3   6 11.5400 1.11000   1
   3  -3  -6 8.67000 1.29000   1
   3  -3  -6 13.1400 0.86000   1
  -3   3   6 11.4400 0.74000   1
   4   2  -7 15.8300 1.76000   1
  -4  -2   7 17.8000 1.60000   1
   4   2  -7 17.8500 1.51000   1
   4   2  -7 15.7100 1.06000   1
   0   7  -4 39.1600 2.54000   1
   0  -7   4 35.1300 1.99000   1
   0  -7   4 32.2200 1.73000   1
   0   0   7 11.9000 1.34000   1
   0   0  -7 11.6200 1.20000   1
   0   0  -7 10.2700 1.11000   1
  -1   4   5 6.34000 0.91000   1
   1  -4  -5 6.38000 0.75000   1
   1  -4  -5 7.94000 1.00000   1
  -1   4   5 5.46000 1.01000   1
  -1   4   5 5.36000 0.63000   1
   6   0  -1 25.6500 1.49000   1
   6   0  -1 24.4100 1.87000   1
   6   0  -1 28.5400 1.50000   1
   6   0  -1 28.4900 1.74000   1
  -6   0   1 27.5500 1.77000   1
  -6   0   1 26.1200 1.53000   1
   0   6   2 7.60000 0.86000   1
   0  -6  -2 9.01000 1.10000   1
   0  -6  -2 7.07000 1.14000   1
   0   6   2 7.68000 1.18000   1
   3   5   0 20.0300 1.81000   1
   3   5   0 20.6800 1.68000   1
  -3  -5   0 17.6700 1.75000   1
  -1   1   7 9.60000 0.78000   1
  -1   1   7 10.9700 1.17000   1
   1  -1  -7 10.4400 1.18000   1
   1  -1  -7 9.34000 0.94000   1
   1  -7   4 -0.1800 0.30000   1
  -1   7  -4 0.57000 0.68000   1
  -1   7  -4 0.17000 0.57000   1
   1  -7   4 0.60000 0.34000   1
   1  -7   4 0.31000 0.30000   1
  -4   4  -4 39.9000 2.06000   1
  -4   4  -4 42.9700 1.91000   1
  -4   4  -4 38.8500 1.68000   1
  -4   4  -4 44.7500 2.72000   1
   4  -4   4 40.1100 2.11000   1
   4  -1   4 15.5400 0.73000   1
  -4   1  -4 14.5700 0.69000   1
   4  -1   4 14.7000 1.30000   1
   4  -1   4 14.6500 0.65000   1
  -4   1  -4 14.5200 1.41000   1
   5  -4  -4 6.68000 0.88000   1
  -5   4   4 6.56000 0.61000   1
   5  -4  -4 5.72000 0.47000   1
   5  -3  -5 23.7300 1.88000   1
   5  -3  -5 19.4800 1.17000   1
  -5   3   5 20.8900 1.37000   1
  -6   2   0 27.4100 1.68000   1
  -6   2   0 26.4200 1.53000   1
  -6   2   0 26.5400 1.48000   1
   6  -2   0 26.5700 1.53000   1
   6  -2   0 27.2800 1.30000   1
   6  -2   0 23.9600 1.42000   1
   3  -7   1 12.1900 0.50000   1
  -3   7  -1 15.0500 1.19000   1
   3  -7   1 11.8500 0.51000   1
   3  -7   1 12.5400 1.24000   1
  -3   7  -1 17.6100 1.22000   1
   1  -5  -4 0.60000 0.64000   1
   1  -5  -4 -0.1300 0.53000   1
  -1   5   4 0.36000 0.63000   1
  -1   5   4 0.31000 0.40000   1
  -1   5   4 -0.5300 0.51000   1
  -5   0  -2 4.25000 0.85000   1
   5   0   2 4.88000 0.81000   1
   5   0   2 4.69000 0.60000   1
  -5   0  -2 3.94000 0.47000   1
   5   0   2 4.22000 0.33000   1
   6   1  -3 10.0900 1.09000   1
   6   1  -3 11.0500 1.22000   1
   6   1  -3 8.21000 0.89000   1
  -6  -1   3 9.82000 0.87000   1
   6   1  -3 8.43000 0.64000   1
   2   4   3 18.6200 1.56000   1
   2   4   3 19.2500 1.47000   1
  -2  -4  -3 17.6700 1.32000   1
  -2  -4  -3 18.7900 1.70000   1
  -2   6  -5 16.6000 1.06000   1
   2  -6   5 17.3300 1.02000   1
   2  -6   5 17.6000 1.02000   1
  -2   6  -5 19.2100 1.03000   1
  -2   6  -5 18.7500 1.66000   1
  -3   6  -4 23.3500 1.18000   1
  -3   6  -4 24.6400 1.85000   1
  -3   6  -4 25.5600 1.35000   1
  -3   6  -4 24.1700 1.26000   1
   3  -6   4 25.0100 1.24000   1
   3  -6   4 23.8400 1.24000   1
  -6   2   4 8.13000 0.65000   1
   6  -2  -4 7.43000 0.38000   1
  -6   2   4 8.83000 0.95000   1
   6  -2  -4 8.39000 0.94000   1
  -2  -3  -4 87.8400 5.38000   1
  -2  -3  -4 87.5800 5.24000   1
  -2  -3  -4 97.5400 6.18000   1
   2   3   4 98.4800 5.79000   1
   2   3   4 88.4900 5.65000   1
   2   3   4 87.9200 5.17000   1
   5   3  -5 0.43000 0.71000   1
  -5  -3   5 -0.8400 0.69000   1
   5   3  -5 0.32000 0.75000   1
   5   3  -5 -0.0900 0.30000   1
   1   7  -3 49.9800 3.00000   1
   1   7  -3 48.2700 3.10000   1
  -6   3   3 0.58000 0.20000   1
  -6   3   3 0.86000 0.37000   1
  -6   3   3 0.42000 0.35000   1
  -6   3   3 0.31000 0.38000   1
   6  -3  -3 0.34000 0.20000   1
   6  -3  -3 0.20000 0.47000   1
  -5  -2   6 72.6800 4.70000   1
   5   2  -6 69.0500 3.90000   1
   5   2  -6 69.2200 4.78000   1
   5   2  -6 74.8300 5.02000   1
  -4   6   2 53.5200 2.70000   1
   4  -6  -2 59.6300 3.69000   1
  -4   6   2 58.4900 3.57000   1
   4  -6  -2 52.5200 2.49000   1
  -4   6   2 54.6200 2.59000   1
   0   6  -6 40.6700 2.73000   1
   0   6  -6 33.5900 1.91000   1
   0   6  -6 39.2700 2.36000   1
   0  -6   6 34.1700 1.94000   1
   0  -6   6 37.2800 2.24000   1
   3   5  -6 8.37000 1.24000   1
  -3  -5   6 9.22000 1.26000   1
   4  -4  -5 5.09000 0.50000   1
   4  -4  -5 8.65000 1.10000   1
  -4   4   5 6.02000 0.77000   1
  -4   4   5 5.75000 0.41000   1
  -1   2  -7 1.16000 0.42000   1
  -1   2  -7 1.11000 0.70000   1
   1  -2   7 0.33000 0.32000   1
   1  -2   7 0.42000 0.31000   1
   1  -2   7 -0.4100 0.67000   1
   1   7  -2 35.2100 2.53000   1
   1   7  -2 34.0600 2.27000   1
  -1   3  -7 1.88000 0.50000   1
   1  -3   7 1.19000 0.70000   1
   1  -3   7 1.35000 0.36000   1
  -1   3  -7 1.49000 0.82000   1
   6  -1   0 65.6000 3.71000   1
   6  -1   0 65.4200 3.24000   1
  -6   1   0 60.2300 3.52000   1
   6  -1   0 64.3700 3.45000   1
   6  -1   0 61.0100 3.53000   1
  -6   1   0 63.9200 3.72000   1
  -6   1   0 59.2500 3.22000   1
  -3   7   0 4.96000 0.74000   1
  -3   7   0 5.65000 0.41000   1
   3  -7   0 5.01000 0.35000   1
   3  -7   0 5.35000 0.95000   1
   1   6  -6 3.88000 0.93000   1
   1   6  -6 2.00000 0.84000   1
  -1  -6   6 4.72000 0.83000   1
  -1  -4  -4 33.8600 2.27000   1
  -1  -4  -4 33.8500 2.38000   1
   1   4   4 31.8900 2.23000   1
   1   4   4 34.5200 2.34000   1
   6   1  -2 4.48000 0.66000   1
   6   1  -2 4.99000 0.88000   1
   6   1  -2 4.41000 0.79000   1
   6   1  -2 4.43000 0.50000   1
  -6  -1   2 4.66000 0.73000   1
   4   4  -6 18.8000 1.86000   1
  -4  -4   6 16.7100 1.74000   1
   3   4  -7 6.35000 1.09000   1
   3   4  -7 4.80000 0.75000   1
   3   4  -7 4.94000 1.05000   1
  -3  -4   7 5.58000 1.05000   1
  -3   7  -2 0.22000 0.41000   1
   3  -7   2 0.10000 0.13000   1
   3  -7   2 0.23000 0.29000   1
   3  -7   2 0.05000 0.13000   1
  -3   7  -2 0.46000 0.29000   1
  -3   7  -2 -0.1200 0.49000   1
  -6   3   0 0.25000 0.41000   1
   6  -3   0 0.24000 0.29000   1
   6  -3   0 0.23000 0.25000   1
  -6   3   0 0.76000 0.23000   1
  -6   3   0 0.25000 0.34000   1
  -6   3   0 0.02000 0.31000   1
   6  -3   0 0.22000 0.39000   1
  -2   6   3 97.3000 6.56000   1
   2  -6  -3 104.790 5.97000   1
  -2   6   3 105.990 6.25000   1
   2  -6  -3 105.360 6.93000   1
  -2   6   3 107.970 6.38000   1
  -4  -4   0 16.8000 1.53000   1
   4   4   0 15.3300 1.44000   1
   4   4   0 14.1100 1.58000   1
  -6  -1   4 71.2600 4.40000   1
   6   1  -4 65.1700 3.68000   1
   6   1  -4 72.5700 4.54000   1
   6   1  -4 72.1100 4.77000   1
   0  -7   0 31.6200 1.83000   1
   0   7   0 35.7200 2.25000   1
   0   7   0 33.8500 2.45000   1
   0  -7   0 37.1900 2.62000   1
   5   3  -1 8.55000 1.21000   1
   5   3  -1 7.30000 1.09000   1
  -5  -3   1 7.04000 1.05000   1
   1   5  -7 76.3000 4.92000   1
   1   5  -7 82.0700 5.19000   1
  -1  -5   7 75.9200 4.82000   1
  -3  -3  -3 82.4900 5.45000   1
  -3  -3  -3 79.4500 4.58000   1
  -3  -3  -3 86.0200 4.97000   1
   3   3   3 93.7700 5.79000   1
   3   3   3 82.7700 4.74000   1
   3   3   3 88.4500 5.19000   1
  -1   3   6 24.9300 1.78000   1
  -1   3   6 22.2200 1.65000   1
  -1   3   6 19.0900 1.30000   1
   1  -3  -6 26.0000 1.86000   1
   1  -3  -6 21.7500 1.55000   1
   3   0   5 108.220 6.16000   1
  -3   0  -5 111.200 6.41000   1
  -3   0  -5 117.390 7.72000   1
   3   0   5 116.880 6.58000   1
   3   0   5 118.840 7.62000   1
   4  -1  -7 0.12000 0.24000   1
  -4   1   7 0.16000 0.21000   1
   4  -1  -7 0.26000 0.73000   1
  -4   1   7 0.69000 0.50000   1
  -3   5  -5 5.78000 1.01000   1
  -3   5  -5 5.05000 0.38000   1
  -3   5  -5 4.90000 0.48000   1
   3  -5   5 5.59000 0.70000   1
   3  -5   5 5.19000 0.34000   1
   2   6   0 44.3600 2.72000   1
  -2  -6   0 48.6800 3.30000   1
   2   6   0 41.3600 3.04000   1
   2  -7  -1 34.1100 1.77000   1
  -2   7   1 39.9900 2.62000   1
   2  -7  -1 36.8100 2.67000   1
  -2   7   1 38.3100 1.99000   1
   4  -5  -4 0.10000 0.60000   1
  -4   5   4 0.29000 0.21000   1
   4  -5  -4 0.39000 0.33000   1
  -4   5   4 0.37000 0.44000   1
   1   7  -4 1.59000 0.71000   1
  -1  -7   4 1.22000 0.59000   1
   3  -6  -3 2.46000 0.73000   1
  -3   6   3 2.83000 0.37000   1
  -3   6   3 2.61000 0.77000   1
   3  -6  -3 1.39000 0.31000   1
  -3   6   3 1.40000 0.39000   1
   1   3   5 14.5500 1.30000   1
  -1  -3  -5 16.8700 1.45000   1
   1   3   5 13.6100 1.33000   1
  -1  -3  -5 13.7200 1.13000   1
   4   5  -3 1.36000 0.90000   1
   4   5  -3 2.23000 0.70000   1
   4  -3  -6 19.1200 1.69000   1
  -4   3   6 16.8600 0.81000   1
   4  -3  -6 16.2700 0.81000   1
  -4   3   6 16.5300 1.22000   1
  -1  -5  -3 0.82000 0.74000   1
  -1  -5  -3 1.68000 0.79000   1
   1   5   3 3.37000 0.75000   1
   1   5   3 1.43000 0.76000   1
   4   3  -7 1.95000 0.54000   1
   4   3  -7 2.29000 0.92000   1
   4   3  -7 1.51000 0.96000   1
  -4  -3   7 2.87000 0.95000   1
   4   5  -4 34.1600 2.46000   1
   4   5  -4 36.1500 2.74000   1
   5  -5  -3 0.87000 0.27000   1
  -5   5   3 1.07000 0.25000   1
  -5   5   3 1.16000 0.30000   1
  -5   5   3 1.51000 0.34000   1
   5  -5  -3 1.20000 0.70000   1
   3   4   2 34.5600 2.27000   1
  -3  -4  -2 35.8100 2.49000   1
  -3  -4  -2 28.8800 1.74000   1
   3   4   2 34.0600 2.35000   1
   3   6  -3 3.96000 1.01000   1
   3   6  -3 3.30000 0.87000   1
   2   0   6 23.2900 1.38000   1
   2   0   6 28.9900 2.04000   1
   2   0   6 25.6800 1.43000   1
  -2   0  -6 29.0400 2.14000   1
  -2   0  -6 24.5600 1.57000   1
  -6   0   5 32.5500 2.33000   1
   6   0  -5 31.2500 1.48000   1
   6   0  -5 32.3200 2.31000   1
   6   0  -5 33.1300 2.21000   1
  -5   2   6 29.9800 1.95000   1
   5  -2  -6 35.4700 2.55000   1
   1  -1   7 13.8600 1.33000   1
   1  -1   7 11.4200 0.78000   1
  -1   1  -7 13.5500 1.30000   1
  -1   1  -7 10.9100 0.91000   1
   1  -1   7 10.6600 0.77000   1
   2  -5   6 49.4700 2.75000   1
  -2   5  -6 49.3100 2.73000   1
  -2   5  -6 51.1300 2.58000   1
  -2   5  -6 43.6800 3.09000   1
   2  -5   6 49.1100 2.38000   1
   0  -5   7 4.69000 0.84000   1
   0  -5   7 3.99000 0.47000   1
   0   5  -7 6.36000 1.05000   1
   0   5  -7 5.33000 1.00000   1
   0   5  -7 6.45000 0.71000   1
  -2  -5  -2 29.3800 2.04000   1
  -2  -5  -2 31.9000 2.36000   1
   2   5   2 29.5300 2.17000   1
   2   5   2 28.0100 2.07000   1
  -1   4  -7 73.6800 4.04000   1
   1  -4   7 72.7500 4.29000   1
   1  -4   7 69.5200 3.72000   1
  -1   4  -7 79.5500 5.09000   1
  -1   4  -7 73.0200 4.28000   1
  -6   4   1 51.3600 2.73000   1
  -6   4   1 53.2800 2.77000   1
  -6   4   1 56.1400 2.72000   1
   6  -4  -1 53.9000 2.98000   1
  -6   4   1 54.8000 2.73000   1
   6  -4  -1 54.5200 2.81000   1
  -6   4   1 50.3300 2.75000   1
   2   2  -8 14.2700 1.38000   1
   2   2  -8 14.1300 1.17000   1
  -2  -2   8 13.4300 1.44000   1
  -1   7   1 14.6300 1.40000   1
   1  -7  -1 16.4600 1.55000   1
   1  -7  -1 12.8700 0.79000   1
  -1   7   1 14.1500 1.04000   1
   2  -7   4 18.3400 0.99000   1
   2  -7   4 19.8000 1.14000   1
   2  -7   4 18.4900 1.06000   1
  -2   7  -4 21.3400 1.35000   1
  -2   7  -4 21.7500 1.67000   1
   6  -1  -5 43.4000 1.91000   1
   6  -1  -5 44.1200 2.90000   1
  -6   1   5 43.7800 2.81000   1
   5  -3   3 30.7400 1.68000   1
  -5   3  -3 29.5000 2.07000   1
  -5   3  -3 32.2100 1.84000   1
  -5   2  -3 4.17000 0.48000   1
  -5   2  -3 2.39000 0.78000   1
   5  -2   3 2.14000 0.52000   1
   1   7  -1 27.2300 1.90000   1
   1   7  -1 25.6400 2.05000   1
  -5   5  -2 5.75000 0.37000   1
  -5   5  -2 5.76000 0.44000   1
  -5   5  -2 7.07000 0.57000   1
  -5   5  -2 7.36000 0.76000   1
   5  -5   2 6.63000 0.44000   1
   2   2   5 100.050 5.84000   1
   2   2   5 98.1200 6.33000   1
  -2  -2  -5 98.5000 5.84000   1
  -2  -2  -5 94.8000 6.23000   1
   2   2   5 96.0400 5.71000   1
   3   6  -4 44.2400 2.84000   1
   3   6  -4 40.6500 2.94000   1
  -2  -5   7 9.78000 1.12000   1
   2   5  -7 12.0900 1.27000   1
   2   5  -7 10.0200 1.24000   1
  -6   4   2 0.80000 0.27000   1
   6  -4  -2 0.99000 0.25000   1
  -6   4   2 1.08000 0.39000   1
  -6   4   2 1.14000 0.35000   1
  -6   4   2 1.20000 0.31000   1
   6  -4  -2 1.49000 0.44000   1
  -1   6  -6 29.2600 1.65000   1
  -1   6  -6 32.5800 2.00000   1
   1  -6   6 29.6200 1.72000   1
   1  -6   6 26.5400 1.44000   1
  -1   6  -6 34.0200 2.38000   1
  -3  -2  -4 13.6300 0.95000   1
   3   2   4 17.6700 1.48000   1
   3   2   4 15.2600 1.00000   1
   3   2   4 12.2500 0.80000   1
  -3  -2  -4 15.4400 1.50000   1
  -3  -2  -4 12.1700 0.82000   1
   1  -6  -3 54.4900 3.66000   1
   1  -6  -3 56.8800 3.43000   1
  -1   6   3 60.7100 3.42000   1
  -1   6   3 56.2300 3.80000   1
  -4   6  -3 61.9400 3.32000   1
  -4   6  -3 63.2700 3.03000   1
  -4   6  -3 65.6600 3.45000   1
  -4   6  -3 67.0200 3.90000   1
   4  -6   3 65.2800 3.05000   1
   2   1  -8 67.1700 4.27000   1
  -2  -1   8 67.7000 4.33000   1
   2   1  -8 61.5300 3.61000   1
  -2  -1   8 57.0200 3.31000   1
  -6   0   0 20.8300 1.56000   1
  -6   0   0 18.8200 1.13000   1
   6   0   0 21.2400 1.35000   1
   6   0   0 21.9600 1.51000   1
   6   0   0 21.6300 1.18000   1
   2  -2  -7 5.82000 0.62000   1
  -2   2   7 6.04000 0.90000   1
   2  -2  -7 6.56000 1.03000   1
  -2   2   7 4.49000 0.52000   1
   3  -2  -7 60.3400 3.88000   1
   3  -2  -7 53.3300 2.87000   1
  -3   2   7 49.9400 2.65000   1
  -3   2   7 51.0100 3.21000   1
   3  -7  -1 23.8400 1.97000   1
  -3   7   1 26.5600 1.87000   1
  -3   7   1 23.0700 1.31000   1
  -3   7   1 25.3400 1.27000   1
   3  -7  -1 23.3500 1.11000   1
   0  -7   5 60.1200 3.46000   1
   0   7  -5 58.5800 3.46000   1
   0  -7   5 51.6900 2.94000   1
  -6  -1   1 18.5700 1.19000   1
   6   1  -1 19.8400 1.47000   1
   6   1  -1 22.4500 1.69000   1
  -6  -1   1 18.3000 1.52000   1
  -4   5  -4 26.7100 1.89000   1
   4  -5   4 24.9500 1.37000   1
  -4   5  -4 23.4200 1.16000   1
  -4   5  -4 23.2600 1.09000   1
  -4   5  -4 24.6700 1.06000   1
  -4   0  -4 71.5600 3.68000   1
   4   0   4 79.3400 4.74000   1
  -4   0  -4 74.7900 3.78000   1
   4   0   4 79.2800 4.04000   1
  -4   0  -4 71.9200 4.69000   1
   4   0   4 68.6800 3.44000   1
   4   5  -2 65.8100 4.45000   1
  -4  -5   2 68.3100 4.48000   1
   4   5  -2 63.4300 4.26000   1
   1   2  -8 0.96000 0.73000   1
  -1  -2   8 1.65000 0.47000   1
  -1  -2   8 2.12000 0.78000   1
   1   2  -8 2.85000 0.77000   1
  -2  -6   6 26.6300 1.98000   1
   2   6  -6 26.8300 2.08000   1
  -6   3   4 5.39000 0.63000   1
  -6   3   4 4.57000 0.57000   1
   6  -3  -4 5.29000 0.89000   1
   3  -7   3 2.13000 0.28000   1
   3  -7   3 1.67000 0.36000   1
   3  -7   3 1.69000 0.23000   1
  -3   7  -3 1.62000 0.38000   1
  -3   7  -3 2.96000 0.71000   1
  -3   7  -3 2.79000 0.43000   1
   3   6  -2 32.0000 2.50000   1
   3   6  -2 33.9400 2.35000   1
   2   3  -8 18.0200 1.39000   1
   2   3  -8 15.2400 1.65000   1
   2   3  -8 17.5800 1.45000   1
  -2  -3   8 18.3500 1.64000   1
   6   1  -5 3.36000 0.46000   1
   6   1  -5 3.40000 0.88000   1
  -6  -1   5 5.19000 0.93000   1
   6   1  -5 2.53000 1.01000   1
  -6   4   0 80.8500 4.47000   1
  -6   4   0 81.3800 4.41000   1
  -6   4   0 80.4300 4.18000   1
  -6   4   0 83.3700 4.34000   1
   6  -4   0 87.3000 4.50000   1
   6  -4   0 78.0600 4.41000   1
   6  -4   0 83.5100 4.38000   1
  -3  -2   8 6.50000 1.01000   1
   3   2  -8 2.75000 0.94000   1
   3   2  -8 2.82000 0.59000   1
   3   1  -8 48.2900 3.23000   1
  -3  -1   8 49.7500 3.13000   1
  -3  -1   8 39.3400 2.21000   1
   3   1  -8 40.5700 2.27000   1
  -1  -3   8 20.4200 1.32000   1
  -1  -3   8 26.0100 1.93000   1
   1   3  -8 22.1200 1.75000   1
   1   3  -8 25.0000 1.72000   1
  -5  -2  -1 2.52000 0.81000   1
   5   2   1 2.76000 0.81000   1
   5   2   1 2.40000 0.34000   1
   5   2   1 2.19000 0.55000   1
  -5  -2  -1 1.54000 0.40000   1
   6  -2   1 69.2100 3.94000   1
   6  -2   1 68.9600 3.01000   1
  -6   2  -1 63.5500 3.79000   1
  -6   2  -1 69.9500 3.67000   1
  -6   2  -1 67.6000 3.74000   1
   4   5  -5 0.73000 0.81000   1
  -4  -5   5 0.28000 0.75000   1
   0  -1  -7 19.0000 1.55000   1
   0  -1  -7 18.0900 1.46000   1
   0   1   7 19.0200 1.29000   1
   0   1   7 18.9500 1.67000   1
   0   4   5 3.69000 0.86000   1
   0   4   5 6.25000 0.87000   1
   0  -4  -5 5.39000 0.93000   1
   0  -4  -5 4.66000 0.86000   1
   1  -7   5 1.05000 0.39000   1
  -1   7  -5 0.88000 0.79000   1
  -1   7  -5 2.17000 0.56000   1
   1  -7   5 1.07000 0.39000   1
   1  -7   5 2.40000 0.44000   1
   5   3  -6 19.1800 1.16000   1
   5   3  -6 23.1500 2.07000   1
   5   3  -6 22.5300 2.04000   1
  -5  -3   6 24.3600 2.04000   1
  -5   6   0 10.1400 0.78000   1
  -5   6   0 9.42000 0.66000   1
  -5   6   0 11.9900 0.97000   1
   5  -6   0 10.6800 0.89000   1
   5  -4   3 78.7700 4.22000   1
  -5   4  -3 78.1000 4.62000   1
  -5   4  -3 75.2900 3.48000   1
  -5   4  -3 75.0400 3.46000   1
  -5   4  -3 75.7800 4.12000   1
   5  -1   3 37.7400 1.85000   1
  -5   1  -3 38.3400 1.79000   1
  -5   1  -3 35.9800 2.54000   1
   5  -1   3 38.8400 2.40000   1
   0   5   4 4.16000 0.94000   1
   0  -5  -4 4.52000 0.85000   1
   0  -5  -4 5.44000 0.91000   1
   0   5   4 3.72000 0.83000   1
   6   2  -3 13.3800 1.46000   1
   6   2  -3 14.7500 1.19000   1
   6   2  -3 13.7200 1.43000   1
  -6  -2   3 11.0100 1.07000   1
  -6   2   5 8.04000 1.00000   1
   6  -2  -5 8.39000 0.99000   1
  -6   3  -1 40.0100 2.41000   1
  -6   3  -1 36.3500 1.79000   1
  -6   3  -1 34.1500 1.81000   1
   6  -3   1 35.0600 1.48000   1
   6  -3   1 37.7300 1.94000   1
   1   1  -8 4.35000 0.69000   1
  -1  -1   8 2.72000 0.87000   1
   1   1  -8 4.17000 0.71000   1
   5   4  -3 12.7500 1.39000   1
   5   4  -3 10.5900 1.26000   1
   1   7  -5 58.1300 3.73000   1
  -1  -7   5 52.3100 3.19000   1
  -5   6   1 43.0200 2.41000   1
   5  -6  -1 45.0300 2.64000   1
  -5   6   1 46.6900 2.40000   1
   5   4  -4 42.7000 3.01000   1
   5   4  -4 51.2700 3.43000   1
  -6   4   3 21.0700 1.20000   1
  -6   4   3 18.0400 0.81000   1
   6  -4  -3 17.9900 1.30000   1
  -6   4   3 17.9000 1.05000   1
   5   1   2 1.21000 0.42000   1
  -5  -1  -2 1.31000 0.42000   1
  -5  -1  -2 1.70000 0.76000   1
   5   1   2 2.24000 0.75000   1
   5   1   2 2.10000 0.31000   1
   3   6  -5 3.02000 0.94000   1
  -3  -6   5 2.59000 0.75000   1
   6   2  -4 17.7400 1.42000   1
   6   2  -4 18.4100 1.71000   1
  -6  -2   4 19.9500 1.58000   1
   6   2  -4 17.3500 1.06000   1
  -5  -1   7 29.1600 2.14000   1
   5   1  -7 24.3100 2.10000   1
   5   1  -7 24.5700 1.37000   1
   5   1  -7 22.2400 2.05000   1
  -4   6   3 30.6700 2.18000   1
   4  -6  -3 28.9500 1.48000   1
   4  -6  -3 31.4200 2.34000   1
  -4   6   3 29.1700 1.48000   1
  -4   6   3 30.1000 1.60000   1
  -5   0   7 34.2600 2.37000   1
   5   0  -7 33.5200 2.34000   1
   5   0  -7 31.0800 1.51000   1
   4   3   2 2.81000 0.82000   1
  -4  -3  -2 2.17000 0.50000   1
  -4  -3  -2 2.91000 0.84000   1
   4   3   2 2.48000 0.39000   1
   4   3   2 2.66000 0.70000   1
   1   2   6 34.1300 1.94000   1
  -1  -2  -6 31.9600 2.25000   1
   1   2   6 27.1000 2.15000   1
  -1  -2  -6 30.3500 1.88000   1
   6  -1   1 16.6100 1.09000   1
   6  -1   1 16.9300 0.77000   1
   6  -1   1 15.9400 0.71000   1
  -6   1  -1 15.6500 1.29000   1
  -6   1  -1 15.9300 0.97000   1
   6  -1   1 15.8800 1.18000   1
   2   0  -8 22.7600 1.45000   1
   2   0  -8 23.5000 1.87000   1
  -2   0   8 26.1100 1.93000   1
  -2   0   8 19.9000 1.28000   1
  -3  -5  -1 2.80000 0.90000   1
   3   5   1 1.52000 0.79000   1
   3   5   1 1.56000 0.75000   1
  -5   6  -1 46.0200 2.40000   1
  -5   6  -1 49.1500 2.66000   1
  -5   6  -1 45.0200 2.44000   1
   5  -6   1 47.6300 2.50000   1
  -4   7  -1 24.5000 1.47000   1
  -4   7  -1 22.9900 1.41000   1
   4  -7   1 24.0900 1.58000   1
   4  -7   0 7.97000 0.98000   1
  -4   7   0 8.12000 0.70000   1
  -4   7   0 6.27000 0.77000   1
   1  -2  -7 39.6500 2.38000   1
   1  -2  -7 39.9900 2.70000   1
  -1   2   7 42.2300 2.75000   1
   5   3   0 0.34000 0.56000   1
   5   3   0 0.04000 0.68000   1
   5   3   0 -0.3900 0.28000   1
  -5  -3   0 -0.2400 0.61000   1
   4  -2  -7 5.58000 0.43000   1
  -4   2   7 5.60000 0.87000   1
  -4   2   7 5.45000 0.44000   1
   4  -2  -7 5.80000 1.07000   1
  -3  -3   8 2.75000 0.87000   1
   3   3  -8 1.63000 0.95000   1
   3   3  -8 2.41000 0.62000   1
   3   3  -8 2.84000 0.82000   1
   1   6   2 0.33000 0.56000   1
   1   6   2 -1.0900 0.64000   1
  -1  -6  -2 -0.1200 0.69000   1
  -1  -6  -2 1.24000 0.65000   1
   4   2   3 5.11000 0.56000   1
   4   2   3 7.06000 0.67000   1
  -4  -2  -3 5.81000 0.54000   1
  -4  -2  -3 6.21000 1.02000   1
   4   2   3 5.63000 1.01000   1
   6   2  -2 6.70000 1.06000   1
  -6  -2   2 7.38000 0.94000   1
   6   2  -2 7.10000 1.12000   1
   2   7  -3 39.4700 2.75000   1
   2   7  -3 38.3200 2.53000   1
   3   0  -8 121.220 7.19000   1
  -3   0   8 122.210 8.06000   1
  -3   0   8 112.390 6.97000   1
   3   0  -8 128.830 8.49000   1
   1   0   7 52.9900 3.45000   1
   1   0   7 50.5200 2.68000   1
  -1   0  -7 55.6500 3.54000   1
  -1   0  -7 54.9500 3.18000   1
   1   0   7 48.6900 2.73000   1
   0   7   1 14.4100 1.21000   1
   0   7   1 15.5900 1.50000   1
   0  -7  -1 18.5600 1.57000   1
  -1   5  -7 75.6000 4.45000   1
  -1   5  -7 72.6400 4.82000   1
   1  -5   7 69.1700 4.07000   1
   1  -5   7 67.1100 3.71000   1
  -1   5  -7 74.7800 4.06000   1
   5  -4  -5 27.2200 2.08000   1
  -5   4   5 25.0500 1.48000   1
   5  -4  -5 23.3500 1.29000   1
  -3   3  -6 0.41000 0.27000   1
  -3   3  -6 0.29000 0.69000   1
   3  -3   6 -0.5200 0.41000   1
   0  -3  -6 43.9400 2.81000   1
   0  -3  -6 42.3900 2.81000   1
   0   3   6 41.4800 2.75000   1
   0   3   6 44.9000 2.81000   1
  -5  -4   2 57.2600 3.53000   1
   5   4  -2 54.0400 3.69000   1
   5   4  -2 59.7500 4.02000   1
   1   7   0 46.5000 3.17000   1
   1   7   0 45.7500 2.75000   1
  -1  -4   8 59.5100 3.84000   1
   1   4  -8 60.5600 3.65000   1
   1   4  -8 60.4300 3.93000   1
   1   4  -8 61.3300 4.01000   1
  -2  -7   4 21.2900 1.80000   1
   2   7  -4 25.4800 1.96000   1
   3   6  -1 33.0700 2.19000   1
  -3  -6   1 28.1800 2.29000   1
   3   6  -1 35.2700 2.53000   1
  -4  -5   1 15.0800 1.48000   1
   4   5  -1 13.7300 1.41000   1
   4   5  -1 12.7500 1.46000   1
   2  -7  -2 44.5200 3.12000   1
   2  -7  -2 41.7100 2.17000   1
  -2   7   2 45.8100 2.44000   1
  -2   7   2 43.1100 2.89000   1
   5   4  -5 25.6900 2.22000   1
  -5  -4   5 28.2100 2.32000   1
  -2  -4   8 1.71000 0.82000   1
   2   4  -8 1.69000 0.87000   1
   2   4  -8 1.25000 0.63000   1
   2   4  -8 3.16000 0.73000   1
  -3   2  -6 7.58000 0.58000   1
   3  -2   6 9.43000 1.06000   1
   3  -2   6 6.83000 0.38000   1
   3  -2   6 7.63000 0.39000   1
  -3   2  -6 9.86000 1.18000   1
   5   2  -7 2.23000 0.84000   1
   5   2  -7 1.15000 0.41000   1
   5   2  -7 2.57000 0.88000   1
  -5  -2   7 1.61000 0.82000   1
  -3  -5   7 4.69000 0.82000   1
   3   5  -7 3.52000 1.01000   1
  -3  -1  -5 40.0500 2.11000   1
  -3  -1  -5 47.4200 3.12000   1
   3   1   5 44.7800 2.44000   1
   3   1   5 41.7300 2.24000   1
   3   1   5 45.0100 2.93000   1
   3  -5  -5 91.4800 4.99000   1
   3  -5  -5 89.4900 5.83000   1
  -3   5   5 92.6200 5.86000   1
  -3   5   5 80.8800 4.79000   1
  -3   5   5 87.3800 4.87000   1
   3  -6   5 9.80000 0.75000   1
   3  -6   5 8.29000 0.53000   1
  -3   6  -5 8.46000 0.57000   1
  -3   6  -5 8.92000 0.57000   1
  -3   6  -5 8.74000 0.66000   1
  -3   6  -5 8.69000 1.08000   1
   4   4  -7 -0.0700 0.77000   1
  -4  -4   7 1.49000 0.75000   1
   4   4  -7 0.22000 0.82000   1
   2   7  -2 0.74000 0.77000   1
   2   7  -2 0.30000 0.63000   1
   6  -4   1 3.49000 0.35000   1
  -6   4  -1 2.60000 0.38000   1
  -6   4  -1 2.97000 0.28000   1
  -6   4  -1 3.60000 0.37000   1
  -6   4  -1 3.39000 0.60000   1
   6  -4   1 3.87000 0.45000   1
   5  -6  -2 0.63000 0.52000   1
  -5   6   2 0.63000 0.20000   1
   5  -6  -2 0.36000 0.19000   1
  -5   6   2 1.88000 0.52000   1
  -5   6   2 0.84000 0.39000   1
   2  -5  -5 5.68000 0.67000   1
   2  -5  -5 5.27000 0.96000   1
  -2   5   5 6.80000 1.05000   1
  -2   5   5 7.82000 0.76000   1
  -2   5   5 6.27000 0.61000   1
  -4   3  -5 2.26000 0.23000   1
   4  -3   5 3.90000 0.66000   1
  -4   3  -5 3.15000 0.79000   1
   0   2  -8 12.5800 1.10000   1
   0  -2   8 14.4800 1.37000   1
   0  -2   8 12.2200 0.82000   1
   0   2  -8 15.6100 1.42000   1
   0  -3   8 1.85000 0.72000   1
   0   3  -8 0.33000 0.62000   1
   0   3  -8 1.57000 0.75000   1
   0  -3   8 0.97000 0.32000   1
   3  -4  -6 -0.0300 0.64000   1
   3  -4  -6 -0.0800 0.27000   1
  -3   4   6 -0.3700 0.41000   1
  -3   4   6 0.70000 0.31000   1
  -5   1   7 34.6900 2.26000   1
   5  -1  -7 26.2400 1.17000   1
   5  -1  -7 27.9000 2.25000   1
   2   6   1 11.3500 1.08000   1
   2   6   1 12.0800 1.34000   1
  -2  -6  -1 12.7300 1.46000   1
  -6  -2   5 15.3600 1.51000   1
   6   2  -5 14.9600 0.94000   1
   6   2  -5 17.3600 1.76000   1
   6   2  -5 17.9200 1.64000   1
   4   4   1 38.7300 2.54000   1
  -4  -4  -1 39.8100 2.76000   1
   4   4   1 36.5300 2.63000   1
  -5   3   6 1.12000 0.57000   1
   5  -3  -6 2.56000 0.84000   1
   0   6   3 6.37000 1.02000   1
   0  -6  -3 6.84000 1.05000   1
   0  -6  -3 5.36000 0.81000   1
   0   6   3 5.72000 0.86000   1
   5  -5  -4 62.0300 3.21000   1
  -5   5   4 62.8400 2.85000   1
   5  -5  -4 64.5500 4.10000   1
  -5   5   4 64.2700 3.01000   1
  -5   5   4 67.9000 3.62000   1
   6   0  -6 20.8100 1.77000   1
  -6   0   6 19.1700 1.59000   1
   6   0  -6 16.4700 0.85000   1
  -4   7  -2 0.74000 0.39000   1
  -4   7  -2 0.53000 0.31000   1
  -4   7  -2 0.82000 0.41000   1
   3  -4   6 0.89000 0.48000   1
  -3   4  -6 0.65000 0.69000   1
  -3   4  -6 0.88000 0.35000   1
  -1   8  -2 22.3500 1.71000   1
   1  -8   2 18.5900 0.99000   1
  -1   8  -2 22.0000 1.38000   1
  -4   7   1 2.76000 0.23000   1
  -4   7   1 2.58000 0.72000   1
   4  -7  -1 1.93000 0.20000   1
   4  -7  -1 3.92000 0.81000   1
   3  -7  -2 0.45000 0.28000   1
   3  -7  -2 1.15000 0.72000   1
  -3   7   2 0.74000 0.39000   1
  -3   7   2 1.70000 0.66000   1
  -3   7   2 -0.1000 0.30000   1
   6   1   0 0.19000 0.61000   1
   6   1   0 0.08000 0.45000   1
  -6  -1   0 -0.2700 0.32000   1
  -6  -1   0 -0.6900 0.55000   1
  -2   4   6 8.89000 0.69000   1
   2  -4  -6 8.20000 1.12000   1
   2  -4  -6 7.96000 0.75000   1
  -2   4   6 8.67000 0.94000   1
  -2   4   6 11.1900 1.18000   1
  -4   2  -5 38.5500 2.57000   1
  -4   2  -5 35.0700 1.52000   1
   4  -2   5 37.0200 2.20000   1
   4   1  -8 5.30000 1.14000   1
   4   1  -8 5.95000 0.70000   1
  -4  -1   8 6.05000 0.99000   1
  -1   0   8 8.17000 1.05000   1
   1   0  -8 5.58000 0.77000   1
   1   0  -8 6.34000 0.86000   1
   2   1   6 26.7300 1.52000   1
  -2  -1  -6 26.5800 2.17000   1
  -2  -1  -6 28.7000 1.66000   1
   2   1   6 30.0800 1.78000   1
   2   1   6 29.1200 2.20000   1
   6  -5  -1 1.03000 0.41000   1
   6  -5  -1 1.34000 0.34000   1
  -6   5   1 0.52000 0.24000   1
  -6   5   1 0.72000 0.21000   1
  -6   5   1 1.28000 0.29000   1
  -6   5   1 1.51000 0.30000   1
  -2   6  -6 9.07000 0.68000   1
   2  -6   6 9.39000 0.78000   1
   2  -6   6 10.9000 0.69000   1
  -2   6  -6 10.7600 1.21000   1
  -2   6  -6 11.3700 0.84000   1
  -1  -6   7 89.6300 5.69000   1
   1   6  -7 82.4200 5.47000   1
   1   6  -7 90.8800 5.65000   1
  -4  -5   6 1.54000 0.70000   1
   4   5  -6 1.50000 0.90000   1
   2  -7   5 3.68000 0.43000   1
  -2   7  -5 3.43000 0.51000   1
   2  -7   5 4.61000 0.54000   1
  -2   7  -5 4.74000 0.89000   1
  -2   7  -5 3.82000 0.40000   1
  -3   7  -4 41.5300 2.20000   1
   3  -7   4 35.4900 1.87000   1
  -3   7  -4 39.9700 2.59000   1
   3  -7   4 40.6700 1.91000   1
  -3   7  -4 36.9000 1.75000   1
  -3   7  -4 36.0600 1.91000   1
   5  -5   3 14.2800 0.80000   1
  -5   5  -3 13.9800 0.73000   1
  -5   5  -3 14.1500 1.28000   1
  -5   5  -3 13.3100 0.74000   1
  -5   5  -3 13.5000 0.71000   1
   2  -3   7 11.7300 1.14000   1
  -2   3  -7 9.46000 0.73000   1
  -2   3  -7 10.1600 1.28000   1
   2  -3   7 8.94000 0.55000   1
   1  -8   3 0.24000 0.29000   1
   1  -8   3 0.20000 0.31000   1
  -1   8  -3 -0.6900 0.55000   1
   5   0   3 19.7700 1.57000   1
  -5   0  -3 18.5900 1.00000   1
  -5   0  -3 19.1600 1.58000   1
   5   0   3 18.2400 0.85000   1
   5   0   3 19.3600 1.09000   1
  -6   1   6 2.54000 0.72000   1
   6  -1  -6 2.89000 0.87000   1
   6  -1  -6 2.01000 0.17000   1
   4   2  -8 10.7100 1.40000   1
   4   2  -8 11.4700 1.39000   1
  -4  -2   8 11.6300 1.31000   1
   4   2  -8 10.7300 0.84000   1
   2  -8   2 6.31000 0.44000   1
   2  -8   2 5.73000 0.50000   1
  -2   8  -2 6.52000 0.87000   1
  -1   7   2 23.7400 1.92000   1
  -1   7   2 23.1500 1.49000   1
   1  -7  -2 21.0800 1.83000   1
   4  -4   5 1.25000 0.41000   1
  -4   4  -5 0.60000 0.31000   1
  -4   4  -5 0.56000 0.21000   1
  -4   4  -5 1.31000 0.71000   1
   6   1  -6 21.7900 1.20000   1
   6   1  -6 24.2100 2.11000   1
  -6  -1   6 30.1200 2.06000   1
   6   1  -6 23.6700 1.97000   1
   0   6  -7 -0.0900 0.66000   1
   0  -6   7 0.28000 0.42000   1
   0   6  -7 -0.3100 0.44000   1
   0  -6   7 0.13000 0.32000   1
   6  -3  -5 -0.2500 0.62000   1
  -6   3   5 -0.4600 0.44000   1
   6  -3  -5 -0.2800 0.27000   1
   6   0   1 4.53000 0.62000   1
   6   0   1 2.14000 0.39000   1
  -6   0  -1 2.42000 0.73000   1
  -6   0  -1 1.79000 0.47000   1
   6   0   1 2.49000 0.63000   1
   6   0   1 2.86000 0.33000   1
   2  -2   7 20.1200 1.01000   1
   2  -2   7 20.0700 1.24000   1
  -2   2  -7 22.3500 1.86000   1
  -2   2  -7 19.7200 1.28000   1
   2  -2   7 20.1500 1.01000   1
   2  -2   7 21.6400 1.72000   1
  -6   5   0 29.8600 1.57000   1
  -6   5   0 32.2400 1.44000   1
  -6   5   0 33.1000 1.74000   1
   6  -5   0 31.8600 1.76000   1
  -6   5   0 31.7700 1.38000   1
   6  -5   0 30.9100 1.62000   1
   1  -8   1 37.2000 2.01000   1
  -1   8  -1 43.2200 2.80000   1
  -1   8  -1 42.2200 2.31000   1
  -2   8  -1 11.4600 0.79000   1
  -2   8  -1 12.3000 1.18000   1
   2  -8   1 9.61000 0.59000   1
   2  -8   1 12.5400 1.28000   1
  -6   5   2 4.69000 0.34000   1
  -6   5   2 4.79000 0.49000   1
  -6   5   2 3.81000 0.42000   1
  -6   5   2 4.75000 0.45000   1
   6  -5  -2 4.64000 0.67000   1
  -5   6  -2 35.2900 1.42000   1
  -5   6  -2 38.3800 2.11000   1
  -5   6  -2 38.1600 2.01000   1
  -5   6  -2 40.8900 2.05000   1
   6  -4  -4 0.23000 0.31000   1
   6  -4  -4 1.03000 0.63000   1
  -6   4   4 0.88000 0.46000   1
  -4   6  -4 1.59000 0.38000   1
  -4   6  -4 1.50000 0.73000   1
  -4   6  -4 1.76000 0.31000   1
   4  -6   4 2.32000 0.35000   1
  -4   6  -4 2.06000 0.31000   1
   4   1   4 5.59000 0.53000   1
  -4  -1  -4 6.96000 0.49000   1
  -4  -1  -4 6.94000 0.63000   1
  -4  -1  -4 6.47000 1.01000   1
   4   1   4 5.90000 0.48000   1
   4   1   4 7.44000 1.10000   1
   0  -1   8 63.3000 3.58000   1
   0  -1   8 69.8700 4.46000   1
   0   1  -8 70.5500 4.51000   1
   0   1  -8 71.3300 4.30000   1
   3   6  -6 14.4600 1.52000   1
  -3  -6   6 11.6700 1.41000   1
   6   2  -1 0.53000 0.59000   1
  -6  -2   1 -0.4200 0.46000   1
   6   2  -1 0.76000 0.64000   1
   0   7  -6 0.03000 0.75000   1
   0   7  -6 1.48000 0.53000   1
   0  -7   6 0.56000 0.49000   1
   4   0  -8 49.0000 3.38000   1
   4   0  -8 45.2600 2.47000   1
  -4   0   8 46.7400 3.11000   1
   2   7  -5 1.03000 0.74000   1
  -2  -7   5 1.10000 0.61000   1
   3  -6  -4 69.9500 3.81000   1
  -3   6   4 66.3800 3.65000   1
   3  -6  -4 68.4100 4.51000   1
  -3   6   4 67.7600 4.39000   1
  -3   6   4 66.8400 3.76000   1
   0  -4   8 33.1600 2.24000   1
   0  -4   8 29.8700 1.64000   1
   0   4  -8 32.2400 1.88000   1
   0   4  -8 33.6400 2.41000   1
   0   4  -8 33.4400 2.24000   1
  -2   6   4 2.80000 0.48000   1
   2  -6  -4 4.19000 0.92000   1
   2  -6  -4 3.99000 0.71000   1
  -2   6   4 3.96000 0.92000   1
  -2   6   4 3.78000 0.57000   1
   3  -1   6 44.2500 2.11000   1
   3  -1   6 41.5100 2.15000   1
  -3   1  -6 40.5600 2.84000   1
   3  -1   6 45.2200 2.92000   1
  -3   1  -6 42.0800 2.21000   1
   0   8  -3 32.2100 2.07000   1
   0  -8   3 28.8300 1.59000   1
   4  -5  -5 39.8200 2.72000   1
  -4   5   5 35.6400 1.77000   1
   4  -5  -5 35.6000 1.91000   1
  -4   5   5 34.8500 1.99000   1
   0   8  -2 50.5600 2.87000   1
   0  -8   2 41.6300 2.34000   1
   0   8  -2 54.5600 3.45000   1
   2  -4   7 1.48000 0.23000   1
   2  -4   7 1.21000 0.54000   1
  -2   4  -7 1.72000 0.42000   1
  -2   4  -7 2.60000 0.81000   1
   4  -4  -6 65.9100 4.24000   1
   4  -4  -6 65.5900 3.20000   1
  -4   4   6 56.2100 2.75000   1
  -4   4   6 58.2800 3.29000   1
  -3  -4   8 36.1000 2.74000   1
   3   4  -8 39.7800 3.01000   1
   3   4  -8 39.1600 2.42000   1
   3   4  -8 43.1400 2.72000   1
  -3   1   8 54.0900 3.53000   1
  -3   1   8 52.6000 2.85000   1
   3  -1  -8 60.3600 3.95000   1
   3  -1  -8 54.1700 2.90000   1
   2  -8   3 0.19000 0.27000   1
   2  -8   3 -0.1000 0.20000   1
  -2   8  -3 0.83000 0.60000   1
  -2   8  -3 0.38000 0.45000   1
   1   7  -6 11.8000 1.17000   1
  -1  -7   6 13.0800 1.12000   1
   2  -1  -8 28.4500 1.74000   1
  -2   1   8 30.8900 1.94000   1
  -2   1   8 24.6000 1.49000   1
   2  -1  -8 30.0600 2.17000   1
   2   7  -1 67.0700 4.28000   1
   2   7  -1 70.1000 4.70000   1
   5   4  -1 5.01000 0.84000   1
  -5  -4   1 4.16000 0.94000   1
   5   4  -1 6.85000 1.03000   1
   1  -5  -5 25.8900 2.05000   1
  -1   5   5 27.2600 1.81000   1
   1  -5  -5 28.8600 1.83000   1
  -1   5   5 25.1800 1.97000   1
   3  -3  -7 0.71000 0.43000   1
   3  -3  -7 1.82000 0.72000   1
  -3   3   7 -0.2500 0.56000   1
  -3   3   7 0.75000 0.35000   1
  -2  -4  -4 38.5300 2.30000   1
   2   4   4 43.5400 2.68000   1
   2   4   4 38.8500 2.61000   1
  -2  -4  -4 39.0200 2.61000   1
   2   6  -7 6.94000 1.11000   1
   2   6  -7 5.35000 0.90000   1
  -2  -6   7 6.27000 1.04000   1
   4  -1   5 15.2100 0.77000   1
   4  -1   5 15.3100 0.74000   1
   4  -1   5 18.6100 1.32000   1
  -4   1  -5 14.4100 0.80000   1
  -4   1  -5 18.0900 1.54000   1
  -6   3  -2 20.9500 1.05000   1
  -6   3  -2 19.6300 1.24000   1
  -6   3  -2 19.7300 1.53000   1
   6  -3   2 22.3200 1.27000   1
   6  -2   2 0.32000 0.51000   1
  -6   2  -2 0.33000 0.50000   1
  -6   2  -2 0.71000 0.22000   1
  -5  -4   6 2.12000 0.88000   1
   5   4  -6 1.77000 0.93000   1
   5   3  -7 0.36000 0.71000   1
   5   3  -7 0.09000 0.76000   1
  -5  -3   7 0.11000 0.68000   1
   1  -8   4 25.7900 1.45000   1
   1  -8   4 29.1500 1.56000   1
  -1   8  -4 31.2800 1.89000   1
  -3   5  -6 6.10000 0.56000   1
   3  -5   6 6.41000 0.66000   1
  -3   5  -6 5.83000 0.65000   1
   3  -5   6 6.22000 0.34000   1
  -3   5  -6 6.29000 1.03000   1
  -3   5  -6 6.10000 0.41000   1
   2  -3  -7 6.06000 1.01000   1
   2  -3  -7 7.42000 0.69000   1
  -2   3   7 5.34000 0.86000   1
  -2   3   7 4.85000 0.53000   1
  -7   1   3 50.5400 3.07000   1
  -7   1   3 46.1900 2.58000   1
   7  -1  -3 47.6700 2.44000   1
   7  -1  -3 49.4800 2.79000   1
   7  -1  -3 48.9800 3.15000   1
   1  -4  -6 28.6000 1.95000   1
  -1   4   6 25.5400 1.91000   1
  -1   4   6 25.1500 1.79000   1
   1  -4  -6 29.2200 1.81000   1
   4   3  -8 20.7600 1.83000   1
  -4  -3   8 24.2400 2.06000   1
   4   3  -8 22.7800 1.44000   1
   4   3  -8 24.4000 2.14000   1
  -7   2   2 11.1800 0.91000   1
  -7   2   2 9.83000 0.83000   1
   7  -2  -2 11.6000 0.79000   1
   7  -2  -2 11.2900 0.94000   1
  -1   7  -6 10.4800 0.92000   1
  -1   7  -6 9.12000 1.17000   1
   1  -7   6 9.15000 0.77000   1
  -1   7  -6 8.14000 0.65000   1
   1  -7   6 7.79000 0.63000   1
   2  -8   0 11.3400 1.36000   1
   2  -8   0 9.74000 0.64000   1
  -2   8   0 12.2700 0.89000   1
  -2   8   0 10.8400 1.21000   1
   0  -8   4 14.1900 1.05000   1
   0   8  -4 15.2200 1.34000   1
   0  -8   4 12.0100 0.85000   1
   6   3  -4 6.28000 1.12000   1
   6   3  -4 3.93000 1.02000   1
   1   5  -8 9.12000 0.95000   1
   1   5  -8 6.85000 1.05000   1
  -1  -5   8 9.97000 1.16000   1
   1   5  -8 9.18000 1.18000   1
  -5   3  -4 6.16000 0.92000   1
  -5   3  -4 5.83000 0.60000   1
   5  -3   4 6.97000 0.70000   1
  -6   2   6 26.9500 1.81000   1
   6  -2  -6 25.2700 2.15000   1
   4  -7   3 25.7800 1.03000   1
   4  -7   3 26.6600 1.04000   1
  -4   7  -3 32.5300 1.88000   1
  -4   7  -3 30.2600 1.66000   1
  -4   7  -3 33.4300 1.79000   1
   7  -1  -2 3.59000 0.43000   1
   7  -1  -2 2.94000 0.69000   1
   7  -1  -2 3.33000 0.64000   1
   7  -1  -2 4.18000 0.71000   1
  -7   1   2 3.01000 0.53000   1
  -7   2   3 8.30000 0.66000   1
  -7   2   3 8.53000 0.68000   1
  -7   2   3 7.24000 0.66000   1
   7  -2  -3 8.42000 0.81000   1
  -7   2   3 7.74000 0.83000   1
   7  -2  -3 8.70000 0.57000   1
   0  -2  -7 12.5900 1.17000   1
   0   2   7 12.9900 1.03000   1
   0   2   7 13.3900 1.30000   1
   0  -2  -7 12.8300 1.25000   1
  -6  -3   3 5.10000 0.72000   1
   6   3  -3 4.76000 1.01000   1
   6   3  -3 5.22000 1.04000   1
   2  -1   7 20.0500 1.65000   1
   2  -1   7 19.2300 1.05000   1
   2  -1   7 18.6100 1.06000   1
  -2   1  -7 18.8100 1.73000   1
  -2   1  -7 20.0100 1.34000   1
   5  -2  -7 0.37000 0.82000   1
   5  -2  -7 0.94000 0.14000   1
  -5   6   3 58.3300 2.95000   1
  -5   6   3 56.0700 2.77000   1
   5  -6  -3 53.8700 2.67000   1
   5  -6  -3 57.5900 3.49000   1
  -5   6   3 59.5900 3.65000   1
  -5   6   3 55.4500 2.80000   1
   4  -7  -2 8.33000 1.08000   1
   4  -7  -2 7.16000 0.44000   1
  -4   7   2 7.11000 0.51000   1
  -4   7   2 6.34000 0.48000   1
  -4   7   2 8.57000 1.00000   1
   2   5   3 19.5900 1.67000   1
   2   5   3 21.3500 1.69000   1
  -2  -5  -3 23.3200 1.86000   1
  -2  -5  -3 22.0100 1.53000   1
   3   4   3 34.8200 2.42000   1
  -3  -4  -3 31.2800 1.94000   1
  -3  -4  -3 31.6200 2.44000   1
   3   4   3 36.0000 2.15000   1
   6   2  -6 8.77000 1.32000   1
   6   2  -6 10.1300 1.38000   1
  -6  -2   6 9.99000 1.24000   1
   6   2  -6 8.57000 0.65000   1
   0   8  -1 3.36000 0.98000   1
   0   8  -1 5.13000 0.69000   1
  -6   5  -1 0.31000 0.22000   1
   6  -5   1 0.76000 0.29000   1
   6  -5   1 0.66000 0.24000   1
  -6   5  -1 0.19000 0.28000   1
  -6   5  -1 1.17000 0.48000   1
  -6   5  -1 0.28000 0.39000   1
  -6   5  -1 0.59000 0.24000   1
   3  -8   1 1.67000 0.70000   1
  -3   8  -1 0.84000 0.49000   1
   3  -8   1 1.37000 0.19000   1
   3  -8   1 0.58000 0.21000   1
  -2  -3  -5 0.85000 0.75000   1
   2   3   5 0.30000 0.48000   1
   2   3   5 0.38000 0.69000   1
  -2  -3  -5 1.61000 0.48000   1
  -6   5   3 1.30000 0.28000   1
   6  -5  -3 1.67000 0.54000   1
  -6   5   3 1.02000 0.27000   1
  -6   5   3 0.92000 0.33000   1
  -3  -6   0 0.54000 0.70000   1
   3   6   0 0.28000 0.69000   1
   3   6   0 -0.0900 0.63000   1
   4  -5   5 1.03000 0.37000   1
  -4   5  -5 0.81000 0.38000   1
  -4   5  -5 0.40000 0.72000   1
  -4   5  -5 1.44000 0.27000   1
  -4   5  -5 1.40000 0.28000   1
   1   1   7 0.10000 0.35000   1
   1   1   7 -0.0200 0.66000   1
  -1  -1  -7 -0.5900 0.42000   1
  -1  -1  -7 -0.3200 0.55000   1
  -5   2  -4 8.65000 1.06000   1
   5  -2   4 7.53000 0.94000   1
  -3  -3  -4 -0.0600 0.40000   1
  -3  -3  -4 0.61000 0.66000   1
   3   3   4 -0.1900 0.46000   1
   3   3   4 0.32000 0.62000   1
   3   3   4 -0.0300 0.29000   1
   1  -8   0 9.46000 0.59000   1
  -1   8   0 5.30000 1.01000   1
  -1   8   0 5.63000 0.69000   1
   1  -8   0 6.64000 1.11000   1
   2   5  -8 12.7700 1.15000   1
  -2  -5   8 10.3300 1.19000   1
   2   5  -8 10.7400 1.09000   1
   2   5  -8 14.3300 1.35000   1
   4  -6  -4 5.64000 1.07000   1
   4  -6  -4 5.62000 0.57000   1
  -4   6   4 7.02000 0.58000   1
  -4   6   4 6.46000 0.53000   1
  -4   6   4 6.04000 0.95000   1
   4   5   0 18.0000 1.51000   1
   4   5   0 21.7300 1.80000   1
  -4  -5   0 18.3000 1.63000   1
   1  -6   7 22.2800 1.44000   1
  -1   6  -7 23.3800 1.63000   1
  -1   6  -7 26.1700 2.00000   1
   1  -6   7 22.6500 1.32000   1
   1   4   5 18.4000 1.58000   1
   1   4   5 21.1200 1.54000   1
  -1  -4  -5 20.5800 1.71000   1
  -1  -4  -5 19.9000 1.41000   1
   1  -6  -4 0.31000 0.48000   1
  -1   6   4 0.17000 0.68000   1
  -1   6   4 0.75000 0.47000   1
   1  -6  -4 0.46000 0.64000   1
   3  -8   2 17.0200 0.71000   1
  -3   8  -2 20.9200 1.26000   1
  -3   8  -2 20.6500 1.49000   1
   3  -8   2 20.5300 0.89000   1
  -5  -2  -2 0.56000 0.33000   1
  -5  -2  -2 1.02000 0.73000   1
   5   2   2 0.87000 0.44000   1
   5   2   2 0.73000 0.33000   1
   5   2   2 2.38000 0.73000   1
   1   5   4 5.12000 0.82000   1
   1   5   4 3.25000 0.78000   1
  -1  -5  -4 2.50000 0.84000   1
  -1  -5  -4 3.32000 0.84000   1
  -7   1   4 15.1600 0.94000   1
   7  -1  -4 15.4800 1.19000   1
  -7   1   4 13.9900 1.26000   1
   7  -1  -4 15.2900 0.84000   1
   6  -4   2 52.6000 2.68000   1
  -6   4  -2 47.6400 2.47000   1
  -6   4  -2 42.3800 1.75000   1
  -6   4  -2 53.4800 2.93000   1
  -6   4  -2 45.6600 2.16000   1
   7   0  -3 14.6600 1.11000   1
   7   0  -3 17.9400 1.50000   1
  -7   0   3 16.0000 1.08000   1
   7   0  -3 14.9400 1.04000   1
   7   0  -3 16.8700 1.24000   1
  -4   3   7 11.8400 0.68000   1
   4  -3  -7 11.9700 0.69000   1
  -4   3   7 10.5400 0.97000   1
   4  -3  -7 11.8300 1.44000   1
  -5   4  -4 0.78000 0.38000   1
   5  -4   4 0.88000 0.37000   1
  -5   4  -4 0.13000 0.66000   1
   4  -1  -8 47.7100 3.29000   1
   4  -1  -8 47.7500 2.43000   1
  -4   1   8 45.9100 2.39000   1
  -4   1   8 44.7500 3.03000   1
  -6   1  -2 10.8500 1.11000   1
   6  -1   2 9.37000 1.03000   1
   6  -1   2 11.6400 0.76000   1
  -6   1  -2 9.81000 0.64000   1
   1   7   1 7.51000 1.02000   1
  -1  -7  -1 6.93000 0.99000   1
  -1  -7  -1 4.09000 0.79000   1
   1   7   1 5.26000 0.73000   1
   5   3   1 27.4600 2.08000   1
   5   3   1 27.6700 1.73000   1
   5   3   1 24.3200 1.39000   1
  -5  -3  -1 24.7200 1.95000   1
   4   6  -4 36.1900 2.59000   1
   4   6  -4 34.9600 2.73000   1
   7  -2  -1 9.33000 0.83000   1
   7  -2  -1 9.70000 0.70000   1
  -7   2   1 7.84000 0.68000   1
  -7   2   1 8.04000 0.69000   1
  -7   2   1 10.0100 0.82000   1
   7  -2  -1 8.40000 0.66000   1
  -7   3   2 26.0200 1.41000   1
   7  -3  -2 26.7900 1.39000   1
   7  -3  -2 26.4000 1.67000   1
  -7   3   2 25.6900 1.40000   1
  -7   3   2 27.7800 1.50000   1
  -7   3   2 28.0900 1.55000   1
   6   3  -5 24.0900 2.15000   1
  -6  -3   5 24.2600 1.88000   1
   6   3  -5 24.2500 2.04000   1
  -2   5  -7 10.1600 1.30000   1
  -2   5  -7 10.5800 0.86000   1
  -2   5  -7 10.2100 0.66000   1
   2  -5   7 10.3600 0.85000   1
   2  -5   7 9.17000 0.54000   1
   0   0   8 9.37000 1.23000   1
   0   0  -8 11.0500 1.16000   1
   0   0  -8 9.39000 0.92000   1
   4   6  -3 1.30000 0.77000   1
   4   6  -3 2.34000 0.87000   1
   0   7   2 3.78000 0.92000   1
   0   7   2 3.48000 0.70000   1
   0  -7  -2 3.85000 0.92000   1
   0  -7  -2 3.39000 0.89000   1
  -1   1   8 15.9400 1.42000   1
   1  -1  -8 13.0900 1.34000   1
   1  -1  -8 13.5100 1.24000   1
  -3   8   0 3.21000 0.74000   1
   3  -8   0 2.69000 0.26000   1
   3  -8   0 2.79000 0.87000   1
  -3   8   0 4.27000 0.42000   1
   0  -5   8 37.1000 2.11000   1
   0   5  -8 44.3800 2.75000   1
   0   5  -8 46.7200 3.11000   1
   0   5  -8 47.4900 2.95000   1
   0  -5   8 42.2800 2.72000   1
   7   0  -4 34.6200 1.88000   1
   7   0  -4 37.0200 2.67000   1
  -7   0   4 38.2700 2.16000   1
  -7   0   4 37.4300 2.49000   1
   7   0  -4 39.3000 2.33000   1
   2  -8   4 3.32000 0.37000   1
   2  -8   4 4.16000 0.47000   1
  -2   8  -4 6.41000 0.80000   1
  -2   8  -4 4.61000 0.58000   1
  -1   3  -8 12.1800 1.38000   1
  -1   3  -8 13.0800 1.02000   1
   1  -3   8 11.5100 0.77000   1
   1  -3   8 13.5000 1.23000   1
  -6  -3   2 47.2400 3.03000   1
   6   3  -2 48.5500 3.33000   1
   6   3  -2 48.8600 3.31000   1
   1   8  -3 19.4700 1.36000   1
   1   8  -3 19.5400 1.69000   1
   7  -2  -4 2.85000 0.29000   1
  -7   2   4 5.19000 0.69000   1
  -7   2   4 3.95000 0.39000   1
   7  -2  -4 3.60000 0.74000   1
  -7   0   2 2.05000 0.58000   1
   7   0  -2 3.93000 0.75000   1
   7   0  -2 2.66000 0.62000   1
   7   0  -2 3.17000 0.64000   1
   7  -1  -1 33.9700 2.10000   1
   7  -1  -1 36.9200 1.94000   1
   7  -1  -1 34.7200 2.04000   1
  -7   1   1 32.7400 1.97000   1
  -7   1   1 29.4800 1.77000   1
   7  -3  -3 5.28000 0.69000   1
  -7   3   3 5.84000 0.63000   1
  -7   3   3 6.17000 0.47000   1
  -7   3   3 5.85000 0.60000   1
  -7   3   3 7.14000 0.68000   1
   7  -3  -3 5.97000 0.40000   1
  -2  -7   6 19.4000 1.72000   1
   2   7  -6 21.1400 1.67000   1
   3   0   6 1.58000 0.40000   1
   3   0   6 3.15000 0.80000   1
  -3   0  -6 2.10000 0.88000   1
   3   0   6 3.03000 0.42000   1
  -3   0  -6 2.22000 0.49000   1
   3   5   2 36.1200 2.45000   1
   3   5   2 35.1000 2.29000   1
  -3  -5  -2 35.4900 2.44000   1
  -1   2  -8 24.9200 1.55000   1
  -1   2  -8 23.6000 1.97000   1
   1  -2   8 21.8900 1.34000   1
   1  -2   8 21.2300 1.17000   1
   1  -2   8 22.7500 1.86000   1
  -5   7   0 34.1300 1.92000   1
  -5   7   0 32.1500 1.74000   1
   5  -7   0 34.8500 2.08000   1
  -7   3   1 4.22000 0.61000   1
  -7   3   1 2.62000 0.43000   1
  -7   3   1 3.05000 0.38000   1
  -7   3   1 3.13000 0.40000   1
   7  -3  -1 2.43000 0.56000   1
   7  -3  -1 1.62000 0.46000   1
   7  -3  -1 2.85000 0.45000   1
   2  -7  -3 25.2700 2.02000   1
   2  -7  -3 20.2000 1.19000   1
  -2   7   3 23.1000 1.45000   1
  -2   7   3 22.6900 1.80000   1
   5  -6   3 6.47000 0.43000   1
  -5   6  -3 6.37000 0.43000   1
  -5   6  -3 9.35000 0.91000   1
  -5   6  -3 7.45000 0.56000   1
  -5   6  -3 7.21000 0.54000   1
   4   5  -7 0.64000 0.83000   1
  -4  -5   7 1.26000 0.81000   1
   6   1   1 30.2600 2.11000   1
   6   1   1 26.2500 1.33000   1
   6   1   1 29.8600 1.75000   1
  -6  -1  -1 31.2600 2.09000   1
  -6  -1  -1 25.7600 1.49000   1
  -3   7   3 16.1400 1.14000   1
  -3   7   3 15.8300 1.01000   1
  -3   7   3 16.8100 1.49000   1
   3  -7  -3 17.3200 1.04000   1
   3  -7  -3 16.0400 1.61000   1
   5   1   3 4.98000 0.42000   1
  -5  -1  -3 7.10000 0.97000   1
  -5  -1  -3 4.41000 0.53000   1
   5   1   3 4.79000 0.93000   1
   5   1   3 5.38000 0.54000   1
   1   8  -4 0.27000 0.53000   1
  -1  -8   4 0.07000 0.47000   1
   1  -3  -7 8.31000 0.85000   1
  -1   3   7 8.28000 0.90000   1
   1  -3  -7 9.80000 1.12000   1
  -1   3   7 7.48000 1.00000   1
   5   5  -4 3.30000 1.01000   1
   5   5  -4 2.28000 0.87000   1
   4   6  -5 9.04000 1.29000   1
  -4  -6   5 8.71000 1.31000   1
   1   8  -2 1.08000 0.75000   1
   1   8  -2 0.74000 0.48000   1
  -6  -2   0 2.12000 0.70000   1
   6   2   0 1.56000 0.68000   1
   6   2   0 1.41000 0.77000   1
   6   2   0 1.30000 0.41000   1
   3  -8   3 2.45000 0.29000   1
  -3   8  -3 3.20000 0.50000   1
  -3   8  -3 4.93000 0.65000   1
   5  -1   4 36.9800 1.68000   1
   5  -1   4 39.1500 2.25000   1
  -5   1  -4 34.8500 2.35000   1
  -5   1  -4 29.4800 1.31000   1
   5  -1   4 28.2800 1.09000   1
  -5  -1   8 11.8800 1.40000   1
   5   1  -8 13.8400 0.92000   1
   5   1  -8 13.8800 1.54000   1
  -1  -3  -6 7.42000 0.80000   1
   1   3   6 6.91000 0.80000   1
   1   3   6 7.39000 1.00000   1
  -1  -3  -6 7.01000 1.05000   1
   5  -7   1 0.84000 0.42000   1
  -5   7  -1 0.74000 0.41000   1
  -5   7  -1 1.36000 0.44000   1
  -5   7  -1 0.87000 0.31000   1
   3   7  -4 81.9200 5.52000   1
   3   7  -4 84.3000 5.32000   1
   1  -4   8 0.56000 0.61000   1
   1  -4   8 0.30000 0.30000   1
  -1   4  -8 0.67000 0.72000   1
  -1   4  -8 0.63000 0.49000   1
   0   8  -5 19.9900 1.43000   1
   0  -8   5 18.2900 1.27000   1
  -3  -2  -5 0.59000 0.29000   1
  -3  -2  -5 0.45000 0.67000   1
   3   2   5 -0.1200 0.28000   1
   3   2   5 0.18000 0.65000   1
   3   2   5 -0.2600 0.36000   1
  -3  -2  -5 0.20000 0.47000   1
   3   7  -3 28.4400 2.10000   1
   3   7  -3 26.9700 2.21000   1
   5   5  -3 4.80000 0.95000   1
   5   5  -3 4.24000 1.11000   1
   6   0  -7 11.1500 0.64000   1
   6   0  -7 11.0700 1.39000   1
   6   0  -7 9.72000 0.51000   1
  -6   0   7 13.9300 1.29000   1
  -3   7  -5 8.43000 0.71000   1
   3  -7   5 9.14000 0.66000   1
  -3   7  -5 8.62000 0.63000   1
   3  -7   5 8.12000 0.64000   1
  -3   7  -5 9.54000 0.69000   1
  -3   7  -5 7.54000 1.08000   1
   5  -4  -6 2.02000 0.88000   1
  -5   4   6 2.70000 0.51000   1
   5  -5  -5 7.05000 1.07000   1
   5  -5  -5 6.09000 0.61000   1
  -5   5   5 5.87000 0.61000   1
  -5   5   5 5.47000 0.34000   1
  -4   0  -5 0.18000 0.28000   1
   4   0   5 0.95000 0.52000   1
  -4   0  -5 -0.4000 0.68000   1
   4   0   5 0.84000 0.28000   1
   4   0   5 0.06000 0.22000   1
   6  -4  -5 0.38000 0.28000   1
  -6   4   5 0.86000 0.39000   1
   6  -4  -5 0.87000 0.69000   1
  -5   7   1 32.0800 1.91000   1
   5  -7  -1 33.2800 2.05000   1
  -5   7   1 31.8100 1.89000   1
   1   6   3 13.6900 1.25000   1
  -1  -6  -3 13.2800 1.38000   1
   1   6   3 11.8000 1.36000   1
  -1  -6  -3 12.3200 1.29000   1
   4   3   3 4.19000 0.46000   1
   4   3   3 4.45000 0.80000   1
  -4  -3  -3 5.83000 1.01000   1
   4   3   3 5.79000 0.67000   1
   2   7   0 1.33000 0.89000   1
   2   7   0 3.24000 0.76000   1
   5   0  -8 0.50000 0.72000   1
   5   0  -8 0.06000 0.26000   1
  -5   0   8 0.49000 0.64000   1
   4   6  -2 24.9900 2.05000   1
   4   6  -2 24.7400 2.00000   1
   1  -8   5 0.22000 0.24000   1
   1  -8   5 0.35000 0.33000   1
  -1   8  -5 0.82000 0.68000   1
  -1   8  -5 -0.1800 0.47000   1
   6   1  -7 16.2800 1.41000   1
   6   1  -7 12.6500 0.76000   1
   6   1  -7 15.9700 1.67000   1
  -6  -1   7 13.1500 1.48000   1
   3   6  -7 1.97000 0.74000   1
  -3  -6   7 1.82000 0.81000   1
  -2   8   1 0.60000 0.48000   1
   2  -8  -1 1.42000 0.78000   1
   2  -8  -1 0.76000 0.25000   1
  -2   8   1 0.43000 0.66000   1
   2   2  -9 8.02000 0.85000   1
  -2  -2   9 7.56000 1.17000   1
   2   2  -9 7.79000 1.16000   1
  -2  -6  -2 19.2100 1.53000   1
   2   6   2 22.0500 1.74000   1
  -2  -6  -2 21.0600 1.81000   1
   2   6   2 21.3100 1.69000   1
   4   4  -8 30.9800 2.35000   1
  -4  -4   8 31.5500 2.43000   1
   4   4  -8 28.0100 1.93000   1
   4   4  -8 24.6500 2.29000   1
   0   8   0 17.1200 1.55000   1
   0   8   0 15.9800 1.16000   1
   3   5  -8 9.18000 1.31000   1
  -3  -5   8 8.44000 1.31000   1
   3   5  -8 10.1800 1.26000   1
   3   5  -8 9.70000 1.00000   1
   6  -6  -1 30.5900 1.81000   1
  -6   6   1 32.2200 1.82000   1
  -6   6   1 31.1900 1.66000   1
   5   5  -5 30.6300 2.57000   1
  -5  -5   5 31.9300 2.55000   1
   5   2  -8 23.0900 1.34000   1
  -5  -2   8 27.1100 2.13000   1
   5   2  -8 21.3600 1.94000   1
   5   2  -8 26.7200 2.17000   1
   2   2   6 1.08000 0.75000   1
  -2  -2  -6 1.26000 0.49000   1
  -2  -2  -6 0.75000 0.75000   1
   2   2   6 1.14000 0.47000   1
  -7   1   5 17.1300 1.36000   1
   7  -1  -5 17.8400 0.88000   1
   7  -1  -5 17.2900 1.40000   1
  -5  -4   0 25.7200 1.98000   1
   5   4   0 26.8300 1.78000   1
   5   4   0 23.2500 1.99000   1
  -5   5  -4 59.3900 3.15000   1
   5  -5   4 64.6500 3.39000   1
  -5   5  -4 53.7300 2.44000   1
  -5   5  -4 68.9400 4.18000   1
  -4  -4  -2 13.1400 1.36000   1
   4   4   2 13.1700 1.23000   1
   4   4   2 13.6000 1.41000   1
  -2   7  -6 14.2900 0.91000   1
   2  -7   6 14.3000 0.84000   1
   2  -7   6 18.0600 1.07000   1
  -2   7  -6 16.7100 1.06000   1
  -2   7  -6 17.4900 1.52000   1
  -3   2   8 8.87000 0.75000   1
   3  -2  -8 11.3300 1.29000   1
  -3   2   8 11.1100 1.16000   1
   3  -2  -8 9.64000 0.88000   1
  -2   0  -7 -0.4900 0.66000   1
   2   0   7 0.28000 0.36000   1
  -2   0  -7 0.31000 0.35000   1
   2   0   7 -0.3200 0.61000   1
   2   0   7 -0.0300 0.27000   1
  -6   6   0 1.14000 0.40000   1
  -6   6   0 1.14000 0.38000   1
   6  -6   0 1.54000 0.52000   1
  -6   6   0 1.20000 0.30000   1
   7   1  -3 1.87000 0.69000   1
   7   1  -3 1.02000 0.54000   1
  -7  -1   3 1.56000 0.54000   1
   7   1  -3 0.96000 0.79000   1
   0   5   5 20.1300 1.67000   1
   0  -5  -5 17.4000 1.56000   1
   0  -5  -5 20.4600 1.61000   1
   0   5   5 17.2900 1.48000   1
   6  -3  -6 15.7300 1.53000   1
  -6   3   6 13.7500 1.04000   1
   2   3  -9 16.6400 1.27000   1
  -2  -3   9 13.4400 1.47000   1
   2   3  -9 15.4900 1.54000   1
   7   0  -5 4.55000 0.89000   1
  -7   0   5 5.79000 0.90000   1
   7   0  -5 7.88000 0.98000   1
   7   0  -5 4.62000 0.43000   1
  -3   6  -6 17.2700 1.63000   1
  -3   6  -6 16.8300 1.12000   1
   3  -6   6 18.1700 1.09000   1
   3  -6   6 16.5600 0.83000   1
  -3   6  -6 18.8800 0.96000   1
   7   1  -4 12.9000 1.37000   1
  -7  -1   4 10.6500 0.93000   1
  -7  -1   4 14.7600 1.33000   1
   7   1  -4 10.9200 0.85000   1
   7   1  -4 13.0500 1.19000   1
   3   2  -9 16.5300 1.25000   1
   3   2  -9 19.6600 1.69000   1
  -3  -2   9 21.0600 1.82000   1
  -6   5  -2 15.2500 1.06000   1
  -6   5  -2 14.4300 0.81000   1
  -6   5  -2 13.3700 0.70000   1
  -6   5  -2 12.3000 0.63000   1
  -6   5  -2 13.0800 0.72000   1
   6  -5   2 14.7600 0.80000   1
  -7   2   0 9.86000 0.91000   1
  -7   2   0 9.02000 0.67000   1
   7  -2   0 12.5100 0.91000   1
   7  -2   0 10.2200 0.60000   1
  -6   1   7 2.29000 0.73000   1
   6  -1  -7 3.59000 0.94000   1
   5   4  -7 28.1500 2.10000   1
  -5  -4   7 26.8000 2.33000   1
   5   4  -7 25.2300 2.25000   1
   7   0  -1 39.3700 2.23000   1
   7   0  -1 41.1100 2.57000   1
  -7   0   1 41.9900 2.52000   1
   7   0  -1 39.2100 2.57000   1
   7  -3  -4 3.34000 0.21000   1
  -7   3   4 3.11000 0.42000   1
  -7   3   4 3.33000 0.28000   1
   7  -3  -4 4.77000 0.66000   1
  -7   3   4 5.70000 0.64000   1
   1  -1   8 1.13000 0.37000   1
   1  -1   8 1.57000 0.73000   1
  -1   1  -8 0.36000 0.76000   1
  -1   1  -8 2.06000 0.50000   1
  -6   5   4 0.03000 0.34000   1
   6  -5  -4 0.25000 0.19000   1
  -6   5   4 0.07000 0.12000   1
  -6   5   4 0.03000 0.10000   1
   6  -5  -4 0.03000 0.50000   1
  -3  -7   5 7.98000 1.25000   1
   3   7  -5 9.58000 1.33000   1
  -3   8   1 18.2900 1.56000   1
  -3   8   1 19.1700 1.08000   1
   3  -8  -1 18.1200 1.53000   1
   3  -8  -1 17.3600 0.91000   1
  -6   0  -2 29.4200 1.60000   1
   6   0   2 33.9900 1.86000   1
   6   0   2 31.4000 2.13000   1
  -6   0  -2 31.9900 2.21000   1
   6   0   2 27.6400 1.23000   1
  -7   4   2 7.26000 0.57000   1
  -7   4   2 8.95000 0.75000   1
  -7   4   2 8.19000 0.60000   1
   7  -4  -2 7.68000 0.70000   1
  -7   4   2 7.75000 0.54000   1
   7  -4  -2 7.01000 0.52000   1
   6   3  -6 2.26000 0.89000   1
   6   3  -6 1.14000 0.92000   1
  -6  -3   6 2.27000 0.88000   1
   1  -7  -3 0.30000 0.45000   1
  -1   7   3 0.94000 0.44000   1
  -1   7   3 1.20000 0.73000   1
   1  -7  -3 0.54000 0.76000   1
  -2  -1   9 0.33000 0.74000   1
   2   1  -9 0.35000 0.46000   1
   2   1  -9 0.90000 0.66000   1
   2  -2  -8 24.0000 1.52000   1
  -2   2   8 30.4900 2.08000   1
   2  -2  -8 22.9200 1.93000   1
   3   7  -2 59.4500 3.85000   1
   3   7  -2 59.8900 4.06000   1
  -4   7  -4 -0.4800 0.46000   1
  -4   7  -4 0.03000 0.31000   1
  -4   7  -4 0.07000 0.25000   1
   4  -7   4 0.08000 0.18000   1
  -4   7  -4 0.25000 0.18000   1
   7  -3   0 45.4000 2.44000   1
  -7   3   0 46.9200 2.67000   1
  -7   3   0 44.2800 2.48000   1
   7  -3   0 45.5300 2.14000   1
  -7   3   0 45.0100 2.44000   1
   0  -4  -6 3.13000 0.70000   1
   0  -4  -6 4.02000 0.83000   1
   0   4   6 3.26000 0.84000   1
   0   4   6 4.59000 0.73000   1
  -3  -1   9 83.2600 5.10000   1
  -3  -1   9 101.460 6.41000   1
   3   1  -9 96.1500 5.61000   1
   3   1  -9 93.1200 6.20000   1
  -1   8   1 27.5400 1.69000   1
   1  -8  -1 27.6000 2.19000   1
  -1   8   1 25.3800 2.04000   1
  -4  -2  -4 1.46000 0.76000   1
  -4  -2  -4 1.26000 0.41000   1
  -4  -2  -4 0.47000 0.32000   1
   4   2   4 1.05000 0.37000   1
   4   2   4 1.89000 0.77000   1
   4   2   4 1.48000 0.42000   1
  -7   4   1 29.1200 1.57000   1
  -7   4   1 28.1200 1.46000   1
  -7   4   1 28.8600 1.50000   1
   7  -4  -1 25.7100 1.37000   1
  -7   4   1 25.5600 1.47000   1
  -7   4   1 27.2300 1.45000   1
   7  -4  -1 29.3600 1.63000   1
  -1  -8   5 9.61000 0.98000   1
   1   8  -5 10.7700 1.23000   1
  -4   6  -5 40.0500 2.60000   1
  -4   6  -5 40.0500 2.04000   1
   4  -6   5 41.9200 2.19000   1
  -4   6  -5 37.0900 2.02000   1
  -4   6  -5 40.1200 1.79000   1
   4  -7  -3 1.30000 0.75000   1
  -4   7   3 0.41000 0.39000   1
  -4   7   3 2.29000 0.32000   1
   4  -7  -3 0.46000 0.30000   1
  -4   7   3 0.86000 0.68000   1
  -6   6   2 30.5400 1.63000   1
   6  -6  -2 32.2100 1.90000   1
  -6   6   2 30.7400 1.83000   1
  -6   6   2 28.4300 1.22000   1
  -6   6   2 30.9600 1.30000   1
   1   8  -1 58.9200 3.49000   1
   1   8  -1 61.8000 4.07000   1
   0  -7   7 20.5700 1.52000   1
   0   7  -7 20.8700 1.43000   1
   0   7  -7 18.6400 1.79000   1
   6   3  -1 -0.0300 0.67000   1
   6   3  -1 0.69000 0.54000   1
  -6  -3   1 -0.0900 0.58000   1
  -5  -5   2 28.9000 2.19000   1
   5   5  -2 30.9500 2.39000   1
   5   5  -2 27.5900 2.21000   1
   1   7  -7 39.9600 2.54000   1
  -1  -7   7 38.7800 2.42000   1
   1   7  -7 40.5100 2.91000   1
  -4   8  -1 40.5600 2.32000   1
  -4   8  -1 39.0800 2.24000   1
   4  -8   1 40.4700 2.44000   1
   1   2  -9 26.8700 1.90000   1
  -1  -2   9 25.1900 2.05000   1
   1   2  -9 23.5900 1.84000   1
  -5   7  -2 5.26000 0.49000   1
  -5   7  -2 6.60000 0.72000   1
  -5   7  -2 6.96000 0.64000   1
   1   3  -9 1.42000 0.57000   1
  -1  -3   9 0.62000 0.62000   1
   1   3  -9 1.48000 0.69000   1
  -7   2   5 15.3400 1.15000   1
   7  -2  -5 14.4900 1.43000   1
   5  -3  -7 15.1800 1.60000   1
  -5   3   7 14.7400 1.20000   1
   5  -3  -7 12.8700 0.51000   1
   7   1  -2 20.6800 1.52000   1
  -7  -1   2 20.2000 1.33000   1
   7   1  -2 18.2100 1.24000   1
   7   1  -2 18.6700 1.56000   1
   3   3  -9 3.94000 1.01000   1
  -3  -3   9 3.34000 0.94000   1
   3   3  -9 3.29000 0.63000   1
   3   3  -9 4.70000 0.92000   1
  -5   6   4 18.0700 1.42000   1
  -5   6   4 14.2800 0.74000   1
  -5   6   4 14.3800 0.94000   1
   5  -6  -4 13.9000 1.43000   1
   5  -6  -4 13.2400 0.75000   1
   0  -6  -4 35.7600 2.44000   1
   0  -6  -4 35.8800 2.47000   1
   0   6   4 36.0600 2.54000   1
   0   6   4 33.2700 2.17000   1
   6   2  -7 63.8200 4.36000   1
  -6  -2   7 67.5400 4.38000   1
   6   2  -7 60.6600 4.20000   1
   6   2  -7 55.3000 3.01000   1
   7  -1   0 3.39000 0.37000   1
   7  -1   0 4.24000 0.73000   1
  -7   1   0 3.14000 0.56000   1
   7  -1   0 4.34000 0.54000   1
  -7   1   0 4.09000 0.62000   1
   4   6  -6 3.06000 0.98000   1
  -4  -6   6 3.79000 0.99000   1
   1   6  -8 4.74000 0.96000   1
  -1  -6   8 2.85000 0.75000   1
   1   6  -8 5.54000 0.83000   1
  -4   2   8 29.5100 1.98000   1
   4  -2  -8 25.9400 2.13000   1
   4  -2  -8 27.3200 1.44000   1
  -4   2   8 25.0800 1.37000   1
  -3   5   6 0.61000 0.65000   1
  -3   5   6 -0.5100 0.39000   1
  -3   5   6 -0.1400 0.39000   1
   3  -5  -6 -0.5300 0.29000   1
   3  -5  -6 0.13000 0.68000   1
   4  -8   0 0.03000 0.06000   1
  -4   8   0 -0.1700 0.45000   1
  -4   8   0 0.41000 0.30000   1
   4  -8   0 -0.1300 0.48000   1
   4  -8   0 -0.0400 0.04000   1
  -5   1   8 13.6600 1.37000   1
   5  -1  -8 14.7300 1.59000   1
   5  -1  -8 12.8300 0.72000   1
  -7   4   3 10.6900 0.57000   1
   7  -4  -3 9.85000 0.52000   1
   7  -4  -3 11.6600 0.92000   1
  -7   4   3 9.66000 0.72000   1
  -7   4   3 11.0200 0.86000   1
   5  -7  -2 1.95000 0.65000   1
   5  -7  -2 2.02000 0.20000   1
  -5   7   2 2.65000 0.54000   1
  -5   7   2 2.05000 0.24000   1
  -5   7   2 2.50000 0.65000   1
  -1   5  -8 18.0600 1.42000   1
   1  -5   8 14.3500 0.93000   1
  -1   5  -8 19.2900 1.79000   1
  -1   5  -8 18.5000 1.21000   1
   1  -5   8 19.7800 1.35000   1
  -6   6  -1 37.9200 2.10000   1
  -6   6  -1 36.5300 2.02000   1
  -6   6  -1 32.0800 1.26000   1
  -6   6  -1 38.6200 2.02000   1
   6  -6   1 39.5300 2.07000   1
   2  -6   7 44.7900 2.26000   1
  -2   6  -7 49.1100 3.35000   1
  -2   6  -7 48.0400 2.53000   1
   2  -6   7 42.4000 2.46000   1
   6  -3   3 0.65000 0.38000   1
  -6   3  -3 1.11000 0.54000   1
  -6   3  -3 0.29000 0.14000   1
   7   1  -5 9.27000 1.00000   1
  -7  -1   5 5.95000 1.07000   1
   7   1  -5 8.43000 1.23000   1
   7   1  -5 6.62000 0.59000   1
  -4   8  -2 43.7700 2.40000   1
  -4   8  -2 46.0500 2.62000   1
  -2   8  -5 13.3300 1.32000   1
  -2   8  -5 13.1900 0.95000   1
   2  -8   5 10.3100 0.62000   1
   2  -8   5 10.9600 0.70000   1
  -3   8  -4 9.02000 1.05000   1
   3  -8   4 7.72000 0.61000   1
  -3   8  -4 8.50000 0.70000   1
   3  -8   4 8.39000 0.51000   1
   3  -8   4 6.96000 0.42000   1
   2   4  -9 15.0900 1.22000   1
   2   4  -9 13.0100 1.45000   1
   2   4  -9 11.9200 1.26000   1
  -2  -4   9 13.4500 1.42000   1
   5   3  -8 -0.1600 0.75000   1
   5   3  -8 -0.1900 0.38000   1
   5   3  -8 0.65000 0.70000   1
  -5  -3   8 -0.3100 0.68000   1
   0  -1  -8 1.16000 0.56000   1
   0  -1  -8 0.68000 0.66000   1
   0   1   8 0.65000 0.53000   1
   0   1   8 0.89000 0.72000   1
  -3  -6  -1 43.9300 3.18000   1
   3   6   1 41.6000 2.82000   1
   3   6   1 39.8700 2.68000   1
   5   5  -6 8.14000 1.28000   1
  -5  -5   6 7.63000 1.25000   1
  -3   6   5 2.73000 0.87000   1
  -3   6   5 2.77000 0.48000   1
  -3   6   5 2.36000 0.40000   1
   3  -6  -5 4.12000 0.91000   1
   3  -6  -5 4.18000 0.57000   1
  -2   5   6 13.7900 1.09000   1
   2  -5  -6 13.9100 1.04000   1
   2  -5  -6 14.4400 1.42000   1
  -2   5   6 16.1100 1.42000   1
  -6   2  -3 11.8200 0.59000   1
  -6   2  -3 16.1100 1.30000   1
   6  -2   3 13.8000 1.01000   1
  -4   3  -6 15.3300 1.55000   1
   4  -3   6 17.6500 1.38000   1
  -4   3  -6 16.7300 0.81000   1
   5   0   4 1.44000 0.33000   1
  -5   0  -4 0.98000 0.71000   1
  -5   0  -4 0.72000 0.26000   1
   5   0   4 0.97000 0.68000   1
   5   0   4 0.96000 0.21000   1
  -3   3  -7 20.4500 1.17000   1
  -3   3  -7 24.2200 1.92000   1
   3  -3   7 23.3900 1.51000   1
   3  -3   7 19.2400 0.75000   1
   2   6  -8 63.0600 4.22000   1
   2   6  -8 64.1500 4.23000   1
  -2  -6   8 64.8100 4.22000   1
   0  -6   8 5.74000 0.79000   1
   0   6  -8 5.64000 1.08000   1
   0   6  -8 7.17000 0.92000   1
   0   6  -8 5.57000 0.76000   1
   1   1  -9 1.77000 0.64000   1
   1   1  -9 2.65000 0.69000   1
  -1  -1   9 2.00000 0.80000   1
   4   5   1 7.27000 0.88000   1
  -4  -5  -1 5.05000 1.08000   1
   4   5   1 6.54000 1.03000   1
  -4  -6   1 4.04000 0.98000   1
   4   6  -1 2.96000 0.93000   1
   4   6  -1 3.77000 0.95000   1
   6   4  -4 4.60000 1.06000   1
   6   4  -4 2.65000 1.06000   1
  -7   4   0 0.12000 0.31000   1
  -7   4   0 -0.2700 0.35000   1
   7  -4   0 0.37000 0.32000   1
   7  -4   0 0.35000 0.24000   1
  -7   4   0 -0.2400 0.30000   1
  -7   4   0 0.13000 0.20000   1
   1   4  -9 16.5600 1.61000   1
   1   4  -9 17.5900 1.24000   1
   1   4  -9 17.6700 1.43000   1
  -1  -4   9 18.4400 1.60000   1
  -3   4   7 24.4700 1.61000   1
   3  -4  -7 27.0200 1.58000   1
  -3   4   7 23.0300 1.41000   1
   3  -4  -7 28.4300 2.06000   1
   3   0  -9 1.14000 0.78000   1
  -3   0   9 1.65000 0.71000   1
   3   0  -9 0.65000 0.45000   1
  -3   0   9 1.10000 0.35000   1
  -6   4  -3 -0.2300 0.32000   1
  -6   4  -3 0.03000 0.14000   1
   6  -4   3 0.13000 0.28000   1
  -6   4  -3 -0.2100 0.50000   1
  -6   4  -3 0.08000 0.12000   1
   1   2   7 0.27000 0.59000   1
   1   2   7 -0.0900 0.38000   1
  -1  -2  -7 0.01000 0.40000   1
  -1  -2  -7 0.07000 0.59000   1
   4  -5  -6 25.9100 2.08000   1
   4  -5  -6 26.2900 1.40000   1
  -4   5   6 24.1200 1.28000   1
  -4   5   6 24.8300 1.56000   1
  -4   4  -6 17.3300 0.86000   1
  -4   4  -6 20.7500 1.68000   1
   4  -4   6 17.9300 1.19000   1
  -2   6   5 14.9700 1.06000   1
  -2   6   5 17.1800 1.52000   1
   2  -6  -5 12.5800 1.04000   1
   2  -6  -5 16.3300 1.56000   1
  -6   2   7 28.3900 1.83000   1
   6  -2  -7 31.2200 2.39000   1
   3  -4   7 6.60000 0.75000   1
  -3   4  -7 11.0500 1.20000   1
  -3   4  -7 7.27000 0.63000   1
   2   0  -9 34.6300 2.48000   1
   2   0  -9 31.3900 1.90000   1
  -2   0   9 30.9200 2.28000   1
   4   2  -9 18.8900 1.70000   1
  -4  -2   9 19.7000 1.69000   1
   4   2  -9 15.8700 1.28000   1
  -1   7  -7 9.05000 1.11000   1
   1  -7   7 5.71000 0.52000   1
   1  -7   7 5.32000 0.68000   1
  -1   7  -7 6.79000 0.89000   1
   4   1  -9 11.5200 0.84000   1
   4   1  -9 12.4100 1.45000   1
  -4  -1   9 13.5600 1.41000   1
  -2  -7   7 0.96000 0.76000   1
   2   7  -7 2.63000 0.76000   1
   2   8  -3 -0.3400 0.68000   1
   2   8  -3 0.65000 0.57000   1
  -6  -4   3 28.6300 2.12000   1
   6   4  -3 28.6900 2.33000   1
   6   4  -3 32.3900 2.34000   1
   3   7  -6 5.17000 1.03000   1
  -3  -7   6 4.41000 0.92000   1
   2   8  -4 34.9300 2.32000   1
   2   8  -4 36.6300 2.61000   1
  -4   2  -6 5.61000 0.43000   1
  -4   2  -6 6.34000 0.98000   1
   4  -2   6 6.57000 0.87000   1
   1  -2  -8 6.38000 0.76000   1
  -1   2   8 6.26000 1.01000   1
   1  -2  -8 8.11000 1.01000   1
   3  -2   7 4.53000 0.32000   1
   3  -2   7 3.41000 0.44000   1
   3  -2   7 4.04000 0.29000   1
   3  -2   7 5.96000 0.90000   1
  -3   2  -7 6.04000 1.06000   1
  -3   2  -7 4.05000 0.51000   1
   0   8  -6 3.74000 0.79000   1
   0   8  -6 4.82000 1.08000   1
   0  -8   6 4.40000 0.62000   1
   3   1   6 4.29000 0.45000   1
   3   1   6 5.25000 0.63000   1
  -3  -1  -6 6.41000 1.00000   1
  -3  -1  -6 4.46000 0.66000   1
   3   1   6 5.70000 1.00000   1
   1   7   2 61.1000 3.87000   1
   1   7   2 60.7500 3.80000   1
  -1  -7  -2 65.5300 4.25000   1
  -1  -7  -2 58.6100 3.87000   1
   0   3   7 6.50000 1.02000   1
   0   3   7 5.35000 0.80000   1
   0  -3  -7 7.25000 0.94000   1
   0  -3  -7 8.07000 0.84000   1
   4  -8  -1 1.65000 0.80000   1
  -4   8   1 2.04000 0.68000   1
   4  -8  -1 1.36000 0.20000   1
  -4   8   1 1.80000 0.25000   1
   6   4  -5 20.3600 2.01000   1
  -6  -4   5 19.5900 1.92000   1
  -6   6   3 2.21000 0.30000   1
   6  -6  -3 2.01000 0.64000   1
   6  -6  -3 1.49000 0.24000   1
  -6   6   3 2.39000 0.37000   1
   3   7  -1 20.9900 1.77000   1
   3   7  -1 22.0500 1.83000   1
   7   0  -6 72.7800 4.74000   1
   7   0  -6 62.7600 3.20000   1
  -7   0   6 72.2600 4.50000   1
   2  -4  -7 33.0800 1.98000   1
   2  -4  -7 28.2500 2.24000   1
  -2   4   7 33.3900 2.32000   1
  -2   4   7 31.5100 2.13000   1
   3   4  -9 3.02000 0.74000   1
   3   4  -9 2.98000 0.80000   1
   3   4  -9 3.02000 1.00000   1
  -3  -4   9 1.65000 0.90000   1
  -4   6   5 19.9500 1.14000   1
  -4   6   5 20.3200 1.21000   1
  -4   6   5 17.4400 1.61000   1
   4  -6  -5 18.8000 1.76000   1
  -1   0  -8 10.9700 0.91000   1
  -1   0  -8 14.2400 1.36000   1
   1   0   8 10.6900 0.82000   1
   1   0   8 12.8500 1.32000   1
   7  -3  -5 3.64000 0.75000   1
  -7   3   5 3.89000 0.60000   1
  -7   1   6 39.6800 2.39000   1
   7  -1  -6 36.7300 2.60000   1
   7  -1  -6 32.0500 1.39000   1
  -7  -1   1 40.4000 2.53000   1
   7   1  -1 39.4500 2.19000   1
   7   1  -1 43.2700 2.55000   1
   7   1  -1 39.3300 2.65000   1
  -5   6  -4 33.8300 1.56000   1
  -5   6  -4 32.4600 1.63000   1
  -5   6  -4 30.8800 1.58000   1
  -5   6  -4 36.7900 2.27000   1
   5  -6   4 34.0800 1.67000   1
   7   2  -4 4.36000 0.69000   1
   7   2  -4 4.79000 0.81000   1
   7   2  -4 1.93000 0.95000   1
  -7  -2   4 1.24000 0.63000   1
  -4   4   7 7.87000 0.80000   1
   4  -4  -7 5.64000 0.50000   1
  -4   4   7 5.76000 0.49000   1
   4  -4  -7 7.46000 1.18000   1
   7   0   0 2.42000 0.39000   1
  -7   0   0 1.37000 0.38000   1
  -7   0   0 3.04000 0.64000   1
   7   0   0 1.96000 0.52000   1
   7   0   0 1.18000 0.61000   1
  -7   4   4 0.84000 0.40000   1
   7  -4  -4 0.60000 0.51000   1
  -7   4   4 1.18000 0.40000   1
   0  -8  -1 8.89000 1.22000   1
   0   8   1 7.74000 1.18000   1
   0   8   1 9.36000 0.86000   1
   5   3   2 30.0200 1.80000   1
   5   3   2 25.3900 1.44000   1
   5   3   2 29.5500 2.18000   1
  -5  -3  -2 28.3400 2.11000   1
   2  -8  -2 19.4500 1.75000   1
  -2   8   2 17.6700 1.30000   1
  -2   8   2 19.7700 1.59000   1
   2  -8  -2 14.6900 0.90000   1
   6   2   1 20.4100 1.65000   1
   6   2   1 18.9600 1.29000   1
  -6  -2  -1 19.2800 1.53000   1
   6   2   1 18.3900 1.11000   1
   7   2  -3 0.40000 0.52000   1
  -7  -2   3 0.51000 0.56000   1
   7   2  -3 0.79000 0.72000   1
   7   2  -3 1.36000 0.71000   1
   4   1   5 2.85000 0.38000   1
   4   1   5 2.02000 0.83000   1
  -4  -1  -5 2.75000 0.35000   1
   4   1   5 3.29000 0.48000   1
  -4  -1  -5 2.02000 0.47000   1
  -4  -1  -5 2.05000 0.89000   1
   0  -3   9 1.84000 0.39000   1
   0   3  -9 3.67000 0.61000   1
   0   3  -9 3.94000 0.84000   1
   0  -3   9 1.26000 0.66000   1
   5   5  -1 2.42000 0.92000   1
   5   5  -1 3.26000 0.94000   1
  -5  -5   1 7.23000 0.99000   1
  -6   1  -3 12.4800 0.71000   1
   6  -1   3 13.0200 1.17000   1
  -6   1  -3 11.4800 1.23000   1
   6  -1   3 14.9300 0.80000   1
  -1   8  -6 5.11000 0.75000   1
  -1   8  -6 4.47000 0.94000   1
   1  -8   6 4.66000 0.75000   1
   1  -8   6 5.28000 0.47000   1
  -4   8  -3 36.1000 1.96000   1
   4  -8   3 32.9300 1.84000   1
  -4   8  -3 38.4200 2.33000   1
  -7   3  -1 21.4200 1.20000   1
  -7   3  -1 24.5400 1.58000   1
   7  -3   1 23.1600 1.35000   1
  -7   3  -1 19.9200 1.19000   1
  -3   8   2 -0.9400 0.59000   1
  -3   8   2 -0.1200 0.38000   1
   3  -8  -2 -0.0500 0.26000   1
   3  -8  -2 -0.2700 0.71000   1
   1   8  -6 28.4300 2.08000   1
  -1  -8   6 26.7700 1.91000   1
  -7   2  -1 0.56000 0.31000   1
  -7   2  -1 0.99000 0.53000   1
   7  -2   1 0.54000 0.42000   1
   7  -2   1 0.51000 0.09000   1
   2   8  -2 30.5000 2.47000   1
   2   8  -2 33.4200 2.10000   1
   4   3  -9 2.71000 0.89000   1
   4   3  -9 2.57000 0.95000   1
   4   3  -9 2.90000 0.55000   1
  -4  -3   9 1.78000 0.93000   1
  -5   7  -3 7.37000 0.54000   1
  -5   7  -3 9.04000 0.69000   1
  -5   7  -3 7.08000 0.83000   1
   5  -7   3 6.01000 0.26000   1
  -5   7  -3 6.32000 0.30000   1
  -4  -5   8 1.07000 0.76000   1
   4   5  -8 0.75000 0.76000   1
   4   5  -8 0.60000 0.79000   1
   4   5  -8 -0.8800 0.59000   1
   1   8   0 26.1500 1.76000   1
   1   8   0 22.3900 1.98000   1
  -2  -7  -1 32.3000 2.56000   1
   2   7   1 35.1700 2.42000   1
   2   7   1 31.8900 2.43000   1
  -4   0   9 40.4400 2.70000   1
   4   0  -9 40.4800 2.92000   1
  -4   0   9 33.2600 1.93000   1
   4   0  -9 37.6300 2.14000   1
  -5   3  -5 53.6900 3.63000   1
   5  -3   5 60.4900 3.41000   1
   0  -2   9 13.2500 0.88000   1
   0  -2   9 15.6100 1.43000   1
   0   2  -9 14.7500 1.44000   1
   0   2  -9 15.2900 1.25000   1
   0  -7  -3 41.4100 2.73000   1
   0  -7  -3 44.2900 3.00000   1
   0   7   3 44.0900 3.05000   1
   0   7   3 43.3600 2.71000   1
   6   3  -7 83.3800 6.06000   1
   6   3  -7 85.4100 5.99000   1
  -6  -3   7 95.9700 6.43000   1
  -7   5   1 97.9000 5.45000   1
   7  -5  -1 91.1900 5.18000   1
   7  -5  -1 96.1300 5.52000   1
  -7   5   1 98.2300 5.19000   1
  -7   5   1 88.8400 5.19000   1
  -7   5   1 97.7500 5.19000   1
   5   2   3 2.59000 0.52000   1
   5   2   3 3.12000 0.43000   1
   5   2   3 3.39000 0.71000   1
  -5  -2  -3 2.69000 0.51000   1
  -5  -2  -3 3.11000 0.86000   1
   2   8  -5 16.1200 1.51000   1
  -2  -8   5 17.4400 1.55000   1
  -6   6  -2 -0.3500 0.32000   1
  -6   6  -2 -0.1200 0.35000   1
  -6   6  -2 0.00000 0.14000   1
   6  -6   2 0.19000 0.15000   1
  -6   6  -2 0.15000 0.25000   1
   2  -3   8 5.24000 0.82000   1
   2  -3   8 2.30000 0.28000   1
  -2   3  -8 1.96000 0.88000   1
  -2   3  -8 1.62000 0.43000   1
  -7   5   2 0.38000 0.23000   1
  -7   5   2 0.56000 0.30000   1
  -7   5   2 0.78000 0.29000   1
   7  -5  -2 0.53000 0.41000   1
  -2  -1  -7 18.6300 1.68000   1
   2   1   7 21.7500 1.76000   1
   2   1   7 18.8400 1.19000   1
  -2  -1  -7 17.8000 1.20000   1
   7   1  -6 2.05000 0.36000   1
   7   1  -6 1.98000 0.95000   1
  -7  -1   6 1.90000 0.83000   1
   7   1  -6 1.42000 0.82000   1
  -4   5  -6 6.37000 1.16000   1
   4  -5   6 6.85000 0.68000   1
  -4   5  -6 6.37000 0.49000   1
  -6  -1  -2 30.0900 1.79000   1
   6   1   2 32.8700 2.18000   1
  -6  -1  -2 34.2900 2.36000   1
   6   1   2 36.4000 2.00000   1
   6   1   2 30.5400 1.53000   1
   1  -9   2 11.6700 0.80000   1
  -1   9  -2 15.1100 1.37000   1
  -1   9  -2 15.7200 1.21000   1
   3  -5   7 6.29000 0.68000   1
   3  -5   7 4.61000 0.30000   1
  -3   5  -7 6.92000 1.02000   1
  -3   5  -7 5.92000 0.62000   1
  -1   9  -3 1.02000 0.66000   1
   1  -9   3 1.19000 0.39000   1
   1  -9   3 1.15000 0.27000   1
  -3   7   4 48.3500 2.86000   1
   3  -7  -4 68.1000 4.22000   1
  -3   7   4 52.2800 3.54000   1
  -3   7   4 55.0500 3.07000   1
   7   2  -5 11.4800 1.20000   1
   7   2  -5 10.3800 1.49000   1
  -7  -2   5 13.5800 1.44000   1
   5  -2  -8 24.3000 1.12000   1
  -5   2   8 24.2700 1.84000   1
   5  -2  -8 23.0200 2.09000   1
  -5   4  -5 63.7400 4.12000   1
   5  -4   5 67.2800 3.75000   1
   2  -9   2 53.8200 2.79000   1
   2  -9   2 59.7400 3.10000   1
  -2   9  -2 59.4700 3.69000   1
   6   4  -2 25.4800 2.16000   1
   6   4  -2 25.8900 1.94000   1
  -6  -4   2 25.4600 2.01000   1
   1  -5  -6 12.7600 1.07000   1
   1  -5  -6 15.3800 1.37000   1
  -1   5   6 9.32000 0.97000   1
  -1   5   6 12.5600 1.30000   1
  -2  -5  -4 15.4400 1.52000   1
  -2  -5  -4 14.2000 1.26000   1
   2   5   4 12.5900 1.36000   1
   2   5   4 15.2400 1.44000   1
  -6   4   6 28.4400 1.65000   1
   6  -4  -6 26.7100 2.05000   1
   2   4   5 8.61000 0.99000   1
  -2  -4  -5 3.16000 1.05000   1
  -2  -4  -5 4.43000 0.71000   1
   2   4   5 4.46000 0.73000   1
   0  -4   9 0.74000 0.41000   1
   0   4  -9 0.54000 0.52000   1
   0  -4   9 0.89000 0.68000   1
   0   4  -9 -0.4100 0.73000   1
  -6   5  -3 94.8500 5.27000   1
  -6   5  -3 77.8400 3.91000   1
   6  -5   3 106.140 5.69000   1
  -6   5  -3 98.6300 4.97000   1
  -6   5  -3 107.230 6.53000   1
   5  -7  -3 22.3200 1.07000   1
   5  -7  -3 30.0400 2.12000   1
  -5   7   3 26.5400 1.31000   1
  -5   7   3 24.9000 1.31000   1
  -5   7   3 27.5100 1.91000   1
   2  -4   8 15.2400 1.22000   1
  -2   4  -8 17.0900 1.59000   1
  -2   4  -8 15.2600 1.03000   1
   2  -4   8 12.8000 0.69000   1
   6   3   0 73.1300 4.39000   1
  -6  -3   0 67.0000 4.40000   1
   6   3   0 75.5400 4.88000   1
   3   4   4 21.1300 1.78000   1
   3   4   4 23.0800 1.53000   1
  -3  -4  -4 19.4300 1.80000   1
  -3  -4  -4 20.6500 1.38000   1
  -1   0   9 7.06000 1.09000   1
   1   0  -9 7.64000 0.85000   1
   1   0  -9 9.89000 1.07000   1
   6  -5  -5 45.1000 3.02000   1
   6  -5  -5 36.0200 2.08000   1
  -6   5   5 44.6500 2.33000   1
   4   6  -7 17.0700 1.65000   1
  -4  -6   7 13.0500 1.59000   1
  -5   2  -5 29.9400 2.21000   1
   5  -2   5 31.8500 1.96000   1
   5   4   1 31.8800 2.04000   1
   5   4   1 29.7000 2.29000   1
  -5  -4  -1 29.0000 2.25000   1
   2  -7  -4 13.1100 1.41000   1
  -2   7   4 14.1500 1.51000   1
  -2   7   4 15.7700 1.03000   1
  -7   2   6 0.90000 0.54000   1
   7  -2  -6 1.60000 0.70000   1
   2   5  -9 0.17000 0.59000   1
   2   5  -9 -0.1700 0.71000   1
   2   5  -9 0.40000 0.65000   1
  -2  -5   9 0.42000 0.60000   1
  -3  -6   8 5.26000 1.08000   1
   3   6  -8 8.14000 1.10000   1
   3   6  -8 5.79000 0.96000   1
   2  -2   8 0.05000 0.58000   1
   2  -2   8 -0.1100 0.27000   1
  -2   2  -8 0.11000 0.44000   1
   2  -2   8 -0.1000 0.24000   1
   2  -2   8 -0.2100 0.23000   1
  -2   2  -8 -0.4600 0.69000   1
  -1   6  -8 48.9200 3.40000   1
  -1   6  -8 49.4000 2.91000   1
   1  -6   8 41.7000 2.28000   1
   1  -6   8 47.7500 2.84000   1
  -1   6  -8 47.4100 2.64000   1
   1   5  -9 62.6600 3.75000   1
   1   5  -9 59.9000 4.11000   1
   1   5  -9 68.3700 4.37000   1
  -1  -5   9 59.4000 3.94000   1
  -3   7  -6 2.21000 0.39000   1
   3  -7   6 1.51000 0.31000   1
   3  -7   6 2.02000 0.48000   1
  -3   7  -6 1.32000 0.75000   1
  -3   7  -6 1.51000 0.42000   1
  -1   6   5 1.29000 0.59000   1
   1  -6  -5 0.61000 0.74000   1
  -1   6   5 1.13000 0.78000   1
   1  -6  -5 1.45000 0.63000   1
  -4   1  -6 3.60000 0.38000   1
  -4   1  -6 2.56000 0.94000   1
   4  -1   6 4.36000 0.89000   1
   4  -1   6 3.40000 0.32000   1
   4  -1   6 3.04000 0.33000   1
   3  -1   7 5.78000 0.55000   1
   3  -1   7 6.57000 0.49000   1
   3  -1   7 6.31000 0.84000   1
  -3   1  -7 8.71000 1.15000   1
  -3   1  -7 5.46000 0.62000   1
   6   4  -6 38.1500 3.07000   1
   6   4  -6 37.2300 3.01000   1
  -6  -4   6 41.7000 3.07000   1
  -2   9  -3 90.4100 5.49000   1
   2  -9   3 93.6100 5.02000   1
   2  -9   3 75.1700 4.02000   1
  -7   4  -1 50.3800 2.79000   1
   7  -4   1 54.6000 2.46000   1
  -7   4  -1 51.8600 2.77000   1
  -7   4  -1 57.3800 3.14000   1
   7  -4   1 58.0300 3.03000   1
  -7   4  -1 53.2200 2.49000   1
  -7  -2   2 12.7800 1.06000   1
   7   2  -2 11.7700 1.24000   1
   7   2  -2 14.5800 1.39000   1
  -2   9  -1 56.7500 3.05000   1
   2  -9   1 52.2700 2.72000   1
  -2   9  -1 55.5800 3.58000   1
  -3   3   8 9.96000 0.84000   1
  -3   3   8 14.6900 1.14000   1
   3  -3  -8 14.1800 1.05000   1
   3  -3  -8 14.0400 1.44000   1
  -7   1  -1 1.23000 0.43000   1
   7  -1   1 2.53000 0.24000   1
   7  -1   1 1.72000 0.20000   1
   7  -1   1 2.88000 0.58000   1
   7  -1   1 3.42000 0.52000   1
  -7   1  -1 1.93000 0.65000   1
   1  -8  -2 0.53000 0.68000   1
  -1   8   2 0.40000 0.68000   1
  -1   8   2 0.01000 0.35000   1
  -7   5   0 27.7100 1.61000   1
  -7   5   0 29.2800 1.43000   1
  -7   5   0 30.6400 1.71000   1
  -7   5   0 31.3200 1.52000   1
  -7   5   0 29.4500 1.52000   1
   7  -5   0 31.0500 1.62000   1
  -6  -1   8 34.9000 2.58000   1
   6   1  -8 30.1100 1.57000   1
   6   1  -8 31.5900 1.67000   1
   6   1  -8 34.4000 2.61000   1
  -5  -4   8 0.01000 0.75000   1
   5   4  -8 0.86000 0.73000   1
   5   4  -8 -0.4100 0.78000   1
  -5  -5   7 -0.3200 0.71000   1
   5   5  -7 0.57000 0.76000   1
   6   0  -8 32.3900 1.53000   1
  -6   0   8 37.2300 2.57000   1
   6   0  -8 32.5600 1.57000   1
   6   0  -8 34.7200 2.69000   1
  -3  -5  -3 0.29000 0.72000   1
  -3  -5  -3 0.32000 0.47000   1
   3   5   3 0.13000 0.65000   1
   3   5   3 1.09000 0.54000   1
  -3   1   9 26.8800 1.92000   1
  -3   1   9 26.1400 1.53000   1
   3  -1  -9 29.4600 1.75000   1
   3  -1  -9 32.8800 2.36000   1
  -5   5   6 23.3800 1.06000   1
   5  -5  -6 27.0600 2.13000   1
  -5   5   6 27.6700 1.50000   1
   0   9  -3 8.02000 1.10000   1
   0   9  -3 6.67000 0.69000   1
  -1   9  -1 1.17000 0.70000   1
   1  -9   1 0.70000 0.36000   1
  -1   9  -1 1.03000 0.46000   1
  -7   5   3 31.2500 1.43000   1
   7  -5  -3 30.8000 1.88000   1
  -7   5   3 29.4400 1.53000   1
  -7   5   3 32.4600 1.68000   1
  -4   7  -5 18.6500 1.04000   1
   4  -7   5 17.8000 0.91000   1
  -4   7  -5 17.8600 1.03000   1
  -4   7  -5 22.6700 1.69000   1
  -4   7  -5 20.5000 1.03000   1
   4  -7   5 21.3500 1.11000   1
  -1   9  -4 46.5200 2.85000   1
   1  -9   4 33.9500 1.84000   1
   1  -9   4 42.4600 2.45000   1
   0   1  -9 8.47000 0.89000   1
   0   1  -9 7.54000 1.04000   1
   0  -1   9 7.41000 1.00000   1
  -1  -5  -5 0.26000 0.64000   1
  -1  -5  -5 0.45000 0.59000   1
   1   5   5 0.45000 0.59000   1
   1   5   5 -0.6600 0.60000   1
  -3  -3  -5 13.9400 1.47000   1
  -3  -3  -5 11.7500 0.94000   1
   3   3   5 14.5100 1.40000   1
   3   3   5 13.5400 1.00000   1
   3  -8   5 59.0500 3.03000   1
   3  -8   5 54.4000 3.12000   1
  -3   8  -5 54.9600 2.88000   1
  -3   8  -5 63.1600 3.97000   1
  -3   8  -5 59.5800 3.22000   1
  -4   7   4 16.4300 1.00000   1
  -4   7   4 15.9400 1.04000   1
  -4   7   4 16.8700 1.52000   1
   4  -7  -4 20.0500 1.73000   1
   4  -7  -4 14.7900 0.98000   1
  -1   4   7 0.93000 0.60000   1
  -1   4   7 0.53000 0.66000   1
   1  -4  -7 -0.2300 0.67000   1
   1  -4  -7 1.07000 0.59000   1
  -4   8   2 8.85000 0.61000   1
  -4   8   2 10.9200 1.16000   1
   4  -8  -2 9.07000 1.26000   1
   4  -8  -2 8.77000 0.52000   1
  -6   7   0 -0.0300 0.34000   1
   6  -7   0 -0.1100 0.37000   1
  -6   7   0 0.13000 0.26000   1
   0   9  -2 3.15000 0.86000   1
   0   9  -2 2.45000 0.49000   1
  -2   1   9 4.01000 0.87000   1
   2  -1  -9 5.13000 0.92000   1
   2  -1  -9 3.68000 0.64000   1
   4  -3  -8 0.36000 0.75000   1
   4  -3  -8 0.69000 0.36000   1
  -4   3   8 0.88000 0.29000   1
  -4   3   8 1.76000 0.53000   1
   2  -3  -8 19.5800 1.71000   1
  -2   3   8 20.0100 1.58000   1
   2  -3  -8 17.4200 1.30000   1
   6  -7  -1 20.3900 1.41000   1
  -6   7   1 19.7100 1.16000   1
  -6   7   1 20.1200 1.17000   1
   6  -3  -7 9.83000 1.41000   1
  -6   3   7 10.7500 0.98000   1
   4   6   0 12.2100 1.42000   1
   4   6   0 12.1000 1.38000   1
  -4  -6   0 10.0000 1.35000   1
  -5   5  -5 1.75000 0.21000   1
  -5   5  -5 2.53000 0.24000   1
  -5   5  -5 2.40000 0.78000   1
   5  -5   5 2.52000 0.44000   1
  -5   5  -5 1.55000 0.45000   1
  -2  -6  -3 3.26000 0.98000   1
  -2  -6  -3 2.77000 0.77000   1
   2   6   3 4.21000 0.78000   1
   2   6   3 5.70000 0.87000   1
   0   9  -4 1.58000 0.74000   1
   0  -9   4 1.74000 0.49000   1
  -5   4   7 23.8200 1.55000   1
  -5   4   7 18.6500 0.83000   1
   5  -4  -7 24.7700 2.01000   1
  -2   7  -7 4.99000 0.95000   1
   2  -7   7 3.96000 0.73000   1
   2  -7   7 4.92000 0.48000   1
  -2   7  -7 4.97000 0.66000   1
  -2  -3  -6 40.7300 2.60000   1
   2   3   6 31.7900 2.40000   1
   2   3   6 36.8900 2.18000   1
  -2  -3  -6 36.8700 2.15000   1
   2   8  -1 55.1400 3.90000   1
   2   8  -1 56.8400 3.48000   1
   5  -8   0 30.9600 2.10000   1
  -5   8   0 28.5800 1.59000   1
  -5   8   0 30.4500 1.82000   1
  -5  -1  -4 33.9700 1.89000   1
   5   1   4 41.3300 2.18000   1
   5   1   4 34.9200 1.77000   1
  -5  -1  -4 35.8500 2.51000   1
   5   1   4 40.1200 2.65000   1
   4   7  -4 12.9000 1.53000   1
   4   7  -4 12.9000 1.44000   1
  -5   6   5 18.5500 0.96000   1
  -5   6   5 19.2600 1.33000   1
  -5   6   5 20.3600 1.62000   1
   5  -6  -5 21.0600 1.78000   1
   5  -6  -5 15.3600 0.92000   1
   2  -5   8 6.74000 0.83000   1
   2  -5   8 5.34000 0.42000   1
  -2   5  -8 7.74000 1.16000   1
  -2   5  -8 7.15000 0.69000   1
   3   7  -7 23.6800 1.91000   1
  -3  -7   7 25.3400 2.05000   1
  -5   8  -1 9.49000 0.71000   1
   5  -8   1 12.9400 1.02000   1
  -5   8  -1 12.7400 0.90000   1
   1   4   6 22.3200 1.74000   1
   1   4   6 23.2300 1.53000   1
  -1  -4  -6 21.7900 1.89000   1
  -1  -4  -6 20.6400 1.58000   1
   3  -9   2 0.22000 0.20000   1
   3  -9   2 0.17000 0.16000   1
  -3   9  -2 -0.0200 0.43000   1
  -3   9  -2 0.31000 0.40000   1
  -2   8  -6 17.4600 1.47000   1
  -2   8  -6 11.2800 0.91000   1
  -2   8  -6 16.2900 1.28000   1
   2  -8   6 13.5400 0.89000   1
   6   2  -8 3.29000 0.45000   1
   6   2  -8 2.90000 0.93000   1
   6   2  -8 1.45000 0.33000   1
   6   2  -8 2.66000 0.97000   1
  -6  -2   8 3.86000 0.92000   1
   4   4  -9 7.65000 1.15000   1
   4   4  -9 8.24000 0.85000   1
  -4  -4   9 8.54000 1.21000   1
   4   4  -9 6.67000 1.07000   1
   5   6  -4 10.3100 1.29000   1
   5   6  -4 9.49000 1.45000   1
  -5  -1   9 9.56000 1.09000   1
   5   1  -9 8.18000 0.74000   1
   5   1  -9 9.19000 1.38000   1
  -3   9  -1 13.0300 1.22000   1
   3  -9   1 10.9400 0.55000   1
   3  -9   1 14.7100 1.25000   1
   3  -9   1 11.7500 0.67000   1
  -4   1   9 9.46000 0.74000   1
   4  -1  -9 10.6300 0.85000   1
  -4   1   9 13.9700 1.20000   1
   4  -1  -9 15.1200 1.51000   1
  -6   6   4 39.4100 1.76000   1
  -6   6   4 44.5000 2.04000   1
  -6   6   4 45.4800 2.31000   1
   6  -6  -4 44.1400 2.82000   1
   6  -6  -4 41.6100 2.13000   1
   2   8  -6 29.0500 2.28000   1
  -2  -8   6 28.2500 2.16000   1
   3   5  -9 8.95000 1.19000   1
   3   5  -9 8.25000 1.23000   1
   3   5  -9 10.0100 1.14000   1
  -3  -5   9 12.3900 1.39000   1
   7   2  -6 7.61000 1.13000   1
   7   2  -6 6.02000 1.18000   1
  -7  -2   6 8.48000 1.12000   1
   7   2  -6 4.98000 0.50000   1
  -1  -6  -4 16.2200 1.54000   1
   1   6   4 14.3300 1.31000   1
   1   6   4 14.8100 1.37000   1
  -1  -6  -4 15.1100 1.43000   1
   6   0   3 25.4000 1.39000   1
  -6   0  -3 20.9200 1.18000   1
   6   0   3 22.8500 1.59000   1
  -6   0  -3 21.4700 1.72000   1
  -6   1   8 14.6100 1.16000   1
   6  -1  -8 11.7100 0.52000   1
   6  -1  -8 11.5300 1.33000   1
   6  -1  -8 10.4700 0.47000   1
   0  -5   9 0.45000 0.64000   1
   0   5  -9 1.28000 0.54000   1
   0   5  -9 0.50000 0.46000   1
   0   5  -9 0.81000 0.79000   1
  -4  -4  -3 5.49000 1.08000   1
   4   4   3 7.85000 1.08000   1
   4   4   3 5.19000 0.88000   1
  -1  -7   8 30.5000 2.09000   1
   1   7  -8 30.3700 2.37000   1
   1   7  -8 29.9300 2.00000   1
  -2   9  -4 5.81000 0.92000   1
  -2   9  -4 4.31000 0.67000   1
   2  -9   4 3.03000 0.36000   1
   2  -9   4 3.87000 0.48000   1
   5   2  -9 8.99000 1.41000   1
  -5  -2   9 11.8900 1.31000   1
   5   2  -9 8.61000 0.76000   1
   5   2  -9 8.43000 1.02000   1
   5  -1   5 0.66000 0.16000   1
   5  -1   5 1.51000 0.66000   1
   5  -1   5 0.92000 0.21000   1
  -5   1  -5 0.98000 0.69000   1
   3   7   0 26.9300 2.27000   1
   3   7   0 27.9200 2.18000   1
  -3  -7   0 31.7700 2.44000   1
   7   1   0 61.3000 3.36000   1
   7   1   0 70.8100 4.14000   1
  -7  -1   0 68.1000 4.22000   1
   7   1   0 70.8400 4.51000   1
   4   7  -3 32.6700 2.51000   1
   4   7  -3 31.7800 2.35000   1
  -6   7  -1 13.2000 0.85000   1
   6  -7   1 15.4100 1.14000   1
  -6   7  -1 15.2600 1.01000   1
  -6   7  -1 15.8600 0.96000   1
  -7   4   5 6.00000 0.68000   1
   7  -4  -5 7.19000 1.03000   1
   4   7  -5 40.9500 3.12000   1
  -4  -7   5 45.6400 3.35000   1
   5   6  -5 15.3800 1.75000   1
  -5  -6   5 16.3900 1.75000   1
   2  -1   8 5.92000 0.95000   1
  -2   1  -8 7.19000 1.10000   1
  -2   1  -8 6.05000 0.63000   1
   2  -1   8 6.00000 0.55000   1
   2  -1   8 4.49000 0.49000   1
   2  -1   8 5.00000 0.48000   1
   2  -9   0 0.18000 0.25000   1
  -2   9   0 -0.8500 0.53000   1
  -2   9   0 -0.0700 0.40000   1
   2  -9   0 -0.2000 0.70000   1
  -4   8  -4 12.1100 0.89000   1
   4  -8   4 10.6100 0.67000   1
   4  -8   4 12.0200 0.58000   1
  -4   8  -4 13.0200 1.24000   1
   4  -8   4 9.29000 0.47000   1
   0  -2  -8 24.8600 1.71000   1
   0  -2  -8 25.5800 1.87000   1
   0   2   8 26.2100 1.79000   1
   0   2   8 26.3100 1.95000   1
  -1   7   4 9.77000 1.23000   1
   1  -7  -4 8.37000 1.17000   1
   1  -7  -4 10.1300 1.07000   1
  -1   7   4 7.98000 0.80000   1
   4   3   4 31.2500 1.84000   1
   4   3   4 31.7000 2.42000   1
  -4  -3  -4 32.8400 1.92000   1
  -4  -3  -4 29.8000 2.39000   1
   5   6  -3 47.0800 3.23000   1
   5   6  -3 49.0900 3.49000   1
   0   7  -8 3.48000 0.97000   1
   0   7  -8 2.97000 0.70000   1
   0  -7   8 5.11000 0.79000   1
   4  -6   6 4.60000 0.63000   1
  -4   6  -6 6.17000 0.87000   1
  -4   6  -6 5.56000 0.57000   1
  -4   6  -6 4.05000 0.47000   1
  -4   6  -6 4.45000 0.44000   1
  -5   0   9 3.19000 0.70000   1
   5   0  -9 1.28000 0.38000   1
   5   0  -9 1.44000 0.92000   1
  -3   6  -7 1.39000 0.83000   1
   3  -6   7 1.91000 0.25000   1
  -3   6  -7 2.43000 0.46000   1
  -3   6  -7 2.52000 0.35000   1
   3  -6   7 2.40000 0.48000   1
  -6  -4   1 38.9800 2.66000   1
   6   4  -1 39.9700 2.65000   1
   6   4  -1 36.8700 2.80000   1
   5  -8  -1 3.28000 0.85000   1
  -5   8   1 4.72000 0.59000   1
  -5   8   1 2.94000 0.52000   1
   7   0  -7 11.3000 0.67000   1
   7   0  -7 13.6700 1.45000   1
   7   0  -7 11.3200 0.58000   1
  -7   0   7 13.1800 1.34000   1
  -6   7   2 0.44000 0.38000   1
   6  -7  -2 1.03000 0.57000   1
  -6   7   2 0.38000 0.37000   1
  -6   7   2 0.19000 0.12000   1
  -6   7   2 0.40000 0.13000   1
   1   1   8 2.86000 0.49000   1
   1   1   8 4.14000 0.92000   1
  -1  -1  -8 3.58000 0.57000   1
  -1  -1  -8 3.41000 0.84000   1
   3  -9   3 42.6100 1.97000   1
   3  -9   3 54.9600 2.56000   1
  -3   9  -3 57.9900 3.52000   1
  -3   9  -3 53.3900 2.93000   1
   7  -3  -6 0.95000 0.72000   1
  -7   3   6 2.00000 0.57000   1
  -7   5  -1 49.2400 2.44000   1
   7  -5   1 51.6400 2.47000   1
   7  -5   1 48.8600 2.39000   1
  -7   5  -1 51.8900 2.75000   1
  -7   5  -1 44.7100 2.42000   1
  -7   5  -1 44.8100 2.17000   1
   0  -8   7 4.32000 0.69000   1
   0   8  -7 5.50000 0.75000   1
   0   8  -7 7.09000 1.15000   1
   0   9  -1 6.17000 0.65000   1
   0   9  -1 7.96000 1.11000   1
   5   5   0 9.94000 1.16000   1
   5   5   0 6.91000 1.19000   1
  -5  -5   0 8.58000 1.17000   1
  -5   8  -2 2.54000 0.51000   1
  -5   8  -2 3.13000 0.45000   1
   7   2  -1 8.11000 0.91000   1
   7   2  -1 7.03000 1.00000   1
  -7  -2   1 9.01000 1.05000   1
  -7   0  -1 50.2600 3.01000   1
   7   0   1 54.1800 2.67000   1
   7   0   1 61.6400 3.09000   1
  -7   0  -1 60.2300 3.57000   1
   7   0   1 57.4800 3.55000   1
   7   0   1 60.8600 3.48000   1
   3   6   2 0.63000 0.69000   1
   3   6   2 -0.0600 0.64000   1
  -3  -6  -2 0.36000 0.76000   1
   7   3  -4 12.9400 1.37000   1
   7   3  -4 10.1200 1.28000   1
   7   3  -4 9.42000 1.38000   1
  -7  -3   4 10.8600 1.04000   1
  -3   9   0 40.0900 1.98000   1
  -3   9   0 37.6600 2.58000   1
   3  -9   0 33.3700 1.63000   1
   3  -9   0 37.7400 2.73000   1
  -6   3  -4 53.7600 3.41000   1
   6  -3   4 52.5100 3.01000   1
  -1   9   0 11.0800 1.28000   1
   1  -9   0 11.0400 1.42000   1
  -1   9   0 11.8300 0.93000   1
   6  -6   3 20.0900 0.98000   1
  -6   6  -3 21.5300 1.57000   1
  -6   6  -3 19.9800 1.05000   1
  -6   6  -3 22.5000 1.10000   1
  -6   6  -3 20.0500 1.01000   1
  -6   6  -3 19.1600 0.97000   1
   7  -1  -7 1.45000 0.88000   1
  -7   1   7 2.14000 0.73000   1
   7  -5  -4 6.39000 0.81000   1
  -7   5   4 6.21000 0.62000   1
  -7   5   4 4.78000 0.53000   1
   1  -9   5 66.6500 3.64000   1
  -1   9  -5 70.5900 4.53000   1
  -1   9  -5 64.6500 3.94000   1
   1  -9   5 50.3600 2.86000   1
   2   7  -8 5.81000 1.10000   1
   2   7  -8 7.81000 0.97000   1
  -2  -7   8 6.02000 1.04000   1
  -5   7  -4 1.97000 0.39000   1
  -5   7  -4 2.93000 0.67000   1
  -5   7  -4 1.09000 0.23000   1
   5  -7   4 1.70000 0.26000   1
  -5   7  -4 1.37000 0.32000   1
  -1  -8   7 14.0800 1.16000   1
   1   8  -7 12.1100 1.15000   1
   1   8  -7 11.9700 1.57000   1
   1  -3   9 6.49000 0.95000   1
   1  -3   9 4.48000 0.50000   1
  -1   3  -9 7.20000 0.68000   1
  -1   3  -9 8.08000 1.12000   1
   7   1  -7 63.8700 3.52000   1
   7   1  -7 73.7200 5.08000   1
  -7  -1   7 74.0900 4.77000   1
   7   1  -7 69.2800 4.72000   1
   4   5   2 0.59000 0.68000   1
   4   5   2 0.61000 0.66000   1
  -4  -5  -2 0.36000 0.80000   1
   7  -3   2 4.08000 0.58000   1
  -7   3  -2 6.88000 0.83000   1
  -7   3  -2 4.89000 0.38000   1
   0  -9   5 8.76000 0.83000   1
   0   9  -5 7.75000 0.94000   1
   6   4  -7 8.75000 1.34000   1
   6   4  -7 6.46000 1.30000   1
  -6  -4   7 7.23000 1.28000   1
  -1  -8  -1 31.1200 2.07000   1
   1   8   1 33.6000 2.23000   1
   1   8   1 33.6600 2.48000   1
  -8   2   3 9.38000 0.78000   1
  -8   2   3 10.2900 0.83000   1
   8  -2  -3 9.70000 0.82000   1
   8  -2  -3 8.08000 0.61000   1
   4   0   6 33.3300 1.66000   1
  -4   0  -6 30.1700 2.44000   1
  -4   0  -6 31.3200 1.68000   1
   4   0   6 35.4600 2.50000   1
   4   0   6 29.7300 1.56000   1
   3   0   7 27.4200 2.06000   1
   3   0   7 22.5200 1.34000   1
  -3   0  -7 26.3900 2.10000   1
   3   0   7 27.2500 1.50000   1
  -3   0  -7 26.9400 1.62000   1
  -6   4  -4 12.2200 1.22000   1
   6  -4   4 11.8000 0.88000   1
  -8   1   3 1.08000 0.55000   1
   8  -1  -3 1.41000 0.47000   1
   8  -1  -3 1.30000 0.43000   1
   8  -1  -3 1.85000 0.53000   1
  -8   1   3 1.72000 0.56000   1
   1   9  -3 15.2700 1.56000   1
   1   9  -3 16.4300 1.17000   1
   3   2   6 12.8500 1.40000   1
   3   2   6 12.0300 0.93000   1
  -3  -2  -6 12.1400 1.47000   1
  -3  -2  -6 12.0100 1.06000   1
   3  -8  -3 15.5100 0.91000   1
  -3   8   3 21.2700 1.70000   1
  -3   8   3 17.8600 1.29000   1
   3  -8  -3 15.7500 1.67000   1
   3   8  -4 15.3500 1.55000   1
   3   8  -4 15.0300 1.44000   1
   7   3  -5 23.8200 2.12000   1
  -7  -3   5 21.4900 1.99000   1
   7   3  -5 23.3200 1.77000   1
  -7  -3   3 48.1600 3.06000   1
   7   3  -3 50.1600 3.56000   1
   7   3  -3 47.9700 3.40000   1
   1  -1  -9 1.38000 0.58000   1
  -1   1   9 2.20000 0.76000   1
   1  -1  -9 0.73000 0.70000   1
   5   3  -9 33.7100 2.01000   1
   5   3  -9 35.5100 2.88000   1
  -5  -3   9 36.8600 2.76000   1
   5   3  -9 40.8000 2.88000   1
   0  -8  -2 25.0800 2.05000   1
   0   8   2 24.1600 2.08000   1
   0   8   2 28.2800 1.71000   1
   0   0  -9 1.31000 0.71000   1
   0   0  -9 1.52000 0.56000   1
   0   0   9 1.39000 0.83000   1
  -7   2  -2 21.2600 1.14000   1
  -7   2  -2 25.0400 1.62000   1
   7  -2   2 24.1800 1.53000   1
   1  -4   9 23.6500 1.76000   1
  -1   4  -9 24.0400 1.45000   1
   1  -4   9 20.0800 1.20000   1
  -1   4  -9 25.2800 2.02000   1
   8  -2  -2 3.36000 0.57000   1
  -8   2   2 4.22000 0.70000   1
   8  -2  -2 4.45000 0.62000   1
   8  -2  -2 3.10000 0.42000   1
   1   9  -4 7.55000 1.14000   1
  -1  -9   4 7.14000 0.86000   1
  -5  -6   6 34.6100 2.70000   1
   5   6  -6 33.0600 2.70000   1
  -7   6   1 1.41000 0.18000   1
  -7   6   1 2.84000 0.45000   1
   7  -6  -1 1.79000 0.46000   1
  -6   2  -4 0.03000 0.10000   1
   6  -2   4 0.60000 0.49000   1
  -6   2  -4 -0.3800 0.57000   1
   4   7  -2 11.9300 1.27000   1
   4   7  -2 10.2600 1.39000   1
  -2   8   3 9.37000 1.24000   1
   2  -8  -3 12.7100 1.46000   1
  -2   8   3 10.6100 0.79000   1
   5  -3  -8 20.5500 0.94000   1
   5  -3  -8 23.0800 2.07000   1
  -5   3   8 17.2100 0.82000   1
  -5   3   8 21.0200 1.39000   1
   1   6  -9 33.3800 2.49000   1
   1   6  -9 35.4900 2.64000   1
  -1  -6   9 30.5300 2.33000   1
   1   6  -9 35.9000 2.20000   1
  -4  -7   6 32.6100 2.60000   1
   4   7  -6 31.1600 2.56000   1
   0  -5  -6 1.03000 0.70000   1
   0   5   6 2.69000 0.74000   1
   0   5   6 2.39000 0.67000   1
   0  -5  -6 1.42000 0.63000   1
  -1   3   8 -0.0400 0.61000   1
   1  -3  -8 0.66000 0.49000   1
   1  -3  -8 -0.0400 0.54000   1
  -1   3   8 0.58000 0.59000   1
  -8   1   4 13.6500 1.09000   1
   8  -1  -4 14.1600 1.08000   1
  -8   1   4 10.0300 0.85000   1
   8  -1  -4 10.7700 0.71000   1
  -1  -3  -7 58.6200 3.45000   1
  -1  -3  -7 58.4000 3.92000   1
   1   3   7 63.1100 3.78000   1
   1   3   7 59.5000 3.89000   1
   6   5  -4 8.73000 1.29000   1
   6   5  -4 6.30000 1.28000   1
   1  -2   9 3.40000 0.47000   1
  -1   2  -9 3.37000 0.96000   1
  -1   2  -9 4.32000 0.58000   1
   1  -2   9 5.08000 0.83000   1
   6   3  -8 14.8900 1.62000   1
   6   3  -8 9.37000 1.49000   1
  -6  -3   8 13.8300 1.53000   1
   3   8  -3 88.7500 5.68000   1
   3   8  -3 86.5900 6.03000   1
  -5   7   4 0.09000 0.64000   1
   5  -7  -4 0.08000 0.73000   1
   5  -7  -4 0.33000 0.28000   1
  -5   7   4 0.48000 0.27000   1
  -5   7   4 0.95000 0.36000   1
  -7   4  -2 10.1700 0.88000   1
  -7   4  -2 7.64000 0.50000   1
  -7   4  -2 7.92000 0.69000   1
   7  -4   2 8.48000 0.65000   1
  -1   8  -7 6.03000 1.09000   1
  -1   8  -7 7.64000 0.74000   1
   1  -8   7 6.98000 0.71000   1
  -8   2   4 30.9100 1.85000   1
   8  -2  -4 33.2300 2.02000   1
  -8   2   4 29.5100 1.53000   1
   8  -2  -4 27.5900 1.38000   1
   0  -6  -5 12.1400 1.33000   1
   0  -6  -5 13.0100 1.34000   1
   0   6   5 12.6600 1.40000   1
   0   6   5 12.1400 1.11000   1
   2   6  -9 5.23000 0.98000   1
   2   6  -9 5.95000 1.15000   1
   2   6  -9 5.76000 1.07000   1
  -2  -6   9 8.14000 0.96000   1
   4   2   5 16.3100 1.06000   1
  -4  -2  -5 15.8400 1.14000   1
  -4  -2  -5 13.6700 1.03000   1
  -4  -2  -5 17.6600 1.61000   1
   4   2   5 16.2000 1.53000   1
   4   2   5 14.5300 1.01000   1
   5   6  -2 0.16000 0.64000   1
   5   6  -2 -0.5000 0.62000   1
  -5  -6   2 0.44000 0.66000   1
  -7   6   2 7.44000 0.46000   1
  -7   6   2 7.99000 0.59000   1
  -7   6   2 7.20000 0.43000   1
   7  -6  -2 10.2000 0.83000   1
   8  -1  -2 17.9200 1.27000   1
   8  -1  -2 19.6000 1.32000   1
  -8   1   2 15.6800 1.08000   1
   8  -1  -2 16.6600 1.40000   1
  -6   7  -2 10.5300 0.82000   1
  -6   7  -2 6.46000 0.62000   1
  -6   7  -2 10.3800 0.83000   1
  -5   6  -5 1.63000 0.39000   1
  -5   6  -5 2.40000 0.77000   1
  -5   6  -5 2.12000 0.25000   1
   5  -6   5 1.33000 0.45000   1
  -3  -8   5 56.2700 3.87000   1
   3   8  -5 52.8700 3.79000   1
  -6  -5   5 15.6900 1.74000   1
   6   5  -5 16.4100 1.72000   1
  -6   2   8 8.87000 1.01000   1
   6  -2  -8 6.74000 1.29000   1
   1   7   3 39.4800 2.61000   1
   1   7   3 40.6600 2.93000   1
  -1  -7  -3 40.9000 2.94000   1
  -1  -7  -3 40.7600 2.83000   1
   8  -3  -2 0.83000 0.37000   1
  -8   3   2 1.08000 0.45000   1
  -8   3   2 0.99000 0.43000   1
  -8   3   2 1.05000 0.36000   1
   8  -3  -2 0.70000 0.36000   1
  -8   3   3 96.2800 5.65000   1
   8  -3  -3 99.2800 5.85000   1
  -8   3   3 98.3400 5.44000   1
   8  -3  -3 85.6400 4.82000   1
   7  -6   0 19.1700 1.20000   1
  -7   6   0 18.0600 0.79000   1
  -7   6   0 19.4800 1.15000   1
  -7   6   0 20.4700 1.29000   1
  -7   6   0 16.1500 1.03000   1
   4   6  -8 12.0100 1.54000   1
  -4  -6   8 11.1300 1.43000   1
   6   2   2 2.89000 0.81000   1
   6   2   2 1.73000 0.52000   1
  -6  -2  -2 1.65000 0.82000   1
   6   2   2 2.12000 0.35000   1
  -2   6  -8 2.11000 0.45000   1
   2  -6   8 2.81000 0.57000   1
  -2   6  -8 2.91000 0.54000   1
  -2   6  -8 3.32000 0.96000   1
   2  -6   8 2.73000 0.33000   1
   1   9  -2 28.2000 1.75000   1
   1   9  -2 23.1100 2.04000   1
  -2  -2  10 0.51000 0.69000   1
   2   2 -10 0.18000 0.65000   1
   2   2 -10 -0.1900 0.48000   1
   3  -6  -6 8.47000 0.85000   1
   3  -6  -6 5.56000 1.08000   1
  -3   6   6 9.47000 0.87000   1
  -3   6   6 6.51000 0.59000   1
  -3   6   6 8.38000 1.14000   1
  -3  -2  10 24.8500 2.08000   1
   3   2 -10 26.6200 2.18000   1
   3   2 -10 22.8600 1.54000   1
   5  -1  -9 20.9800 2.11000   1
   5  -1  -9 21.8800 1.14000   1
  -5   1   9 24.2300 1.82000   1
  -2  -3  10 4.17000 1.01000   1
   2   3 -10 5.98000 1.01000   1
   2   3 -10 5.75000 0.88000   1
   2   7   2 54.9900 3.65000   1
   2   7   2 61.3500 3.75000   1
  -2  -7  -2 62.9700 3.86000   1
  -2  -7  -2 56.5800 4.00000   1
   1  -7   8 8.33000 0.73000   1
   1  -7   8 9.85000 0.88000   1
  -1   7  -8 9.39000 0.88000   1
  -1   7  -8 8.24000 1.26000   1
  -3   2   9 6.29000 0.60000   1
   3  -2  -9 7.81000 0.71000   1
   3  -2  -9 8.02000 1.23000   1
  -3   2   9 13.1500 1.14000   1
   6   3   1 9.60000 1.26000   1
  -6  -3  -1 10.4000 1.11000   1
   6   3   1 7.93000 0.63000   1
   6   3   1 10.0100 0.94000   1
   3  -5  -7 9.87000 0.92000   1
   3  -5  -7 10.5600 1.20000   1
  -3   5   7 9.90000 0.95000   1
  -3   5   7 6.84000 0.62000   1
  -3   5   7 10.0900 1.23000   1
  -2  -2  -7 8.87000 1.15000   1
  -2  -2  -7 7.02000 0.72000   1
   2   2   7 5.78000 1.15000   1
   2   2   7 6.76000 0.66000   1
   6   5  -3 2.74000 0.77000   1
   6   5  -3 -0.4800 0.83000   1
  -6  -5   3 0.65000 0.50000   1
  -5   8   2 28.7800 1.31000   1
   5  -8  -2 25.8200 1.17000   1
  -5   8   2 29.2800 2.04000   1
  -5   8   2 30.5200 1.71000   1
  -5   8   2 25.5300 1.43000   1
   5  -8  -2 33.6000 2.37000   1
  -4   9  -1 10.2700 0.84000   1
   4  -9   1 9.09000 0.99000   1
  -4   9  -1 8.09000 0.74000   1
  -8   0   3 13.5000 1.02000   1
   8   0  -3 13.7300 1.04000   1
   8   0  -3 15.3900 1.30000   1
   8   0  -3 16.9200 1.37000   1
  -3   9  -4 1.97000 0.58000   1
   3  -9   4 0.86000 0.28000   1
  -3   9  -4 1.51000 0.42000   1
   3  -9   4 0.51000 0.18000   1
  -2   9  -5 0.13000 0.61000   1
   2  -9   5 0.28000 0.25000   1
   2  -9   5 -0.0400 0.24000   1
  -2   9  -5 -0.6800 0.42000   1
   7  -2  -7 3.81000 1.09000   1
  -7   2   7 5.67000 0.74000   1
  -8   0   4 6.07000 0.76000   1
  -8   0   4 5.25000 0.91000   1
   8   0  -4 5.02000 0.90000   1
   8   0  -4 5.56000 0.74000   1
   8   0  -4 4.66000 0.58000   1
   5   5  -8 13.2300 1.60000   1
  -5  -5   8 10.9500 1.52000   1
   5   5  -8 13.4800 1.51000   1
   2   8   0 10.1600 1.45000   1
   2   8   0 12.9200 1.21000   1
  -3  -3  10 0.08000 0.71000   1
   3   3 -10 -0.0400 0.72000   1
   3   3 -10 0.74000 0.50000   1
  -4   8   3 9.57000 0.73000   1
  -4   8   3 6.80000 0.61000   1
  -4   8   3 9.00000 1.13000   1
   4  -8  -3 7.85000 0.58000   1
   4  -8  -3 7.67000 1.25000   1
  -1  -9   5 1.06000 0.56000   1
   1   9  -5 1.02000 0.74000   1
   6  -5   4 3.33000 0.53000   1
  -6   5  -4 4.73000 0.81000   1
  -6   5  -4 2.10000 0.44000   1
   2  -9  -1 7.63000 1.19000   1
  -2   9   1 7.63000 1.06000   1
  -2   9   1 8.69000 0.85000   1
   2  -9  -1 6.45000 0.49000   1
   7   2  -7 9.67000 1.35000   1
   7   2  -7 9.26000 1.18000   1
  -7  -2   7 9.64000 1.35000   1
   7   2  -7 7.99000 0.71000   1
   6  -7  -3 11.6700 1.21000   1
  -6   7   3 9.89000 0.71000   1
  -6   7   3 9.91000 0.58000   1
   6  -7  -3 9.28000 0.50000   1
  -6   7   3 9.49000 0.61000   1
  -6   7   3 11.0200 1.06000   1
  -4   9  -2 27.4400 1.67000   1
  -4   9  -2 28.2600 1.61000   1
   0   6  -9 55.6500 3.27000   1
   0   6  -9 55.9500 3.67000   1
   0  -6   9 58.6300 3.66000   1
   0   6  -9 55.1100 3.93000   1
  -6   5   6 4.21000 0.62000   1
   6  -5  -6 3.09000 0.97000   1
  -5   0  -5 15.8600 1.40000   1
   5   0   5 14.3700 0.81000   1
   5   0   5 14.5100 1.38000   1
   5   0   5 11.5600 0.61000   1
   0   4   7 6.40000 0.98000   1
   0  -4  -7 8.07000 1.03000   1
   0  -4  -7 4.89000 0.86000   1
   0   4   7 7.92000 1.04000   1
   4   5  -9 36.9100 2.38000   1
   4   5  -9 38.1800 2.83000   1
   4   5  -9 37.7100 2.97000   1
  -4  -5   9 37.2200 2.89000   1
   4  -6  -6 10.4500 1.42000   1
  -4   6   6 10.0300 0.75000   1
  -4   6   6 9.31000 1.28000   1
  -4   6   6 11.0800 0.81000   1
  -8   2   1 28.7400 1.69000   1
   8  -2  -1 31.5500 1.67000   1
   8  -2  -1 33.1400 1.94000   1
   2   0   8 69.0600 4.65000   1
  -2   0  -8 69.7800 4.15000   1
  -2   0  -8 72.1600 4.69000   1
   2   0   8 75.6700 4.21000   1
  -5   8  -3 6.51000 0.60000   1
  -5   8  -3 7.86000 0.81000   1
   4  -5  -7 1.93000 0.83000   1
  -4   5   7 2.43000 0.57000   1
  -4   5   7 1.30000 0.36000   1
   4  -5  -7 1.01000 0.40000   1
  -7  -3   6 14.6300 1.56000   1
   7   3  -6 11.6200 1.41000   1
   7   3  -6 11.1300 1.52000   1
   7   3  -2 0.14000 0.75000   1
   7   3  -2 1.34000 0.77000   1
  -7  -3   2 0.69000 0.61000   1
  -7   1  -2 2.86000 0.70000   1
   7  -1   2 2.15000 0.64000   1
   7  -1   2 2.97000 0.45000   1
  -7   1  -2 1.26000 0.35000   1
   3   1 -10 6.25000 1.04000   1
  -3  -1  10 1.93000 0.89000   1
   3   1 -10 3.63000 0.57000   1
  -2  -8   7 22.9800 1.81000   1
   2   8  -7 20.7400 1.92000   1
  -4   2   9 0.26000 0.49000   1
   4  -2  -9 0.16000 0.33000   1
   4  -2  -9 -0.0100 0.72000   1
  -4   2   9 0.03000 0.31000   1
  -1   5  -9 12.5200 1.03000   1
   1  -5   9 14.2000 1.31000   1
   1  -5   9 12.2300 0.74000   1
  -1   5  -9 17.4600 1.60000   1
   3  -9  -1 1.77000 0.82000   1
   3  -9  -1 0.72000 0.28000   1
  -3   9   1 1.79000 0.72000   1
  -3   9   1 1.12000 0.41000   1
   5   3   3 9.61000 1.22000   1
   5   3   3 7.86000 0.59000   1
   5   3   3 10.6200 0.89000   1
  -5  -3  -3 11.3000 1.32000   1
   8  -1  -5 2.82000 0.70000   1
   8  -1  -5 3.45000 0.35000   1
  -8   1   5 4.67000 0.70000   1
   4  -9   0 4.63000 0.27000   1
  -4   9   0 6.03000 0.84000   1
   4  -9   0 5.58000 0.97000   1
   2  -6  -6 8.84000 1.07000   1
   2  -6  -6 4.83000 0.66000   1
  -2   6   6 5.12000 1.00000   1
  -2   6   6 4.41000 0.82000   1
   8  -3  -1 0.33000 0.33000   1
   8  -3  -1 0.11000 0.48000   1
  -8   3   1 0.78000 0.40000   1
  -8   3   4 5.81000 0.44000   1
  -8   3   4 5.00000 0.61000   1
   8  -3  -4 5.75000 0.72000   1
   8  -3  -4 4.86000 0.34000   1
   3   8  -2 31.6300 2.51000   1
   3   8  -2 28.6400 2.19000   1
   0   9   0 13.7600 1.38000   1
   0   9   0 10.4400 0.91000   1
   2  -2  -9 0.39000 0.72000   1
   2  -2  -9 0.66000 0.43000   1
  -2   2   9 0.69000 0.69000   1
   2   1 -10 19.6600 1.35000   1
  -2  -1  10 15.0700 1.61000   1
   2   1 -10 18.0800 1.61000   1
   6  -1   4 10.4600 1.08000   1
   6  -1   4 8.15000 0.54000   1
  -6   1  -4 8.02000 0.48000   1
  -6   1  -4 10.3700 1.16000   1
  -6  -5   6 20.0900 1.93000   1
   6   5  -6 15.9500 1.82000   1
  -1   8   3 29.6100 2.46000   1
  -1   8   3 33.4400 1.96000   1
   1  -8  -3 30.2700 2.43000   1
   5   4   2 9.61000 0.96000   1
   5   4   2 9.24000 1.26000   1
  -5  -4  -2 9.02000 1.22000   1
   2   4 -10 19.6400 1.88000   1
   2   4 -10 25.0800 1.89000   1
   2   4 -10 21.9200 1.67000   1
  -2  -4  10 22.5800 1.90000   1
  -7   6   3 25.7900 1.29000   1
  -7   6   3 26.3300 1.32000   1
   7  -6  -3 26.0800 1.75000   1
  -7   6   3 24.7200 1.23000   1
  -2   5   7 -0.3000 0.63000   1
  -2   5   7 0.06000 0.53000   1
   2  -5  -7 -0.0900 0.41000   1
   2  -5  -7 -0.5600 0.55000   1
  -6   4   7 2.12000 0.52000   1
   6  -4  -7 6.02000 1.04000   1
  -3   8  -6 4.05000 0.89000   1
   3  -8   6 4.18000 0.51000   1
   3  -8   6 3.18000 0.37000   1
  -3   8  -6 2.49000 0.43000   1
  -3   8  -6 2.90000 0.55000   1
  -1  -3  10 28.9900 2.24000   1
   1   3 -10 29.4200 2.14000   1
   1   3 -10 28.6900 2.13000   1
  -1   1  -9 4.88000 0.99000   1
   1  -1   9 3.10000 0.48000   1
   1  -1   9 5.23000 1.00000   1
  -1   1  -9 5.52000 0.64000   1
   6   1   3 3.73000 0.76000   1
   6   1   3 3.30000 0.34000   1
   6   1   3 4.61000 0.64000   1
  -6  -1  -3 2.89000 0.91000   1
  -6  -1  -3 3.44000 0.50000   1
  -4   3  -7 -0.2300 0.69000   1
  -4   3  -7 0.47000 0.23000   1
   4  -3   7 0.44000 0.61000   1
   8   0  -2 48.2700 2.99000   1
   8   0  -2 49.5300 2.86000   1
  -8   0   2 47.6100 2.70000   1
   8   0  -2 48.7600 3.18000   1
  -4   4  -7 41.1600 3.11000   1
   4  -4   7 46.9200 2.76000   1
  -4   4  -7 48.9300 2.42000   1
  -3   7   5 2.68000 0.47000   1
  -3   7   5 2.61000 0.90000   1
   3  -7  -5 2.89000 0.98000   1
   0   7   4 19.6900 1.53000   1
   0  -7  -4 16.5900 1.65000   1
   0  -7  -4 19.5500 1.50000   1
   0   7   4 18.9400 1.76000   1
   8   0  -5 18.1400 1.78000   1
   8   0  -5 19.1700 1.42000   1
  -8   0   5 22.5500 1.55000   1
   8   0  -5 17.4200 1.03000   1
   8  -2  -5 3.98000 0.70000   1
  -8   2   5 2.26000 0.58000   1
  -7   5  -2 94.7200 5.38000   1
  -7   5  -2 100.300 5.34000   1
  -7   5  -2 97.0000 5.78000   1
   7  -5   2 99.8600 5.48000   1
  -7   5  -2 90.3900 5.00000   1
  -7   5  -2 92.0800 4.66000   1
   8  -1  -1 4.71000 0.72000   1
   8  -1  -1 3.28000 0.47000   1
   8  -1  -1 2.25000 0.59000   1
  -8   1   1 3.64000 0.55000   1
   3   8  -6 3.07000 0.90000   1
  -3  -8   6 1.72000 0.78000   1
   3   7  -8 -0.0500 0.72000   1
  -3  -7   8 0.33000 0.68000   1
   6  -6  -5 2.82000 0.43000   1
   6  -6  -5 3.51000 0.81000   1
  -6   6   5 3.53000 0.54000   1
  -6   6   5 2.37000 0.21000   1
  -6   6   5 3.03000 0.28000   1
  -4  -6  -1 45.6500 3.30000   1
   4   6   1 41.3300 2.90000   1
   4   6   1 45.1700 3.18000   1
   1   2 -10 1.85000 0.76000   1
  -1  -2  10 1.67000 0.84000   1
   1   2 -10 2.68000 0.77000   1
   3   6  -9 9.07000 1.25000   1
  -3  -6   9 9.70000 1.41000   1
   3   6  -9 10.6300 1.24000   1
   3   6  -9 11.2200 1.49000   1
  -7   6  -1 0.12000 0.23000   1
  -7   6  -1 0.22000 0.25000   1
  -7   6  -1 0.31000 0.15000   1
  -7   6  -1 0.01000 0.29000   1
  -7   6  -1 0.23000 0.19000   1
  -7   6  -1 0.49000 0.40000   1
   7  -6   1 -0.0200 0.28000   1
   0   9  -6 18.4400 1.49000   1
   0  -9   6 20.9600 1.39000   1
   0   9  -6 23.1000 1.96000   1
   4   2 -10 31.3500 1.89000   1
   4   2 -10 33.2100 2.59000   1
  -4  -2  10 31.1000 2.41000   1
   8  -4  -2 24.0600 1.35000   1
  -8   4   2 30.8700 1.72000   1
  -8   4   2 24.4100 1.34000   1
  -8   4   2 24.0500 1.41000   1
  -8   4   2 30.5300 1.62000   1
   8  -4  -2 30.2500 1.78000   1
   5   4  -9 3.03000 1.06000   1
   5   4  -9 4.19000 1.17000   1
   5   4  -9 4.18000 0.65000   1
  -5  -4   9 4.45000 1.06000   1
   4  -8   5 0.05000 0.25000   1
   4  -8   5 0.11000 0.22000   1
  -4   8  -5 0.51000 0.34000   1
  -4   8  -5 0.06000 0.54000   1
  -4   8  -5 0.19000 0.22000   1
  -7   4   6 17.8400 1.10000   1
   7  -4  -6 17.2200 1.71000   1
   1  -9  -1 17.5400 1.80000   1
  -1   9   1 17.8400 1.13000   1
  -1   9   1 17.8800 1.69000   1
   6   4   0 29.5400 2.20000   1
  -6  -4   0 30.0800 2.29000   1
   6   4   0 28.2500 2.32000   1
   3  -4  -8 2.81000 0.65000   1
   3  -4  -8 2.99000 0.86000   1
  -3   4   8 2.48000 0.41000   1
  -3   4   8 3.53000 0.73000   1
  -5  -6   7 0.72000 0.85000   1
   5   6  -7 0.84000 0.85000   1
   4  -7   6 30.6100 1.68000   1
   4  -7   6 28.0000 1.27000   1
  -4   7  -6 26.7200 1.51000   1
  -4   7  -6 29.8500 2.24000   1
  -4   7  -6 26.1300 1.55000   1
  -4   7  -6 28.7300 1.40000   1
  -7  -1  -1 15.2400 1.33000   1
   7   1   1 14.1000 1.45000   1
   7   1   1 16.7900 1.15000   1
   7   1   1 14.4900 0.82000   1
  -7  -2   0 29.2300 2.07000   1
   7   2   0 24.3900 1.48000   1
   7   2   0 33.2300 2.04000   1
   7   2   0 28.1100 2.22000   1
   3  -3   8 0.75000 0.16000   1
   3  -3   8 1.24000 0.61000   1
   3  -3   8 0.42000 0.16000   1
  -3   3  -8 0.56000 0.79000   1
  -3   3  -8 0.85000 0.39000   1
  -3   7  -7 7.10000 0.58000   1
   3  -7   7 6.26000 0.46000   1
  -3   7  -7 7.63000 1.07000   1
   3  -7   7 6.93000 0.64000   1
   3   4 -10 12.7200 1.24000   1
  -3  -4  10 9.91000 1.37000   1
   3   4 -10 11.8200 1.49000   1
   3   4 -10 14.0200 1.13000   1
   1   9  -1 8.35000 0.81000   1
   1   9  -1 6.85000 1.17000   1
   3  -4   8 8.11000 0.94000   1
  -3   4  -8 6.10000 0.65000   1
  -3   4  -8 6.79000 1.18000   1
   4   1 -10 32.6500 2.05000   1
  -4  -1  10 31.9300 2.40000   1
   4   1 -10 26.8400 2.37000   1
  -4  -7   1 4.63000 1.08000   1
   4   7  -1 6.88000 1.14000   1
   4   7  -1 6.05000 1.03000   1
   8  -4  -3 16.3500 0.84000   1
   8  -4  -3 15.1100 1.12000   1
  -8   4   3 18.9300 1.27000   1
  -8   4   3 17.7200 0.91000   1
  -8   4   3 15.2400 1.06000   1
  -4   9  -3 1.50000 0.37000   1
  -4   9  -3 0.99000 0.51000   1
  -1   9  -6 6.46000 0.78000   1
  -1   9  -6 9.00000 1.22000   1
   1  -9   6 6.39000 0.68000   1
   7  -5  -5 17.0800 1.58000   1
  -7   5   5 17.9800 1.22000   1
   7  -5  -5 15.2500 0.96000   1
   5   2   4 8.69000 0.90000   1
   5   2   4 7.33000 0.61000   1
  -5  -2  -4 6.67000 1.08000   1
  -5  -2  -4 7.26000 0.70000   1
   5   2   4 7.45000 0.97000   1
   1   4 -10 2.71000 0.88000   1
  -1  -4  10 4.47000 0.86000   1
   1   4 -10 5.13000 0.94000   1
   6   5  -2 2.58000 0.96000   1
  -6  -5   2 1.47000 0.81000   1
   6   5  -2 3.56000 0.98000   1
   3   7   1 5.66000 0.96000   1
  -3  -7  -1 2.72000 1.05000   1
   3   7   1 5.44000 1.05000   1
  -4  -7   7 37.3700 2.91000   1
   4   7  -7 34.7600 2.79000   1
  -4   7   5 10.1800 0.79000   1
  -4   7   5 13.2400 1.30000   1
   4  -7  -5 12.0600 1.41000   1
  -4   7   5 8.69000 0.71000   1
   2  -7  -5 11.5400 1.02000   1
   2  -7  -5 11.4400 1.36000   1
  -2   7   5 12.2500 0.94000   1
  -2   7   5 12.7000 1.42000   1
  -4   4   8 0.41000 0.29000   1
   4  -4  -8 0.33000 0.34000   1
   4  -4  -8 -0.0400 0.77000   1
  -4   4   8 0.65000 0.55000   1
   6   1  -9 23.4900 1.29000   1
  -6  -1   9 22.9600 1.98000   1
   6   1  -9 21.7600 2.21000   1
  -4   2  -7 0.62000 0.33000   1
   4  -2   7 0.47000 0.70000   1
  -4   2  -7 2.76000 0.83000   1
   8   1  -4 0.53000 0.72000   1
  -8  -1   4 -0.2900 0.35000   1
   8   1  -4 0.88000 0.48000   1
  -8  -1   4 0.19000 0.55000   1
   5  -3   6 8.67000 0.98000   1
  -5   3  -6 9.50000 1.18000   1
  -4  -3  10 27.7600 2.28000   1
   4   3 -10 30.2200 1.90000   1
   4   3 -10 26.9600 2.33000   1
   4   3 -10 24.7000 1.77000   1
   8  -4  -1 7.31000 0.65000   1
  -8   4   1 9.13000 0.79000   1
  -8   4   1 7.31000 0.60000   1
  -8   4   1 7.90000 0.68000   1
  -8   4   1 11.2500 0.93000   1
   8  -4  -1 7.88000 0.68000   1
  -5   4  -6 31.7500 2.46000   1
   5  -4   6 34.0700 2.02000   1
   2  -8   7 0.26000 0.32000   1
   2  -8   7 0.30000 0.48000   1
  -2   8  -7 0.17000 0.50000   1
  -2   8  -7 0.47000 0.66000   1
  -5  -6   1 6.43000 1.13000   1
   5   6  -1 7.52000 1.13000   1
   5   6  -1 8.33000 1.21000   1
  -4   5  -7 88.7500 4.85000   1
   4  -5   7 101.280 5.93000   1
  -4   5  -7 90.6200 5.97000   1
   3   0 -10 48.1700 2.82000   1
   3   0 -10 51.9900 3.63000   1
  -3   0  10 56.2100 3.65000   1
   8   1  -3 27.2100 1.95000   1
   8   1  -3 30.3000 2.27000   1
   8   1  -3 27.0900 1.71000   1
  -8  -1   3 27.2400 1.63000   1
   6   0  -9 1.06000 0.88000   1
   6   0  -9 2.50000 0.33000   1
  -6   0   9 5.48000 0.80000   1
   6   4  -8 12.5900 1.61000   1
  -6  -4   8 13.5700 1.60000   1
   6   4  -8 11.5800 1.60000   1
   4  -9  -1 26.7200 1.88000   1
   4  -9  -1 21.4600 1.00000   1
  -4   9   1 23.0500 1.18000   1
  -4   9   1 24.3400 1.82000   1
  -6   7  -3 1.03000 0.44000   1
   6  -7   3 0.45000 0.15000   1
  -6   7  -3 0.86000 0.31000   1
  -6   7  -3 0.93000 0.16000   1
  -6   7  -3 1.29000 0.37000   1
  -1  -9   6 24.2100 1.67000   1
   1   9  -6 24.2400 1.97000   1
   5  -5  -7 15.1000 1.49000   1
  -5   5   7 12.8100 0.90000   1
  -5   5   7 10.0000 0.59000   1
   0   1   9 58.3600 3.81000   1
   0   1   9 51.8700 3.03000   1
   0  -1  -9 52.4200 3.20000   1
   0  -1  -9 54.0100 3.53000   1
   5  -6  -6 51.2900 3.44000   1
  -5   6   6 44.2600 3.06000   1
  -5   6   6 41.2200 2.25000   1
  -5   6   6 39.1200 2.02000   1
  -6  -2   9 40.6400 2.98000   1
   6   2  -9 37.8600 2.99000   1
   6   2  -9 36.6200 2.15000   1
   6   2  -9 37.8200 2.96000   1
  -3   2  -8 0.27000 0.38000   1
  -3   2  -8 1.00000 0.75000   1
   3  -2   8 -0.5100 0.63000   1
   3  -2   8 0.09000 0.17000   1
   3  -2   8 0.37000 0.30000   1
   2   9  -4 1.34000 0.54000   1
   2   9  -4 2.09000 0.71000   1
   7   0  -8 16.7600 0.83000   1
  -7   0   8 17.0900 1.62000   1
   7   0  -8 20.2900 1.91000   1
   7   0  -8 16.3100 0.85000   1
  -4  -1  -6 11.9700 1.39000   1
   4   1   6 12.0500 0.89000   1
  -4  -1  -6 12.1200 0.93000   1
   4   1   6 11.9300 1.32000   1
   4   1   6 9.99000 0.74000   1
   1   1 -10 4.97000 0.92000   1
  -1  -1  10 5.80000 0.98000   1
   1   1 -10 5.03000 0.80000   1
  -3  -1  -7 15.3400 1.24000   1
  -3  -1  -7 16.4800 1.60000   1
   3   1   7 14.4500 1.11000   1
   3   1   7 17.1200 1.56000   1
   2  -4  -8 1.48000 0.69000   1
  -2   4   8 0.22000 0.66000   1
  -2   4   8 -0.0200 0.60000   1
   2  -4  -8 0.23000 0.45000   1
  -5  -5  -1 2.37000 0.92000   1
   5   5   1 4.26000 0.96000   1
   5   5   1 3.20000 0.84000   1
  -7   3   7 20.8200 1.40000   1
   7  -3  -7 22.6200 1.97000   1
  -5   2   9 6.62000 0.90000   1
   5  -2  -9 6.06000 0.53000   1
   5  -2  -9 9.14000 1.24000   1
  -5   2   9 6.43000 0.50000   1
  -1  -2  -8 79.7100 4.74000   1
   1   2   8 78.4700 5.23000   1
   1   2   8 78.5800 4.60000   1
  -1  -2  -8 82.7700 5.34000   1
  -8  -1   5 22.7400 1.85000   1
   8   1  -5 23.1900 1.78000   1
   8   1  -5 23.9600 2.00000   1
   8   1  -5 17.7400 1.06000   1
   6  -8   0 1.15000 0.51000   1
  -6   8   0 0.62000 0.39000   1
  -6   8   0 2.07000 0.33000   1
   8  -3   0 26.9900 1.30000   1
   8  -3   0 29.0700 1.63000   1
  -8   3   0 24.0600 1.55000   1
  -8   3   0 27.7900 1.59000   1
   8  -3  -5 4.96000 0.79000   1
  -8   3   5 4.09000 0.58000   1
  -2  -5  -5 21.1200 1.84000   1
   2   5   5 21.0500 1.56000   1
   2   5   5 21.7700 1.74000   1
  -2  -5  -5 19.8200 1.53000   1
  -6   6  -4 1.34000 0.21000   1
   6  -6   4 1.84000 0.35000   1
  -6   6  -4 2.34000 0.63000   1
  -6   6  -4 1.07000 0.34000   1
   8  -2   0 1.94000 0.29000   1
  -8   2   0 2.44000 0.56000   1
  -8   2   0 0.65000 0.36000   1
   8  -2   0 3.80000 0.51000   1
  -3   5  -8 19.0500 1.78000   1
   3  -5   8 16.7600 0.77000   1
  -3   5  -8 18.5400 1.21000   1
   3  -5   8 19.9500 1.35000   1
   7   1  -8 4.11000 0.42000   1
   7   1  -8 6.76000 0.98000   1
   7   1  -8 4.16000 0.47000   1
   7   1  -8 3.18000 0.80000   1
  -7  -1   8 6.24000 0.93000   1
  -3  -5  -4 19.4300 1.56000   1
  -3  -5  -4 22.6800 2.00000   1
   3   5   4 22.2100 1.57000   1
   3   5   4 20.0300 1.77000   1
  -2   0  10 1.43000 0.84000   1
   2   0 -10 4.51000 0.63000   1
   2   0 -10 1.98000 0.91000   1
   2   9  -3 3.30000 1.01000   1
   2   9  -3 4.44000 0.83000   1
   6  -3  -8 4.58000 1.17000   1
  -6   3   8 6.37000 0.87000   1
   7   0   2 3.78000 0.60000   1
  -7   0  -2 3.17000 0.47000   1
  -7   0  -2 5.33000 0.84000   1
   7   0   2 2.81000 0.31000   1
   7   0   2 3.84000 0.82000   1
   5  -8  -3 0.22000 0.20000   1
   5  -8  -3 -0.7200 0.60000   1
  -5   8   3 0.24000 0.32000   1
  -5   8   3 0.35000 0.25000   1
  -5   8   3 0.79000 0.60000   1
  -3  -4  -5 14.0500 1.06000   1
  -3  -4  -5 17.5400 1.50000   1
   3   4   5 12.9000 1.44000   1
   3   4   5 14.7600 1.24000   1
   7   3  -7 4.38000 1.21000   1
   7   3  -7 4.08000 0.93000   1
  -7  -3   7 4.22000 1.07000   1
   8  -1  -6 16.8300 0.82000   1
  -8   1   6 21.4400 1.59000   1
   8  -1  -6 18.6400 1.73000   1
   7   3  -1 23.4300 1.89000   1
   7   3  -1 21.3600 1.89000   1
  -7  -3   1 22.9700 1.69000   1
   0   3   8 19.4100 1.43000   1
   0  -3  -8 19.6400 1.61000   1
   0  -3  -8 16.5300 1.51000   1
   0   3   8 20.1500 1.64000   1
   5  -2   6 18.7700 1.48000   1
  -5   2  -6 19.8200 1.75000   1
  -3   9  -5 29.0800 1.56000   1
  -3   9  -5 33.0200 2.23000   1
   3  -9   5 27.5900 1.40000   1
   3  -9   5 22.5300 1.18000   1
   8   0  -1 1.13000 0.50000   1
   8   0  -1 0.33000 0.42000   1
   8   0  -1 1.85000 0.69000   1
  -8   0   1 1.12000 0.55000   1
  -8   4   4 5.70000 0.53000   1
  -8   4   4 6.58000 0.39000   1
  -8   4   4 7.74000 0.83000   1
   8  -4  -4 5.73000 0.82000   1
   2   5 -10 41.1100 2.73000   1
   2   5 -10 42.1900 2.98000   1
   2   5 -10 42.4300 3.12000   1
  -2  -5  10 40.9700 2.99000   1
  -1   6  -9 0.66000 0.78000   1
   1  -6   9 0.66000 0.50000   1
  -1   6  -9 0.17000 0.47000   1
   1  -6   9 0.21000 0.32000   1
  -1   6  -9 0.45000 0.56000   1
  -4   0  10 0.09000 0.36000   1
   4   0 -10 0.69000 0.77000   1
   4   0 -10 0.19000 0.45000   1
  -4   0  10 0.83000 0.70000   1
  -1   6   6 0.73000 0.72000   1
  -1   6   6 0.94000 0.58000   1
   1  -6  -6 -0.4600 0.67000   1
   1  -6  -6 0.55000 0.61000   1
   5  -7   5 12.3900 0.78000   1
  -5   7  -5 12.1500 0.76000   1
  -5   7  -5 13.1800 0.67000   1
  -5   7  -5 16.9100 1.40000   1
  -5   7  -5 10.7100 0.72000   1
   3   8  -1 15.5000 1.48000   1
   3   8  -1 15.2800 1.69000   1
  -1   2   9 0.98000 0.48000   1
  -1   2   9 1.12000 0.66000   1
   1  -2  -9 -1.1200 0.48000   1
   1  -2  -9 0.44000 0.63000   1
   7   4  -4 15.4800 1.73000   1
   7   4  -4 16.4900 1.68000   1
   8   0  -6 0.54000 0.26000   1
  -8   0   6 0.03000 0.58000   1
   8   0  -6 0.32000 0.71000   1
   8   0  -6 1.46000 0.62000   1
  -5   5  -6 52.5400 2.46000   1
  -5   5  -6 59.4300 3.94000   1
   5  -5   6 64.7700 3.47000   1
   6   5  -7 20.5000 2.10000   1
   6   5  -7 20.6600 2.10000   1
  -6  -5   7 25.0400 2.25000   1
  -1  -8   8 21.1100 1.64000   1
   1   8  -8 22.1400 1.65000   1
   1   8  -8 23.8800 2.13000   1
   6  -8  -1 20.0800 1.59000   1
  -6   8   1 18.1600 1.19000   1
  -6   8   1 18.6200 1.31000   1
  -6   8  -1 0.27000 0.29000   1
  -6   8  -1 -0.0100 0.27000   1
   6  -8   1 -0.5100 0.36000   1
   0  -8   8 22.0600 1.64000   1
   0   8  -8 21.1300 2.04000   1
   0   8  -8 24.3400 1.61000   1
  -2   7  -8 36.7900 2.66000   1
  -2   7  -8 34.6800 2.00000   1
  -2   7  -8 38.5600 2.25000   1
   2  -7   8 29.3600 1.66000   1
   2  -7   8 33.3300 2.01000   1
  -1  -8  -2 62.9300 4.40000   1
  -1  -8  -2 67.1200 4.46000   1
   1   8   2 64.3200 4.43000   1
   1   8   2 65.5400 4.16000   1
   7  -3   3 6.34000 0.67000   1
  -7   3  -3 5.92000 0.91000   1
   2   9  -5 29.4200 2.35000   1
  -2  -9   5 30.1000 2.09000   1
  -7  -4   5 0.26000 0.77000   1
   7   4  -5 0.26000 0.83000   1
  -7   6   4 4.85000 0.47000   1
  -7   6   4 3.66000 0.40000   1
   7  -6  -4 4.48000 0.72000   1
  -7   6   4 3.09000 0.27000   1
  -7   1   8 36.9600 2.63000   1
   7  -1  -8 34.5100 2.78000   1
   1  -5  -7 11.4600 1.34000   1
  -1   5   7 13.3800 1.35000   1
   1  -5  -7 11.9600 1.08000   1
  -1   5   7 11.6800 1.20000   1
   1   7  -9 1.45000 0.88000   1
   1   7  -9 2.11000 0.94000   1
  -1  -7   9 2.95000 0.73000   1
   1   7  -9 2.45000 0.72000   1
   2   4   6 23.7500 1.61000   1
   2   4   6 26.0200 1.97000   1
  -2  -4  -6 22.2500 1.68000   1
  -2  -4  -6 19.9300 1.91000   1
   2   6   4 34.9800 2.52000   1
  -2  -6  -4 35.6700 2.71000   1
  -2  -6  -4 32.8600 2.36000   1
   2   6   4 35.3300 2.52000   1
  -6   7   4 31.2300 1.66000   1
   6  -7  -4 31.0800 1.57000   1
  -6   7   4 33.3700 1.59000   1
  -6   7   4 37.6900 2.53000   1
  -6   7   4 34.1100 1.74000   1
   6  -7  -4 33.1800 2.48000   1
  -1  -5  10 0.20000 0.71000   1
   1   5 -10 -0.0200 0.45000   1
   1   5 -10 0.27000 0.56000   1
   1   5 -10 1.14000 0.71000   1
  -5   8  -4 3.07000 0.46000   1
  -5   8  -4 2.29000 0.21000   1
   5  -8   4 2.37000 0.21000   1
  -5   8  -4 2.17000 0.47000   1
  -5   8  -4 2.05000 0.65000   1
  -8  -1   2 1.07000 0.50000   1
   8   1  -2 1.85000 0.77000   1
   8   1  -2 2.41000 0.66000   1
   8   1  -2 1.17000 0.48000   1
  -2   9  -6 41.2700 2.26000   1
  -2   9  -6 40.3500 2.82000   1
   2  -9   6 31.8600 1.86000   1
   2  -9   6 39.4800 2.19000   1
   0   3 -10 17.4900 1.74000   1
   0   3 -10 18.4400 1.48000   1
   0  -3  10 20.6000 1.78000   1
  -6   0  -4 8.91000 0.63000   1
   6   0   4 11.3700 0.75000   1
   6   0   4 11.6100 1.11000   1
  -6   0  -4 13.1600 1.30000   1
  -7   4  -3 3.69000 0.81000   1
   7  -4   3 3.83000 0.62000   1
  -7   4  -3 3.90000 0.26000   1
  -7   4  -3 2.91000 0.26000   1
  -1   0  -9 26.2200 2.10000   1
  -1   0  -9 25.5900 1.68000   1
   1   0   9 26.8500 2.09000   1
   1   0   9 22.2400 1.34000   1
   3  -9  -2 31.0800 2.53000   1
   3  -9  -2 29.0200 1.61000   1
  -3   9   2 35.4500 2.39000   1
  -3   9   2 36.4600 2.03000   1
  -8   4   0 21.7900 1.21000   1
   8  -4   0 21.4900 1.32000   1
  -8   4   0 17.7100 1.04000   1
   8  -4   0 19.2500 0.96000   1
  -8   4   0 16.3600 1.07000   1
  -3   8   4 4.18000 0.51000   1
  -3   8   4 5.91000 0.99000   1
   3  -8  -4 4.98000 1.10000   1
  -6   1   9 4.38000 0.88000   1
   6  -1  -9 6.01000 1.16000   1
   6  -1  -9 3.32000 0.32000   1
   5  -4  -8 6.66000 1.11000   1
   5  -4  -8 3.94000 0.39000   1
  -5   4   8 4.09000 0.36000   1
  -5   4   8 6.57000 0.78000   1
   4   4 -10 0.17000 0.69000   1
   4   4 -10 0.72000 0.47000   1
   4   4 -10 -0.4600 0.82000   1
  -4  -4  10 -0.4500 0.77000   1
   2  -3   9 5.57000 0.95000   1
   2  -3   9 4.08000 0.39000   1
  -2   3  -9 4.93000 0.59000   1
  -2   3  -9 5.02000 0.93000   1
   3   8  -7 26.9300 2.19000   1
  -3  -8   7 29.9500 2.24000   1
   8  -2  -6 12.7800 1.39000   1
  -8   2   6 12.9800 1.14000   1
  -2   9   2 1.78000 0.42000   1
   2  -9  -2 1.70000 0.89000   1
  -2   9   2 1.87000 0.82000   1
   8  -1   0 0.12000 0.23000   1
   8  -1   0 0.51000 0.48000   1
   8  -1   0 -0.1500 0.36000   1
  -8   1   0 0.24000 0.41000   1
  -2   4  -9 2.11000 0.55000   1
  -2   4  -9 2.11000 0.85000   1
   2  -4   9 1.35000 0.69000   1
   2  -4   9 0.82000 0.26000   1
  -7   7   1 2.59000 0.46000   1
   7  -7  -1 2.26000 0.55000   1
  -7   7   1 3.23000 0.54000   1
   7  -6   2 13.7700 0.67000   1
  -7   6  -2 13.4500 0.97000   1
  -7   6  -2 11.4000 0.62000   1
  -7   6  -2 14.4500 0.86000   1
  -7   6  -2 11.7100 0.67000   1
  -7   6  -2 10.6100 0.68000   1
  -7  -4   3 28.4200 2.00000   1
   7   4  -3 30.0200 2.43000   1
   7   4  -3 29.7200 2.25000   1
  -7   2  -3 5.59000 0.41000   1
   7  -2   3 7.05000 0.83000   1
  -7   2  -3 6.00000 1.00000   1
  -4   1  -7 18.2200 1.06000   1
  -4   1  -7 19.4800 1.85000   1
   4  -1   7 19.2900 0.95000   1
   4  -1   7 20.5800 1.72000   1
   4  -1   7 17.6300 1.00000   1
  -5   7   5 10.4600 1.16000   1
  -5   7   5 7.85000 0.79000   1
  -5   7   5 7.79000 0.58000   1
   5  -7  -5 10.4300 1.26000   1
   0  -4  10 8.13000 1.22000   1
   0   4 -10 8.63000 1.11000   1
   0   4 -10 11.0600 0.95000   1
  -4   9  -4 67.4900 4.31000   1
  -4   9  -4 64.2800 3.45000   1
   4  -9   4 62.5200 2.92000   1
  -2  -7   9 48.9700 3.26000   1
   2   7  -9 47.7000 3.16000   1
   2   7  -9 48.3500 3.43000   1
  -8   5   2 21.6900 1.22000   1
  -8   5   2 21.2600 1.13000   1
   8  -5  -2 20.9300 1.44000   1
  -8   5   2 18.9500 1.10000   1
   8  -5  -2 17.3700 1.04000   1
   3   5 -10 15.7900 1.33000   1
   3   5 -10 14.2000 1.30000   1
  -3  -5  10 14.0800 1.62000   1
   3   5 -10 14.7700 1.53000   1
   2   8   1 42.0900 3.14000   1
  -2  -8  -1 43.6500 3.19000   1
   2   8   1 45.4700 2.98000   1
  -4  -4  -4 44.6200 3.23000   1
   4   4   4 48.1900 2.86000   1
  -4  -4  -4 44.4500 2.70000   1
   4   4   4 48.2500 3.41000   1
   2   9  -2 40.4200 2.70000   1
   2   9  -2 41.9800 3.08000   1
   3   6   3 3.86000 0.88000   1
  -3  -6  -3 2.87000 0.69000   1
  -3  -6  -3 3.21000 1.02000   1
   3   6   3 2.92000 0.83000   1
  -1   7   5 4.36000 0.72000   1
  -1   7   5 8.01000 1.16000   1
   1  -7  -5 6.10000 1.07000   1
   1  -7  -5 6.98000 0.85000   1
   0  -8  -3 23.6500 2.04000   1
   0   8   3 21.2400 1.64000   1
   0  -8  -3 26.0100 1.90000   1
   0   8   3 23.5700 2.03000   1
  -7  -2   8 26.9100 2.17000   1
   7   2  -8 25.1900 2.27000   1
   7   2  -8 25.3900 2.28000   1
   7   2  -8 21.4000 1.21000   1
   0   9   1 0.37000 0.49000   1
   0   9   1 -0.0300 0.71000   1
   0  -9  -1 -0.0200 0.72000   1
  -5   9  -1 45.9200 2.54000   1
   5  -9   1 50.0900 3.03000   1
  -5   9  -1 47.7100 2.62000   1
   0   2 -10 7.87000 0.97000   1
   0   2 -10 5.85000 0.80000   1
   0  -2  10 5.52000 1.09000   1
  -7   7   0 22.8000 1.21000   1
  -7   7   0 19.1300 1.31000   1
   7  -7   0 22.5000 1.52000   1
  -5  -1  -5 44.5000 3.11000   1
  -5  -1  -5 39.6100 2.27000   1
   5   1   5 49.5100 3.30000   1
   5   1   5 39.2900 2.09000   1
   5   1   5 47.2000 2.50000   1
  -1  10  -3 10.5000 1.22000   1
   1 -10   3 9.78000 0.81000   1
  -2  -1  -8 17.6200 1.70000   1
   2   1   8 22.8500 1.86000   1
   2   1   8 16.2400 1.07000   1
  -2  -1  -8 17.0500 1.14000   1
  -1  -5  -6 19.9400 1.84000   1
  -1  -5  -6 21.8200 1.57000   1
   1   5   6 21.1600 1.65000   1
   1   5   6 18.9800 1.64000   1
   6   3  -9 29.1200 1.74000   1
   6   3  -9 33.8300 2.55000   1
   6   3  -9 31.1800 2.67000   1
  -6  -3   9 29.6000 2.50000   1
   0  -7   9 2.06000 0.73000   1
   0   7  -9 4.02000 1.00000   1
   0   7  -9 4.36000 0.60000   1
   0   7  -9 3.02000 0.92000   1
  -2  10  -2 9.96000 1.09000   1
   2 -10   2 8.32000 0.58000   1
   2 -10   2 10.1400 0.77000   1
  -4   6  -7 20.3500 1.85000   1
  -4   6  -7 19.6600 1.17000   1
   4  -6   7 18.9200 1.22000   1
   5   2 -10 -0.0200 0.47000   1
   5   2 -10 0.54000 0.76000   1
  -5  -2  10 0.77000 0.75000   1
   5   1 -10 6.54000 1.25000   1
   5   1 -10 7.33000 0.74000   1
  -5  -1  10 8.76000 1.19000   1
  -1  -6  -5 31.5100 2.41000   1
   1   6   5 35.3800 2.45000   1
   1   6   5 32.5300 2.27000   1
  -1  -6  -5 31.3200 2.26000   1
   8   1  -6 2.96000 0.43000   1
   8   1  -6 4.10000 1.05000   1
   8   1  -6 3.75000 0.90000   1
  -8  -1   6 4.69000 0.84000   1
  -5   9   0 7.92000 0.86000   1
  -5   9   0 8.16000 0.65000   1
   2  -8  -4 24.4200 1.89000   1
  -2   8   4 23.0300 1.43000   1
  -2   8   4 24.1800 2.10000   1
  -8   5   1 48.4000 2.51000   1
   8  -5  -1 52.7500 2.85000   1
  -8   5   1 44.9100 2.54000   1
  -8   5   1 55.9600 2.82000   1
  -8   5   1 56.4400 3.10000   1
   8  -5  -1 47.5800 2.70000   1
   2 -10   3 1.75000 0.39000   1
   2 -10   3 0.81000 0.28000   1
  -2  10  -3 2.50000 0.70000   1
  -3   3   9 6.32000 0.94000   1
   3  -3  -9 5.38000 0.61000   1
   3  -3  -9 3.08000 1.02000   1
   6   5  -1 16.5400 1.60000   1
   6   5  -1 14.1000 1.59000   1
  -6  -5   1 14.8300 1.49000   1
   1   9   0 0.48000 0.62000   1
   1   9   0 2.03000 0.81000   1
   5   7  -4 18.7800 1.74000   1
   5   7  -4 17.5300 1.91000   1
  -3  -3  -6 5.84000 1.15000   1
   3   3   6 7.62000 1.21000   1
   3   3   6 6.89000 0.74000   1
  -3  -3  -6 7.74000 0.73000   1
   7   4  -6 24.9700 2.21000   1
  -7  -4   6 25.0700 2.14000   1
   7   4  -6 22.7300 2.16000   1
  -1  10  -2 -0.8100 0.80000   1
  -1  10  -2 4.86000 0.55000   1
   5   7  -5 1.74000 0.81000   1
   5   7  -5 0.71000 0.53000   1
   4  -8  -4 28.8200 1.68000   1
  -4   8   4 32.5300 1.94000   1
  -4   8   4 33.4100 2.46000   1
   4  -8  -4 33.4400 2.52000   1
   2   8  -8 0.57000 0.76000   1
  -2  -8   8 1.07000 0.77000   1
   2   8  -8 0.58000 0.84000   1
   4   5   3 15.4800 1.44000   1
   4   5   3 13.3500 1.37000   1
  -4  -5  -3 12.4700 1.52000   1
   3  -1   8 48.2800 2.44000   1
  -3   1  -8 47.3800 3.44000   1
   3  -1   8 51.6600 3.47000   1
   3  -1   8 46.1300 2.66000   1
  -3   1  -8 47.1700 2.69000   1
   4   6  -9 5.52000 0.87000   1
   4   6  -9 6.70000 1.28000   1
   4   6  -9 5.90000 1.15000   1
  -4  -6   9 7.94000 1.27000   1
   6  -3   5 2.57000 0.64000   1
  -6   3  -5 1.10000 0.83000   1
  -7   7   2 25.4800 1.52000   1
  -7   7   2 22.2200 1.31000   1
   7  -7  -2 22.1300 1.53000   1
   6  -8  -2 11.1100 1.08000   1
  -6   8   2 10.1800 0.91000   1
  -6   8   2 8.97000 0.99000   1
  -6   4  -5 27.3800 2.11000   1
   6  -4   5 26.3700 1.61000   1
  -8   5   3 0.85000 0.23000   1
  -8   5   3 0.51000 0.34000   1
  -8   5   3 0.51000 0.40000   1
   8  -5  -3 1.62000 0.47000   1
   4  -3  -9 -0.0200 0.67000   1
   4  -3  -9 0.37000 0.36000   1
  -4   3   9 -0.2000 0.29000   1
  -4   3   9 0.06000 0.52000   1
  -6   8  -2 14.4300 1.14000   1
  -6   8  -2 16.0600 1.11000   1
   2  -2   9 3.16000 0.40000   1
  -2   2  -9 3.77000 0.97000   1
  -2   2  -9 2.90000 0.49000   1
   2  -2   9 4.47000 0.79000   1
   2  -2   9 2.93000 0.39000   1
  -1   8  -8 -0.2100 0.76000   1
  -1   8  -8 0.71000 0.40000   1
   1  -8   8 -0.9300 0.38000   1
  -5  -5   9 6.42000 1.22000   1
   5   5  -9 8.38000 1.27000   1
   5   5  -9 7.68000 1.35000   1
   5   5  -9 6.31000 0.92000   1
   8   2  -4 27.3700 1.86000   1
  -8  -2   4 23.7200 1.61000   1
   8   2  -4 28.8200 2.18000   1
   8   2  -4 28.3700 2.01000   1
  -1  10  -4 6.25000 0.98000   1
   1 -10   4 5.20000 0.77000   1
  -5  -6   8 28.3900 2.56000   1
   5   6  -8 30.6100 2.62000   1
  -5   9  -2 6.22000 0.57000   1
  -5   9  -2 6.50000 0.67000   1
   0  -9   7 3.89000 0.66000   1
   0   9  -7 3.60000 0.81000   1
   0   9  -7 4.20000 1.09000   1
  -3   6  -8 9.09000 0.87000   1
   3  -6   8 8.74000 0.83000   1
   3  -6   8 7.24000 0.43000   1
  -3   6  -8 9.44000 1.21000   1
  -1   0  10 0.78000 0.73000   1
   1   0 -10 0.80000 0.60000   1
   1   0 -10 -0.0800 0.62000   1
  -3   1  10 71.0000 4.54000   1
   3  -1 -10 63.9900 4.51000   1
   3  -1 -10 67.1800 3.89000   1
   6   3   2 9.99000 1.35000   1
  -6  -3  -2 10.7000 1.28000   1
   6   3   2 10.2900 0.97000   1
  -5   1  -6 9.53000 0.57000   1
   5  -1   6 11.1900 1.22000   1
   5  -1   6 9.44000 0.52000   1
  -5   1  -6 10.3800 1.23000   1
   5  -1   6 9.03000 0.53000   1
   2  -5   9 12.6200 0.72000   1
  -2   5  -9 14.4800 1.01000   1
  -2   5  -9 16.5100 1.68000   1
   2  -5   9 15.8500 1.22000   1
  -4   9   2 14.0900 0.87000   1
   4  -9  -2 15.3800 1.62000   1
  -4   9   2 17.4100 1.53000   1
   4  -9  -2 12.8200 0.75000   1
  -2  -9   6 2.42000 0.84000   1
   2   9  -6 3.72000 0.92000   1
   4   3   5 19.9900 1.86000   1
  -4  -3  -5 18.6000 1.21000   1
  -4  -3  -5 23.2700 1.96000   1
   4   3   5 20.7900 1.36000   1
   4   8  -4 15.2700 1.74000   1
   4   8  -4 14.8700 1.58000   1
   7  -5   3 5.98000 0.59000   1
  -7   5  -3 5.22000 0.84000   1
  -7   5  -3 5.05000 0.35000   1
  -7   5  -3 4.74000 0.54000   1
   2 -10   1 4.69000 0.46000   1
  -2  10  -1 6.21000 0.99000   1
  -2  10  -1 5.51000 0.57000   1
   1  -4  -8 15.5400 1.43000   1
   1  -4  -8 20.3500 1.52000   1
  -1   4   8 14.3400 1.30000   1
  -1   4   8 15.5100 1.52000   1
   4   7   0 4.54000 0.99000   1
  -4  -7   0 3.83000 0.99000   1
   4   7   0 0.47000 0.73000   1
  -7   2   8 17.6100 1.55000   1
   7  -2  -8 21.3100 2.00000   1
   4   8  -5 0.84000 0.79000   1
  -4  -8   5 0.05000 0.83000   1
   4   7  -8 59.6900 4.25000   1
  -4  -7   8 61.0500 4.27000   1
  -8  -2   5 2.23000 0.81000   1
   8   2  -5 0.47000 0.64000   1
   8   2  -5 1.14000 0.95000   1
  -5   6  -6 2.29000 0.90000   1
  -5   6  -6 1.24000 0.31000   1
   5  -6   6 3.54000 0.45000   1
   8  -4  -5 77.6500 4.88000   1
  -8   4   5 79.0700 4.74000   1
   5   3 -10 3.66000 0.57000   1
   5   3 -10 2.68000 1.04000   1
  -5  -3  10 4.24000 0.90000   1
   5   3 -10 4.95000 1.08000   1
   5   7  -3 1.27000 0.96000   1
   5   7  -3 1.58000 0.84000   1
   5   0 -10 11.3400 0.87000   1
   5   0 -10 14.3100 1.57000   1
  -5   0  10 14.9000 1.45000   1
  -1   9   2 10.4500 0.94000   1
  -1   9   2 8.67000 1.26000   1
   1  -9  -2 9.69000 1.31000   1
   0  -5  10 31.4900 2.20000   1
   0   5 -10 30.9300 2.46000   1
   0   5 -10 30.7300 2.01000   1
  -7   7  -1 11.5100 0.85000   1
  -7   7  -1 13.9400 1.07000   1
  -7   7  -1 14.1800 0.89000   1
   7  -7   1 14.1500 0.99000   1
   0  10  -3 6.76000 0.67000   1
   0  10  -3 8.81000 1.10000   1
   4  -1 -10 16.2800 1.07000   1
  -4   1  10 17.0900 1.60000   1
   4  -1 -10 20.5000 1.78000   1
   8   2  -3 29.4900 2.14000   1
   8   2  -3 33.9300 2.49000   1
   8   2  -3 30.0700 1.95000   1
  -8  -2   3 28.7800 1.87000   1
   6   2   3 26.0500 2.08000   1
   6   2   3 21.5500 1.25000   1
  -6  -2  -3 28.7600 2.14000   1
   6   2   3 24.3400 1.67000   1
   1   4   7 18.0300 1.40000   1
   1   4   7 18.5500 1.57000   1
  -1  -4  -7 17.7900 1.41000   1
  -1  -4  -7 17.2100 1.64000   1
  -2  -3  -7 11.6800 1.37000   1
   2   3   7 8.73000 1.12000   1
   2   3   7 10.1000 0.89000   1
  -2  -3  -7 9.05000 0.88000   1
   2   7   3 11.4000 1.23000   1
   2   7   3 11.0100 1.36000   1
  -2  -7  -3 12.3500 1.31000   1
  -2  -7  -3 13.4400 1.34000   1
   3 -10   2 1.11000 0.26000   1
  -3  10  -2 4.56000 0.63000   1
   2 -10   4 47.2200 2.52000   1
   2 -10   4 37.6800 2.06000   1
  -2  10  -4 48.0100 3.01000   1
  -2  10  -4 53.4100 3.48000   1
   1   9  -7 0.25000 0.81000   1
   1   9  -7 -0.6500 0.66000   1
  -1  -9   7 -0.1000 0.61000   1
  -5  -7   6 13.7800 1.71000   1
   5   7  -6 13.6700 1.66000   1
   6  -2   5 13.0900 1.12000   1
  -6   2  -5 13.1200 1.22000   1
  -2   3   9 1.09000 0.68000   1
   2  -3  -9 0.66000 0.45000   1
   2  -3  -9 0.03000 0.63000   1
  -2   3   9 0.76000 0.67000   1
   5  -9  -1 52.9600 3.68000   1
  -5   9   1 56.0800 3.49000   1
  -5   9   1 57.0900 3.07000   1
   6   6  -5 21.4200 2.08000   1
   6   6  -5 15.7800 1.73000   1
  -7   1  -3 -0.1500 0.58000   1
  -7   1  -3 0.11000 0.20000   1
   7  -1   3 -0.1100 0.29000   1
   7  -1   3 0.47000 0.54000   1
   8  -3   1 3.65000 0.51000   1
  -8   3  -1 4.05000 0.46000   1
  -8   3  -1 2.31000 0.65000   1
  -8   3   6 5.23000 0.70000   1
   8  -3  -6 8.17000 1.06000   1
   6   6  -4 4.41000 1.03000   1
   6   6  -4 4.65000 1.00000   1
   5   6   0 -0.2600 0.58000   1
  -5  -6   0 1.04000 0.69000   1
   5   6   0 -0.2200 0.70000   1
   1  -9   7 18.5400 1.25000   1
  -1   9  -7 21.2200 1.45000   1
  -1   9  -7 20.6300 1.80000   1
   7   2   1 10.0000 0.76000   1
  -7  -2  -1 10.3700 1.33000   1
   7   2   1 16.7400 1.17000   1
   7   2   1 12.1800 1.47000   1
   0 -10   4 2.54000 0.57000   1
   0  10  -4 6.44000 0.96000   1
  -8   5   0 7.54000 0.55000   1
  -8   5   0 5.66000 0.61000   1
  -8   5   0 4.87000 0.45000   1
  -8   5   0 7.31000 0.57000   1
   8  -5   0 6.56000 0.52000   1
   6  -5   5 48.5400 2.74000   1
  -6   5  -5 53.8100 3.36000   1
   7  -5  -6 7.22000 1.20000   1
  -7   5   6 7.06000 0.74000   1
   7   4  -2 12.8800 1.50000   1
   7   4  -2 11.3500 1.53000   1
  -7  -4   2 14.0900 1.36000   1
  -1  10  -1 2.30000 0.88000   1
  -1  10  -1 2.65000 0.45000   1
   8   1  -1 16.4200 1.55000   1
   8   1  -1 17.0800 1.24000   1
   8   1  -1 18.6700 1.37000   1
  -8  -1   1 14.5700 1.20000   1
   0  -1  10 1.71000 0.79000   1
   0   1 -10 0.42000 0.59000   1
   0   1 -10 0.49000 0.61000   1
   6   4   1 4.40000 0.69000   1
  -6  -4  -1 0.50000 0.86000   1
   6   4   1 1.57000 0.91000   1
   4   8  -3 21.6600 2.09000   1
   4   8  -3 22.8400 1.90000   1
   1   7   4 4.42000 0.77000   1
  -1  -7  -4 3.84000 1.03000   1
  -1  -7  -4 2.80000 0.94000   1
   1   7   4 6.42000 1.03000   1
   6  -5  -7 20.1500 1.94000   1
  -6   5   7 19.1100 1.21000   1
   2  -1 -10 1.45000 0.60000   1
  -2   1  10 0.60000 0.70000   1
   2  -1 -10 1.41000 0.80000   1
   8   0   0 10.1200 0.88000   1
  -8   0   0 10.4300 1.06000   1
   8   0   0 7.88000 0.63000   1
   8   0   0 8.60000 1.10000   1
  -3  10  -1 48.3000 2.89000   1
   3 -10   1 38.4000 1.88000   1
  -8   2  -1 8.57000 0.71000   1
   8  -2   1 12.0600 0.93000   1
  -8   2  -1 9.99000 1.01000   1
  -6   6   6 8.90000 0.64000   1
   6  -6  -6 7.76000 1.27000   1
  -6   6   6 8.02000 0.43000   1
   4  -8   6 6.98000 0.60000   1
   4  -8   6 6.13000 0.45000   1
  -4   8  -6 6.60000 1.05000   1
  -4   8  -6 5.46000 0.55000   1
  -4   8  -6 6.25000 0.53000   1
   3 -10   3 22.3300 1.06000   1
  -3  10  -3 28.2000 2.02000   1
  -3  10  -3 25.4200 1.73000   1
   3 -10   3 26.5900 1.26000   1
   3   7  -9 25.0800 2.21000   1
  -3  -7   9 27.6300 2.08000   1
   3   7  -9 26.3700 2.06000   1
  -3   8  -7 14.3500 1.02000   1
   3  -8   7 14.0400 0.89000   1
   3  -8   7 12.4800 0.80000   1
  -3   8  -7 16.5700 1.50000   1
   8   0  -7 32.1300 1.57000   1
  -8   0   7 37.9800 2.67000   1
   8   0  -7 39.4300 2.86000   1
   0  10  -2 3.54000 0.56000   1
   0  10  -2 6.52000 1.00000   1
  -2  -6  10 15.4000 1.41000   1
   2   6 -10 15.2300 1.71000   1
   2   6 -10 15.7700 1.33000   1
   2   6 -10 14.5000 1.44000   1
   7  -4  -7 1.96000 0.89000   1
  -7   4   7 2.19000 0.54000   1
   6  -2  -9 5.93000 1.19000   1
   6  -2  -9 5.55000 0.34000   1
  -6   2   9 6.25000 0.93000   1
  -6   7  -4 13.8500 0.80000   1
   6  -7   4 15.5300 0.81000   1
  -6   7  -4 14.4400 0.83000   1
  -6   7  -4 17.2900 1.47000   1
  -6   7  -4 16.8400 0.91000   1
  -8   1   7 38.4500 2.32000   1
   8  -1  -7 33.0200 2.48000   1
   8  -1  -7 27.6300 1.11000   1
   8  -1  -7 26.6000 1.11000   1
  -1  -6  10 2.52000 0.83000   1
   1   6 -10 5.29000 0.70000   1
   1   6 -10 6.21000 1.07000   1
   1   6 -10 5.36000 1.07000   1
   8  -5  -4 99.5800 6.05000   1
  -8   5   4 98.7700 5.65000   1
  -8   5   4 82.6200 4.04000   1
  -8   5   4 83.5100 4.98000   1
   7  -7  -3 4.90000 0.75000   1
  -7   7   3 4.59000 0.61000   1
  -7   7   3 3.17000 0.40000   1
   2   9  -1 0.73000 0.68000   1
   2   9  -1 1.85000 0.88000   1
   7   1   2 0.49000 0.52000   1
   7   1   2 0.18000 0.20000   1
  -7  -1  -2 1.34000 0.72000   1
   7   1   2 0.50000 0.66000   1
  -8   4  -1 4.92000 0.59000   1
   8  -4   1 6.12000 0.67000   1
  -8   4  -1 6.45000 0.64000   1
  -8   4  -1 4.26000 0.53000   1
   4   6   2 5.50000 0.99000   1
  -4  -6  -2 6.45000 1.17000   1
   4   6   2 4.59000 1.02000   1
   4   8  -6 69.0200 4.96000   1
  -4  -8   6 74.3200 5.25000   1
   6   5  -8 17.0400 1.99000   1
   6   5  -8 18.2300 1.84000   1
  -6  -5   8 19.8800 2.06000   1
   7   3  -8 31.6200 2.51000   1
   7   3  -8 35.4400 2.91000   1
  -7  -3   8 34.1100 2.65000   1
   7   3   0 27.3400 1.92000   1
  -7  -3   0 24.8900 2.06000   1
   7   3   0 28.5500 2.28000   1
   3   8   0 16.7500 1.91000   1
   3   8   0 22.7500 1.82000   1
   5  -3  -9 5.35000 0.44000   1
  -5   3   9 3.95000 0.35000   1
  -5   3   9 5.89000 0.87000   1
   5  -3  -9 5.93000 1.18000   1
   1  -8  -4 22.7700 1.68000   1
  -1   8   4 21.8800 2.01000   1
   1  -8  -4 25.5600 2.09000   1
  -1   8   4 22.7600 1.55000   1
   4   5 -10 3.59000 1.02000   1
   4   5 -10 2.65000 0.84000   1
  -4  -5  10 3.53000 1.09000   1
   4   5 -10 6.41000 1.10000   1
  -1   7  -9 31.1200 2.51000   1
  -1   7  -9 31.4700 2.02000   1
  -1   7  -9 28.9000 1.78000   1
   1  -7   9 30.6200 2.08000   1
   1 -10   5 21.0900 1.33000   1
  -1  10  -5 21.8300 1.94000   1
  -1  10  -5 24.5800 1.75000   1
   6   6  -6 23.0300 2.38000   1
  -6  -6   6 26.8100 2.41000   1
   8   2  -6 17.1500 1.92000   1
  -8  -2   6 17.1300 1.68000   1
   8   2  -6 14.6300 1.60000   1
   7   4  -7 8.22000 1.31000   1
   7   4  -7 5.80000 1.38000   1
  -7  -4   7 8.27000 1.28000   1
  -5   9  -3 1.90000 0.53000   1
  -5   9  -3 4.01000 0.50000   1
  -7   6   5 8.52000 0.75000   1
   7  -6  -5 11.2000 1.10000   1
   7  -6  -5 6.48000 0.58000   1
   6   6  -3 3.41000 0.94000   1
   6   6  -3 2.80000 1.15000   1
  -2   1  -9 22.7300 1.90000   1
  -2   1  -9 22.7200 1.36000   1
   2  -1   9 25.8600 1.99000   1
   2  -1   9 19.8800 1.21000   1
   2  -1   9 25.2800 1.40000   1
   3   7   2 4.00000 0.90000   1
   3   7   2 5.42000 1.02000   1
  -3  -7  -2 3.35000 1.09000   1
  -5   8   4 2.23000 0.77000   1
  -5   8   4 1.64000 0.40000   1
  -5   8   4 2.06000 0.46000   1
   5  -8  -4 2.58000 0.91000   1
   5  -8  -4 2.31000 0.36000   1
   5   4   3 41.0700 2.44000   1
   5   4   3 33.7700 2.64000   1
  -5  -4  -3 34.0100 2.57000   1
   3  -9   6 15.3700 0.95000   1
   3  -9   6 11.1300 0.71000   1
  -3   9  -6 15.5100 1.48000   1
  -3   9  -6 16.1300 1.09000   1
   0   6   6 8.42000 1.19000   1
   0  -6  -6 7.56000 1.00000   1
   0  -6  -6 8.52000 1.06000   1
   0   6   6 7.42000 1.01000   1
   0   2   9 22.8900 1.45000   1
   0  -2  -9 22.9700 1.76000   1
   0   2   9 18.9100 1.69000   1
   0  -2  -9 18.6900 1.63000   1
  -3   6   7 29.4700 2.22000   1
  -3   6   7 27.4400 1.84000   1
   3  -6  -7 29.1400 2.24000   1
   3  -6  -7 28.2600 1.68000   1
   6   4  -9 0.66000 0.48000   1
  -6  -4   9 0.95000 0.85000   1
   6   4  -9 -0.5800 0.82000   1
   6   4  -9 -0.4500 0.88000   1
  -2  10   0 8.32000 0.87000   1
   2 -10   0 8.68000 1.25000   1
  -2  10   0 9.27000 1.26000   1
   0 -10   5 -0.0900 0.43000   1
   0  10  -5 -0.1200 0.60000   1
  -4   0  -7 11.9100 1.30000   1
  -4   0  -7 10.3600 0.82000   1
   4   0   7 12.7600 1.40000   1
   4   0   7 11.8100 0.74000   1
   4   0   7 9.69000 0.70000   1
   8   1  -7 3.54000 1.14000   1
  -8  -1   7 5.59000 0.87000   1
   8   1  -7 3.84000 0.44000   1
   8   1  -7 3.92000 1.06000   1
   8   2  -2 10.1000 1.09000   1
  -8  -2   2 7.43000 1.04000   1
   8   2  -2 11.0400 1.29000   1
   8   2  -2 10.5100 1.11000   1
  -4   6   7 38.2600 2.27000   1
  -4   6   7 39.4000 2.97000   1
   4  -6  -7 44.8300 2.48000   1
   4  -6  -7 45.8500 3.32000   1
  -4   6   7 42.8700 2.46000   1
   6  -8  -3 18.7600 1.64000   1
   6  -8  -3 16.0700 0.80000   1
  -6   8   3 19.5100 1.60000   1
  -6   8   3 21.0300 1.23000   1
  -6   8   3 15.9700 0.98000   1
  -6   8   3 17.5100 0.90000   1
   6  -4  -8 20.6600 1.98000   1
  -6   4   8 19.4400 1.42000   1
   2  -6   9 21.0800 1.15000   1
   2  -6   9 26.8200 1.80000   1
  -2   6  -9 26.2900 1.73000   1
  -2   6  -9 25.1900 2.18000   1
   5   3   4 40.0000 2.37000   1
   5   3   4 41.7300 2.94000   1
  -5  -3  -4 35.8700 2.89000   1
  -6   8  -3 0.85000 0.46000   1
  -6   8  -3 1.60000 0.57000   1
  -6   8  -3 1.31000 0.40000   1
   5   7  -2 6.42000 1.30000   1
   5   7  -2 9.98000 1.24000   1
   0   5   7 0.75000 0.72000   1
   0  -5  -7 1.27000 0.80000   1
   0  -5  -7 2.46000 0.82000   1
   0   5   7 2.83000 0.75000   1
   4  -9   5 5.95000 0.39000   1
   4  -9   5 8.11000 0.48000   1
  -4   9  -5 7.60000 1.07000   1
  -4   9  -5 8.26000 0.65000   1
   3   2   7 8.35000 1.16000   1
   3   2   7 5.79000 0.77000   1
  -3  -2  -7 6.38000 0.78000   1
  -3  -2  -7 8.31000 1.16000   1
  -3  10   0 6.08000 0.59000   1
  -3  10   0 10.0100 1.07000   1
   3 -10   0 7.94000 1.19000   1
   3 -10   0 5.44000 0.44000   1
   4   2   6 7.05000 0.81000   1
   4   2   6 10.4700 1.29000   1
  -4  -2  -6 8.59000 0.82000   1
  -4  -2  -6 9.30000 1.27000   1
   6   1   4 28.7800 1.50000   1
   6   1   4 31.2200 2.17000   1
  -6  -1  -4 28.9500 1.75000   1
   6   1   4 34.2600 1.96000   1
  -6  -1  -4 36.6400 2.54000   1
  -1  -1  -9 31.5500 1.95000   1
  -1  -1  -9 31.7200 2.39000   1
   1   1   9 29.1600 1.73000   1
   1   1   9 32.0600 2.47000   1
   5   4 -10 7.02000 1.24000   1
   5   4 -10 4.92000 0.69000   1
   5   4 -10 5.53000 1.12000   1
  -5  -4  10 6.44000 1.26000   1
   3   8  -8 6.23000 1.24000   1
  -3  -8   8 7.10000 1.14000   1
  -8   1  -1 1.89000 0.46000   1
   8  -1   1 3.25000 0.61000   1
   8  -1   1 3.81000 0.56000   1
  -8   1  -1 2.89000 0.70000   1
   8  -1   1 1.96000 0.23000   1
   5  -1 -10 4.80000 0.53000   1
   5  -1 -10 6.08000 1.14000   1
  -5   1  10 5.68000 0.89000   1
  -8   2   7 4.77000 0.91000   1
   8  -2  -7 7.37000 1.01000   1
  -4   7  -7 0.16000 0.20000   1
   4  -7   7 0.23000 0.14000   1
  -4   7  -7 -0.6300 0.65000   1
  -4   7  -7 0.68000 0.43000   1
   4  -7   7 0.01000 0.42000   1
  -4   7  -7 0.23000 0.32000   1
   3   9  -4 2.64000 0.82000   1
   3   9  -4 3.69000 0.96000   1
  -7   6  -3 23.3100 1.26000   1
  -7   6  -3 23.3600 1.15000   1
  -7   6  -3 31.0500 1.89000   1
  -7   6  -3 26.8400 1.33000   1
   7  -6   3 26.7500 1.34000   1
   3  -7  -6 45.2400 2.51000   1
  -3   7   6 37.7600 2.19000   1
   3  -7  -6 36.1600 2.73000   1
  -3   7   6 37.4200 2.83000   1
   3   6 -10 1.91000 0.91000   1
  -3  -6  10 1.06000 0.92000   1
   3   6 -10 1.69000 0.83000   1
   3   6 -10 1.02000 0.71000   1
  -3   0  -8 3.60000 1.02000   1
  -3   0  -8 4.68000 0.67000   1
   3   0   8 4.31000 1.01000   1
   3   0   8 4.55000 0.55000   1
  -5   8  -5 5.08000 0.48000   1
  -5   8  -5 4.73000 0.54000   1
   5  -8   5 5.00000 0.39000   1
  -5   8  -5 3.96000 0.36000   1
  -5   8  -5 5.28000 0.85000   1
   6  -1   5 15.2700 0.78000   1
  -6   1  -5 15.0100 1.54000   1
   6  -1   5 17.5800 1.34000   1
  -1   3 -10 0.70000 0.83000   1
   1  -3  10 0.16000 0.34000   1
  -1   3 -10 0.66000 0.43000   1
   1  -3  10 0.95000 0.62000   1
  -6   7   5 12.2900 1.26000   1
   6  -7  -5 7.92000 0.64000   1
   6  -7  -5 11.9600 1.42000   1
  -6   7   5 10.2200 0.60000   1
  -6   7   5 10.1000 0.57000   1
  -6   7   5 10.6800 0.83000   1
   4   8  -2 -0.1300 0.56000   1
   4   8  -2 0.64000 0.70000   1
  -5  -7   7 25.5600 2.43000   1
   5   7  -7 28.3400 2.37000   1
   3 -10   4 30.0300 1.50000   1
  -3  10  -4 33.6900 2.47000   1
  -3  10  -4 33.4100 1.94000   1
  -2  10  -5 9.07000 0.82000   1
   2 -10   5 6.37000 0.53000   1
  -2  10  -5 8.42000 1.15000   1
   2 -10   5 6.62000 0.69000   1
   1  -4  10 -0.2400 0.65000   1
  -1   4 -10 1.20000 0.65000   1
   1  -4  10 0.58000 0.32000   1
  -1   4 -10 0.18000 0.53000   1
  -7   7  -2 4.13000 0.62000   1
  -7   7  -2 4.47000 0.57000   1
  -7   7  -2 2.55000 0.40000   1
  -2  -9   7 8.92000 1.06000   1
   2   9  -7 9.09000 1.33000   1
  -3   5   8 10.2500 1.35000   1
   3  -5  -8 10.9200 0.86000   1
   3  -5  -8 11.7600 1.40000   1
  -3   5   8 10.6100 0.99000   1
  -8   6   2 1.29000 0.29000   1
  -8   6   2 2.81000 0.39000   1
  -8   6   2 1.74000 0.28000   1
   8  -6  -2 2.30000 0.63000   1
  -3   9   3 10.7500 0.89000   1
   3  -9  -3 8.41000 1.47000   1
  -3   9   3 12.9900 1.35000   1
  -4   7   6 9.23000 0.74000   1
  -4   7   6 11.9000 1.32000   1
   4  -7  -6 10.5700 1.36000   1
  -4   7   6 8.26000 0.77000   1
  -3  -9   5 10.2000 1.28000   1
   3   9  -5 12.6500 1.51000   1
  -8   6   1 31.1400 1.52000   1
  -8   6   1 32.8600 1.83000   1
  -8   6   1 30.4700 1.46000   1
   8  -6  -1 31.5000 1.75000   1
   8  -6  -1 27.8200 1.63000   1
  -4   5   8 42.1800 3.08000   1
  -4   5   8 45.7100 2.71000   1
  -4   5   8 37.1300 2.18000   1
   4  -5  -8 46.6700 2.51000   1
   4  -5  -8 45.2800 3.26000   1
   0  -7  -5 30.5100 2.50000   1
   0   7   5 36.2800 2.77000   1
   0   7   5 34.9800 2.24000   1
   0  -7  -5 36.8200 2.66000   1
  -2   8  -8 21.5500 1.48000   1
   2  -8   8 17.6000 1.10000   1
  -2   8  -8 21.0900 1.86000   1
   2  -8   8 23.1000 1.39000   1
  -5   9   2 10.8800 1.25000   1
   5  -9  -2 8.22000 0.46000   1
   5  -9  -2 12.3500 1.41000   1
  -5   9   2 9.32000 0.55000   1
   5   5   2 7.43000 1.15000   1
  -5  -5  -2 5.65000 1.04000   1
   5   5   2 5.25000 0.84000   1
  -6   6  -5 4.64000 0.98000   1
  -6   6  -5 4.49000 0.54000   1
   6  -6   5 6.46000 0.67000   1
   0  10  -1 30.8000 2.31000   1
   0  10  -1 30.5400 1.85000   1
   0  -6  10 0.75000 0.69000   1
   0   6 -10 0.94000 0.48000   1
   0   6 -10 0.64000 0.81000   1
   0   6 -10 -0.4500 0.60000   1
   7   1  -9 10.1500 0.69000   1
  -7  -1   9 12.2900 1.47000   1
   7   1  -9 8.58000 0.61000   1
   7   1  -9 12.9600 1.51000   1
  -2   9  -7 8.78000 0.76000   1
   2  -9   7 6.27000 0.65000   1
  -2   9  -7 11.0200 1.26000   1
   7   0  -9 18.9400 0.97000   1
  -7   0   9 21.6900 1.89000   1
   7   0  -9 21.5800 2.08000   1
   7   0  -9 19.7100 0.98000   1
  -1 -10   4 19.6300 1.50000   1
   1  10  -4 20.3300 1.89000   1
  -7   3   8 0.04000 0.43000   1
   7  -3  -8 1.31000 0.85000   1
   5   0   6 22.0700 1.17000   1
  -5   0  -6 27.0600 1.39000   1
  -5   0  -6 27.3900 2.09000   1
   5   0   6 28.9300 2.10000   1
   5   0   6 26.9800 1.39000   1
  -1  10   0 8.49000 0.73000   1
  -1  10   0 8.82000 1.22000   1
  -8   5  -1 42.9700 2.45000   1
   8  -5   1 37.8100 2.01000   1
  -8   5  -1 36.1900 2.02000   1
  -8   5  -1 35.6800 1.72000   1
  -8   5  -1 34.9000 1.97000   1
   8  -5   1 40.1300 1.80000   1
   3  -7   8 4.55000 0.36000   1
   3  -7   8 4.78000 0.61000   1
  -3   7  -8 6.71000 1.00000   1
  -3   7  -8 4.49000 0.45000   1
  -3   7  -8 6.27000 0.76000   1
   6   5   0 3.43000 1.04000   1
   6   5   0 3.93000 0.94000   1
  -6  -5   0 2.82000 0.96000   1
   1   3   8 9.92000 1.20000   1
   1   3   8 9.88000 1.04000   1
  -1  -3  -8 8.97000 0.91000   1
  -1  -3  -8 9.64000 1.08000   1
   1  10  -3 1.36000 0.90000   1
   1  10  -3 4.98000 0.69000   1
   3   9  -3 76.6000 5.38000   1
   3   9  -3 77.4900 4.88000   1
   2  -6  -7 -0.4500 0.43000   1
  -2   6   7 0.64000 0.65000   1
   2  -6  -7 -0.9600 0.68000   1
  -2   6   7 0.33000 0.45000   1
   4 -10   1 8.61000 1.12000   1
  -4  10  -1 5.83000 0.74000   1
  -4  10  -1 6.41000 0.90000   1
  -1   3   9 10.9900 1.19000   1
   1  -3  -9 8.72000 1.06000   1
   1  -3  -9 10.0900 1.09000   1
  -1   3   9 11.3200 1.21000   1
   1   9   1 30.3600 1.97000   1
   1   9   1 29.8700 2.39000   1
  -4  10  -2 23.4800 1.65000   1
  -4  10  -2 27.8800 1.72000   1
  -2   9   3 8.90000 1.22000   1
  -2   9   3 8.05000 0.69000   1
   2  -9  -3 9.93000 1.39000   1
   1  -1 -10 18.4200 1.70000   1
  -1   1  10 19.8700 1.75000   1
   1  -1 -10 20.3800 1.52000   1
  -3  -2  11 0.76000 0.82000   1
   3   2 -11 0.69000 0.52000   1
   3   2 -11 0.45000 0.78000   1
  -3  -3  11 2.33000 0.93000   1
   3   3 -11 1.60000 0.92000   1
   3   3 -11 2.65000 0.71000   1
   7   0   3 14.2500 1.45000   1
   7   0   3 15.3500 1.03000   1
  -7   0  -3 15.0700 1.42000   1
  -7   0  -3 11.8300 0.82000   1
   7   0   3 13.4100 0.64000   1
  -5   7  -6 2.88000 0.45000   1
   5  -7   6 3.67000 0.53000   1
  -5   7  -6 2.09000 0.35000   1
  -5   7  -6 3.79000 0.89000   1
   6   1 -10 1.36000 0.40000   1
   6   1 -10 1.91000 0.83000   1
  -6  -1  10 0.65000 0.84000   1
   2   3 -11 0.42000 0.80000   1
  -2  -3  11 1.30000 0.82000   1
   2   3 -11 1.04000 0.60000   1
   0  -9  -2 10.9200 1.36000   1
   0   9   2 10.7100 1.40000   1
   0   9   2 9.03000 1.00000   1
   0   0 -10 9.09000 1.04000   1
   0   0 -10 10.4100 1.28000   1
   0   0  10 9.26000 1.32000   1
  -1   2 -10 22.2200 1.42000   1
   1  -2  10 23.8200 2.00000   1
  -1   2 -10 24.8200 2.05000   1
   1  -2  10 18.4200 1.21000   1
   7   4  -1 33.7600 2.56000   1
   7   4  -1 35.1400 2.67000   1
  -7  -4   1 30.6900 2.41000   1
  -6  -6   7 6.49000 1.39000   1
   6   6  -7 9.36000 1.43000   1
  -4  -8   7 30.9600 2.33000   1
   4   8  -7 28.0200 2.48000   1
  -1  -8   9 6.14000 1.06000   1
   1   8  -9 6.49000 0.98000   1
   1   8  -9 5.20000 1.15000   1
  -8   4   6 1.45000 0.59000   1
   8  -4  -6 1.61000 0.79000   1
   7   5  -5 4.75000 0.92000   1
   7   5  -5 8.61000 1.31000   1
  -4   9   3 20.7100 1.80000   1
  -4   9   3 19.7900 1.28000   1
   4  -9  -3 28.7300 2.19000   1
   4  -9  -3 17.4200 1.10000   1
   2  -7  -6 4.85000 0.69000   1
  -2   7   6 5.93000 0.72000   1
   2  -7  -6 4.37000 1.05000   1
  -2   7   6 5.94000 1.07000   1
   8  -6  -3 2.27000 0.59000   1
  -8   6   3 1.32000 0.31000   1
  -8   6   3 2.29000 0.28000   1
  -8   6   3 2.16000 0.34000   1
  -3   2  10 13.0800 1.38000   1
   3  -2 -10 11.9500 0.92000   1
   3  -2 -10 16.4700 1.63000   1
   5  -6  -7 2.73000 0.81000   1
  -5   6   7 1.13000 0.27000   1
  -5   6   7 1.67000 0.82000   1
  -5   6   7 1.73000 0.46000   1
  -2  -2  11 36.1400 2.73000   1
   2   2 -11 37.8000 2.50000   1
   2   2 -11 33.4200 2.51000   1
   6   6  -2 4.34000 1.03000   1
  -6  -6   2 5.96000 1.05000   1
   6   6  -2 3.37000 1.10000   1
  -1  -8  -3 23.9500 2.06000   1
   1   8   3 25.3800 1.74000   1
   1   8   3 23.6000 2.13000   1
  -1  -8  -3 24.3100 1.98000   1
  -6  -2  10 7.50000 1.13000   1
   6   2 -10 3.72000 0.69000   1
   6   2 -10 7.49000 1.24000   1
   8   3  -4 28.0400 2.00000   1
   8   3  -4 29.3300 2.41000   1
  -8  -3   4 29.1400 1.89000   1
   8   3  -4 30.4400 2.47000   1
   7   5  -4 17.1900 1.92000   1
   7   5  -4 18.1400 1.90000   1
   8  -6   0 0.80000 0.35000   1
  -8   6   0 0.30000 0.37000   1
  -8   6   0 0.64000 0.28000   1
  -8   6   0 0.77000 0.22000   1
  -8   6   0 0.20000 0.27000   1
   7  -3   4 3.39000 0.55000   1
  -7   3  -4 1.95000 0.79000   1
  -1   5 -10 10.5300 0.89000   1
  -1   5 -10 8.80000 1.16000   1
   1  -5  10 9.57000 1.16000   1
   1  -5  10 7.73000 0.66000   1
  -1 -10   5 5.82000 0.81000   1
   1  10  -5 3.93000 1.06000   1
  -8  -3   5 6.85000 1.14000   1
   8   3  -5 4.44000 0.91000   1
   8   3  -5 3.82000 1.24000   1
  -7   4  -4 21.8700 1.78000   1
   7  -4   4 20.6600 1.29000   1
  -7  -2   9 -0.8000 0.62000   1
   7   2  -9 1.02000 0.84000   1
   7   2  -9 -0.1000 0.29000   1
   7   2  -9 0.33000 0.77000   1
   7   2  -9 0.18000 0.27000   1
  -4   2  10 13.1300 1.35000   1
   4  -2 -10 15.8900 1.61000   1
  -4   2  10 9.57000 0.86000   1
   4  -2 -10 15.0000 1.04000   1
  -8   5   5 12.1400 0.88000   1
   8  -5  -5 13.5400 1.36000   1
  -4   4  -8 22.3600 1.75000   1
  -4   4  -8 20.0000 1.11000   1
   4  -4   8 24.5100 1.81000   1
  -2  -2  -8 5.98000 0.99000   1
   2   2   8 4.77000 1.09000   1
   2   2   8 6.22000 0.69000   1
  -2  -2  -8 6.67000 0.75000   1
   5   2   5 29.3600 1.74000   1
   5   2   5 34.5100 1.91000   1
   5   2   5 32.5300 2.49000   1
  -5  -2  -5 29.0000 2.40000   1
   2   8   2 3.35000 0.96000   1
   2   8   2 4.32000 0.91000   1
  -2  -8  -2 3.53000 1.08000   1
  -8  -2   7 0.21000 0.71000   1
   8   2  -7 -0.7900 0.73000   1
   8   2  -7 0.56000 0.69000   1
  -7   7   4 22.1600 1.09000   1
   7  -7  -4 19.3200 1.02000   1
   7  -7  -4 23.0400 1.68000   1
  -7   7   4 21.8300 1.15000   1
  -7   7   4 20.2400 0.99000   1
  -7   7   4 25.6000 1.86000   1
   3   9  -6 3.26000 1.04000   1
  -3  -9   6 2.75000 0.97000   1
   8   1   0 41.0000 2.26000   1
  -8  -1   0 39.3600 2.52000   1
   8   1   0 41.4300 2.48000   1
   8   1   0 36.7200 2.70000   1
   8   1   0 33.7200 1.89000   1
   7  -1  -9 3.85000 1.10000   1
  -7   1   9 4.24000 0.93000   1
   0   8  -9 18.6500 1.81000   1
   0  -8   9 16.9300 1.38000   1
   0   8  -9 18.7700 1.35000   1
   2  -5  -8 4.13000 0.65000   1
   2  -5  -8 5.01000 0.95000   1
  -2   5   8 1.32000 0.78000   1
  -2   5   8 3.08000 0.91000   1
   0   4   8 25.1200 1.91000   1
   0  -4  -8 20.7600 1.61000   1
   0  -4  -8 21.2600 1.79000   1
   0   4   8 25.4700 1.84000   1
   6   0 -10 1.10000 0.95000   1
   6   0 -10 1.12000 0.30000   1
  -6   0  10 2.48000 0.71000   1
  -4   3  -8 24.9600 1.32000   1
   4  -3   8 26.4400 2.02000   1
  -4   3  -8 26.2200 2.21000   1
   2   4 -11 16.3000 1.37000   1
   2   4 -11 12.3100 1.36000   1
  -2  -4  11 15.1200 1.62000   1
  -4  10   0 35.5000 2.38000   1
   4 -10   0 36.8000 2.61000   1
   4 -10   0 29.5700 1.37000   1
  -4  10   0 30.2300 1.42000   1
   0 -10   6 12.8300 1.02000   1
   0  10  -6 10.5900 1.12000   1
  -4  10  -3 5.18000 0.62000   1
  -4  10  -3 5.26000 0.73000   1
  -5  -6   9 8.68000 1.26000   1
   5   6  -9 10.8400 1.28000   1
   5   6  -9 7.50000 1.50000   1
  -1  10  -6 6.31000 0.84000   1
  -1  10  -6 9.90000 1.24000   1
   1 -10   6 6.86000 0.70000   1
   1  10  -2 0.65000 0.77000   1
   1  10  -2 0.94000 0.54000   1
   3   1 -11 17.6300 1.75000   1
  -3  -1  11 16.1800 1.61000   1
   3   1 -11 15.5000 1.17000   1
   5  -5  -8 13.7000 1.43000   1
   5  -5  -8 9.83000 0.63000   1
  -5   5   8 8.88000 0.97000   1
  -5   5   8 7.85000 0.56000   1
   9  -2  -3 0.23000 0.30000   1
  -9   2   3 0.35000 0.42000   1
  -9   2   3 0.06000 0.41000   1
   9  -2  -3 -0.3000 0.36000   1
   5  -4   7 0.94000 0.63000   1
  -5   4  -7 1.45000 0.76000   1
  -5   9  -4 2.64000 0.43000   1
  -5   9  -4 0.20000 0.64000   1
  -4  -2  11 2.02000 0.88000   1
   4   2 -11 3.05000 0.55000   1
   4   2 -11 1.94000 1.01000   1
  -3   8   5 15.0000 1.04000   1
  -3   8   5 19.6400 1.74000   1
   3  -8  -5 15.3900 1.69000   1
   3   4 -11 7.19000 0.91000   1
   3   4 -11 5.82000 1.18000   1
  -3  -4  11 7.12000 1.15000   1
   0  -9   8 31.8100 2.04000   1
   0   9  -8 27.6400 1.95000   1
   0   9  -8 34.5100 2.73000   1
   7   5  -6 1.87000 0.99000   1
  -7  -5   6 0.68000 0.93000   1
   5  -7  -6 2.95000 1.00000   1
  -5   7   6 2.97000 0.86000   1
  -5   7   6 3.87000 0.55000   1
  -5   7   6 2.85000 0.42000   1
   6  -9   0 9.88000 1.01000   1
  -6   9   0 9.55000 0.78000   1
  -6   9   0 11.9000 0.89000   1
   2   8  -9 30.0100 2.33000   1
  -2  -8   9 30.3000 2.34000   1
   2   8  -9 33.1800 2.63000   1
   2   9   0 56.8000 3.83000   1
   2   9   0 61.0400 4.22000   1
   4   7   1 9.10000 1.21000   1
   4   7   1 6.43000 1.13000   1
  -4  -7  -1 6.93000 1.32000   1
   9  -2  -4 12.8300 0.82000   1
  -9   2   4 16.5000 1.02000   1
   9  -2  -4 16.1900 1.24000   1
  -9   2   4 17.0400 1.23000   1
  -7   8   0 1.12000 0.34000   1
  -7   8   0 0.25000 0.38000   1
   7  -8   0 0.20000 0.45000   1
   5  -3   7 23.9800 1.65000   1
  -5   3  -7 23.1000 1.97000   1
  -8  -2   1 50.7500 3.35000   1
   8   2  -1 49.0900 3.46000   1
   8   2  -1 48.2200 3.15000   1
   8  -3   2 6.64000 0.70000   1
  -8   3  -2 4.69000 0.43000   1
  -8   3  -2 7.85000 0.81000   1
   8  -3  -7 7.54000 1.29000   1
  -8   3   7 8.97000 0.87000   1
  -7   8   1 4.02000 0.48000   1
  -7   8   1 3.95000 0.60000   1
   7  -8  -1 2.04000 0.62000   1
   4   7  -9 5.96000 0.95000   1
  -4  -7   9 1.55000 0.89000   1
   4   7  -9 2.58000 0.87000   1
  -6   3   9 9.86000 1.10000   1
   6  -3  -9 12.8800 1.59000   1
  -6   9  -1 0.98000 0.37000   1
   6  -9   1 0.27000 0.49000   1
  -6   9  -1 0.76000 0.33000   1
   8   3  -3 19.5500 1.46000   1
  -8  -3   3 18.2900 1.51000   1
   8   3  -3 20.4900 1.95000   1
   8   3  -3 17.4300 1.70000   1
   1   9  -8 7.30000 0.96000   1
   1   9  -8 6.68000 1.27000   1
  -1  -9   8 4.70000 0.89000   1
  -4   5  -8 5.69000 1.11000   1
  -4   5  -8 5.50000 0.53000   1
   4  -5   8 7.96000 0.80000   1
   9  -1  -4 2.02000 0.33000   1
   9  -1  -4 1.53000 0.55000   1
  -9   1   4 2.19000 0.69000   1
  -9   1   4 1.24000 0.54000   1
  -2   0  -9 6.31000 0.67000   1
  -2   0  -9 7.86000 1.20000   1
   2   0   9 7.39000 1.14000   1
   2   0   9 6.28000 0.70000   1
   3 -10  -1 27.1900 2.35000   1
   3 -10  -1 21.1100 1.23000   1
  -3  10   1 26.9200 2.08000   1
  -3  10   1 29.2400 1.68000   1
  -4  -3  11 5.53000 1.21000   1
   4   3 -11 8.37000 1.27000   1
   4   3 -11 7.30000 0.80000   1
   7   4  -8 3.36000 1.14000   1
  -7  -4   8 3.55000 1.09000   1
   7   4  -8 2.30000 1.14000   1
  -2  10   1 0.13000 0.74000   1
  -2  10   1 0.69000 0.34000   1
   2 -10  -1 -0.3400 0.84000   1
  -7   2  -4 0.47000 0.66000   1
  -7   2  -4 0.18000 0.15000   1
   7  -2   4 0.55000 0.57000   1
  -9   1   3 -0.3900 0.39000   1
  -9   1   3 -0.3200 0.54000   1
   9  -1  -3 0.24000 0.39000   1
  -4   8   5 6.17000 0.57000   1
  -4   8   5 5.70000 1.02000   1
   4  -8  -5 6.95000 1.06000   1
   3   9  -2 0.49000 0.82000   1
   3   9  -2 0.08000 0.54000   1
   8   0   1 -0.1400 0.67000   1
   8   0   1 0.77000 0.18000   1
   8   0   1 0.90000 0.24000   1
  -8   0  -1 1.60000 0.64000   1
   8   0   1 0.89000 0.57000   1
  -4   4   9 11.9900 0.88000   1
   4  -4  -9 14.3300 1.56000   1
   4  -4  -9 18.1000 1.15000   1
  -4   4   9 16.6700 1.40000   1
  -8  -3   6 12.7400 1.57000   1
   8   3  -6 13.6200 1.78000   1
   8   3  -6 14.4300 1.60000   1
   3  -4  -9 1.30000 0.79000   1
  -3   4   9 0.53000 0.75000   1
   3  -4  -9 1.79000 0.48000   1
  -3   4   9 1.22000 0.69000   1
  -7  -5   3 7.20000 1.01000   1
   7   5  -3 6.35000 1.27000   1
   7   5  -3 6.33000 1.24000   1
   7  -5   4 48.1800 2.59000   1
  -7   5  -4 47.0700 3.16000   1
  -9   3   3 1.14000 0.37000   1
  -9   3   3 0.80000 0.40000   1
   9  -3  -3 0.33000 0.29000   1
   9  -3  -3 0.18000 0.40000   1
   2  -2 -10 8.78000 1.06000   1
  -2   2  10 8.62000 1.02000   1
   2  -2 -10 8.54000 0.87000   1
  -1  -3  11 5.51000 1.07000   1
   1   3 -11 4.93000 0.85000   1
   1   3 -11 6.42000 0.94000   1
   8  -4   2 2.02000 0.44000   1
  -8   4  -2 4.36000 0.70000   1
  -8   4  -2 1.81000 0.29000   1
   2   1 -11 0.31000 0.60000   1
   2   1 -11 -0.0400 0.47000   1
  -2  -1  11 0.91000 0.73000   1
  -4  -1  11 2.09000 0.83000   1
   4   1 -11 1.29000 0.92000   1
   4   1 -11 1.30000 0.45000   1
  -6  -3  10 10.2900 1.36000   1
   6   3 -10 8.14000 1.42000   1
   6   3 -10 7.61000 0.87000   1
   6   3 -10 9.14000 1.20000   1
   3  -4   9 10.6900 1.15000   1
   3  -4   9 10.0400 0.48000   1
  -3   4  -9 10.5200 1.45000   1
  -3   4  -9 10.0500 0.90000   1
  -9   2   2 3.91000 0.46000   1
   9  -2  -2 3.44000 0.59000   1
   9  -2  -2 1.32000 0.52000   1
   0   8   4 6.89000 0.98000   1
   0   8   4 6.96000 1.20000   1
   0  -8  -4 6.66000 1.15000   1
   0  -8  -4 10.8200 1.21000   1
   5  -5   7 1.19000 0.44000   1
  -5   5  -7 0.74000 0.19000   1
  -5   5  -7 0.22000 0.17000   1
  -5   5  -7 1.10000 0.72000   1
   1   7 -10 19.3600 1.42000   1
   1   7 -10 18.3700 1.74000   1
  -1  -7  10 16.8200 1.46000   1
   1   7 -10 19.4400 1.85000   1
   8   0  -8 6.94000 1.03000   1
   8   0  -8 4.27000 0.38000   1
   8   0  -8 4.58000 0.34000   1
  -8   0   8 7.45000 1.06000   1
  -5  -7   1 29.0200 2.45000   1
   5   7  -1 28.3500 2.25000   1
   5   7  -1 31.1700 2.50000   1
   3   5   5 7.80000 0.93000   1
  -3  -5  -5 9.11000 1.31000   1
   3   5   5 9.92000 1.15000   1
  -3  -5  -5 8.61000 0.93000   1
   3 -10   5 31.2700 1.61000   1
  -3  10  -5 35.9500 2.41000   1
  -3  10  -5 32.8300 1.92000   1
   5   6   1 0.11000 0.61000   1
   5   6   1 -0.1600 0.68000   1
  -5  -6  -1 0.86000 0.73000   1
   6  -9  -1 0.58000 0.62000   1
  -6   9   1 1.21000 0.45000   1
  -6   9   1 0.41000 0.30000   1
  -2   7  -9 0.21000 0.58000   1
  -2   7  -9 0.15000 0.40000   1
  -2   7  -9 3.15000 0.81000   1
   2  -7   9 0.70000 0.54000   1
   2  -7   9 0.01000 0.27000   1
  -4  -6  10 7.64000 1.32000   1
   4   6 -10 6.36000 1.26000   1
   4   6 -10 6.96000 1.05000   1
  -8   2  -2 12.3200 1.05000   1
  -8   2  -2 9.10000 0.66000   1
   8  -2   2 13.6500 1.05000   1
  -1   9   3 12.0300 1.45000   1
  -1   9   3 11.5100 0.96000   1
   1  -9  -3 10.3000 1.33000   1
  -2  -7  10 1.01000 0.87000   1
   2   7 -10 2.52000 0.77000   1
   2   7 -10 1.46000 0.91000   1
   2   7 -10 2.48000 0.99000   1
  -3   3  -9 20.7500 1.95000   1
  -3   3  -9 21.2000 1.37000   1
   3  -3   9 24.2900 1.84000   1
   3  -3   9 20.2100 0.95000   1
  -9   3   2 4.44000 0.57000   1
   9  -3  -2 4.17000 0.60000   1
  -9   3   2 4.25000 0.52000   1
   1   4 -11 44.9100 3.07000   1
   1   4 -11 45.6000 3.19000   1
  -1  -4  11 41.8200 3.09000   1
   4   8  -1 5.87000 0.94000   1
   4   8  -1 2.40000 1.09000   1
  -4   2  -8 26.2300 2.26000   1
  -4   2  -8 24.3000 1.34000   1
   4  -2   8 23.8000 1.04000   1
   4  -2   8 27.8100 2.13000   1
   5   5 -10 1.92000 0.90000   1
   5   5 -10 1.00000 0.66000   1
  -5  -5  10 0.87000 0.95000   1
   5   5 -10 -0.1600 0.92000   1
  -1   1 -10 13.8800 1.29000   1
  -1   1 -10 10.0600 1.05000   1
   1  -1  10 9.72000 0.83000   1
   1  -1  10 10.0400 1.35000   1
  -9   3   4 1.68000 0.33000   1
  -9   3   4 0.76000 0.45000   1
   9  -3  -4 1.98000 0.50000   1
   9  -3  -4 1.08000 0.24000   1
  -6   8   4 14.9100 0.88000   1
  -6   8   4 18.0100 1.06000   1
  -6   8   4 15.1200 1.29000   1
  -6   8   4 15.3100 0.93000   1
   6  -8  -4 13.2200 0.79000   1
   6  -8  -4 15.9400 1.46000   1
  -2   8   5 22.4500 2.08000   1
  -2   8   5 22.8600 1.61000   1
   2  -8  -5 28.1000 2.17000   1
   5  -2 -10 1.87000 0.87000   1
   5  -2 -10 1.09000 0.35000   1
  -5   2  10 1.09000 0.31000   1
  -5   2  10 2.11000 0.76000   1
   0  10   0 0.39000 0.78000   1
   0  10   0 1.35000 0.50000   1
   7  -8   1 14.0900 1.12000   1
  -7   8  -1 13.7400 0.87000   1
  -7   8  -1 13.4600 0.87000   1
   1   2 -11 3.56000 0.86000   1
   1   2 -11 4.59000 0.93000   1
  -1  -2  11 3.14000 1.00000   1
   8  -1  -8 9.25000 1.38000   1
  -8   1   8 9.88000 1.09000   1
  -2  -5  -6 15.6600 1.30000   1
   2   5   6 14.3900 1.40000   1
   2   5   6 14.1800 1.44000   1
  -2  -5  -6 15.9100 1.63000   1
   9  -1  -5 53.5200 3.19000   1
  -9   1   5 51.4500 3.23000   1
   9  -1  -5 40.1800 2.28000   1
  -6   0  -5 15.8200 1.59000   1
   6   0   5 20.3300 1.55000   1
   6   0   5 17.8400 1.01000   1
  -6   0  -5 15.5900 0.91000   1
  -8   6   4 17.4600 1.02000   1
   8  -6  -4 18.7900 1.47000   1
  -8   6   4 13.1600 0.57000   1
  -8   6   4 13.9900 0.89000   1
   2   6   5 7.13000 1.07000   1
  -2  -6  -5 7.37000 1.21000   1
  -2  -6  -5 5.77000 0.96000   1
   2   6   5 6.77000 0.92000   1
  -1 -10   6 2.28000 0.73000   1
   1  10  -6 0.89000 0.70000   1
  -6  -5   9 24.3600 2.22000   1
   6   5  -9 21.5600 2.30000   1
   6   5  -9 23.5600 2.18000   1
  -1   9  -8 0.89000 0.54000   1
   1  -9   8 2.40000 0.53000   1
  -1   9  -8 6.21000 0.94000   1
  -5  -7   8 17.7600 1.86000   1
   5   7  -8 13.9600 1.72000   1
  -7   8   2 -0.2200 0.40000   1
  -7   8   2 1.13000 0.42000   1
   7  -8  -2 -0.1000 0.53000   1
  -6   8  -4 10.9300 0.72000   1
  -6   8  -4 7.71000 0.66000   1
   6  -8   4 8.48000 0.42000   1
  -6   8  -4 9.81000 1.09000   1
  -8  -1   8 20.6300 1.84000   1
   8   1  -8 18.0400 1.84000   1
   8   1  -8 19.6600 1.65000   1
   8   1  -8 15.8700 0.95000   1
  -3  -6  -4 20.9700 1.98000   1
  -3  -6  -4 19.4500 1.47000   1
   3   6   4 20.1100 1.71000   1
   3   6   4 16.6200 1.63000   1
   2 -10   6 1.27000 0.33000   1
   2 -10   6 1.80000 0.47000   1
  -2  10  -6 1.83000 0.85000   1
  -2  10  -6 1.83000 0.51000   1
  -7   5   7 0.20000 0.38000   1
   7  -5  -7 0.56000 0.77000   1
   3   8   1 1.04000 0.75000   1
   3   8   1 0.08000 0.65000   1
  -3  -8  -1 -1.5900 0.77000   1
  -8   6  -1 42.0100 2.43000   1
  -8   6  -1 49.0200 2.58000   1
   8  -6   1 46.6800 2.26000   1
  -8   6  -1 47.8500 2.61000   1
  -8   6  -1 43.3600 2.20000   1
  -8   6  -1 38.4600 2.01000   1
   7   2   2 15.0900 0.95000   1
   7   2   2 21.9800 1.69000   1
  -7  -2  -2 19.0200 1.54000   1
   7   2   2 19.4100 1.34000   1
  -9   2   5 25.3600 1.71000   1
   9  -2  -5 21.6600 1.77000   1
   9  -1  -2 0.05000 0.48000   1
  -9   1   2 -0.1500 0.44000   1
   9  -1  -2 -0.1000 0.41000   1
   9  -1  -2 -0.2200 0.54000   1
   9   0  -4 2.23000 0.62000   1
   9   0  -4 3.83000 0.97000   1
  -9   0   4 2.91000 0.80000   1
  -9   0   4 2.72000 0.57000   1
   7   3  -9 9.57000 1.38000   1
   7   3  -9 6.78000 0.81000   1
   7   3  -9 7.25000 1.31000   1
  -7  -3   9 6.15000 1.28000   1
  -6   9  -2 0.72000 0.33000   1
  -6   9  -2 0.28000 0.38000   1
  -7  -3  -1 25.0700 1.81000   1
   7   3   1 18.7000 1.89000   1
   7   3   1 22.0000 1.60000   1
   3  -5   9 1.16000 0.59000   1
   3  -5   9 0.18000 0.13000   1
  -3   5  -9 0.21000 0.44000   1
  -3   5  -9 0.24000 0.75000   1
   6  -1 -10 11.7100 1.47000   1
   6  -1 -10 7.71000 0.51000   1
  -6   1  10 8.84000 1.18000   1
  -5   2  -7 14.7100 0.76000   1
  -5   2  -7 14.9000 1.58000   1
   5  -2   7 17.8800 1.55000   1
   7  -7   3 1.24000 0.22000   1
  -7   7  -3 1.12000 0.56000   1
  -7   7  -3 0.87000 0.22000   1
  -7   7  -3 1.06000 0.30000   1
  -7   7  -3 1.52000 0.26000   1
   1  -6  10 13.2600 1.30000   1
   1  -6  10 11.3800 0.82000   1
  -1   6 -10 12.7100 1.10000   1
  -1   6 -10 13.8000 1.64000   1
  -3  -4  -6 0.01000 0.43000   1
  -3  -4  -6 0.28000 0.75000   1
   3   4   6 -0.6300 0.65000   1
   3   4   6 0.47000 0.46000   1
   6   3   3 14.4400 1.16000   1
  -6  -3  -3 15.1400 1.57000   1
   6   3   3 13.3600 1.53000   1
   1  -6  -7 9.88000 1.32000   1
  -1   6   7 11.4500 1.17000   1
   1  -6  -7 9.94000 1.23000   1
  -1   6   7 10.5800 1.29000   1
  -2  -5  11 1.58000 0.79000   1
   2   5 -11 2.11000 0.66000   1
   2   5 -11 2.42000 0.87000   1
   2   5 -11 2.87000 0.82000   1
  -6   7  -5 3.83000 0.45000   1
  -6   7  -5 5.86000 0.98000   1
   6  -7   5 5.69000 0.50000   1
  -6   7  -5 3.94000 0.38000   1
  -5   9   3 0.26000 0.27000   1
  -5   9   3 -0.6400 0.60000   1
   5  -9  -3 0.50000 0.73000   1
   5  -9  -3 -0.1400 0.20000   1
  -7   6   6 4.38000 0.49000   1
   7  -6  -6 4.10000 1.01000   1
   4   1   7 0.21000 0.22000   1
   4   1   7 -1.2200 0.60000   1
  -4  -1  -7 0.42000 0.43000   1
  -4  -1  -7 1.27000 0.74000   1
   4   1   7 -0.2100 0.37000   1
  -1   8  -9 45.2800 2.64000   1
  -1   8  -9 47.0800 3.42000   1
   1  -8   9 42.5800 2.63000   1
   6   4   2 22.2800 1.95000   1
   6   4   2 18.1600 1.39000   1
  -6  -4  -2 19.4200 1.82000   1
  -4  -4  11 11.3000 1.54000   1
   4   4 -11 12.6500 1.53000   1
   4   4 -11 11.2200 1.52000   1
   4   4 -11 13.1300 1.23000   1
  -4  10   1 6.43000 0.52000   1
   4 -10  -1 6.33000 0.43000   1
   4 -10  -1 10.7700 1.29000   1
  -4  10   1 7.86000 1.08000   1
   7  -2  -9 1.16000 0.88000   1
  -7   2   9 2.35000 0.73000   1
  -4  10  -4 0.15000 0.64000   1
  -4  10  -4 0.51000 0.35000   1
   4 -10   4 0.39000 0.11000   1
   4 -10   4 0.32000 0.13000   1
   9   0  -3 24.9600 1.82000   1
  -9   0   3 22.9900 1.41000   1
   9   0  -3 23.2900 1.66000   1
   9   0  -3 21.3300 1.65000   1
  -1  10   1 8.61000 0.79000   1
  -1  10   1 7.41000 1.23000   1
   1 -10  -1 9.16000 1.32000   1
  -5   4   9 23.4800 1.63000   1
  -5   4   9 17.0100 1.00000   1
   5  -4  -9 21.6500 1.08000   1
   5  -4  -9 22.7700 2.05000   1
  -7  -5   7 18.8300 2.00000   1
   7   5  -7 19.7200 2.06000   1
   7   5  -7 19.2000 2.02000   1
   4   5   4 7.37000 0.88000   1
  -4  -5  -4 6.10000 1.21000   1
   4   5   4 5.72000 1.04000   1
   3   0 -11 0.05000 0.79000   1
  -3   0  11 -0.2600 0.71000   1
   3   0 -11 0.80000 0.44000   1
   3   9  -7 2.28000 0.93000   1
  -3  -9   7 1.18000 0.88000   1
   1  -7  -6 29.0700 2.30000   1
  -1   7   6 26.9900 1.86000   1
  -1   7   6 28.9000 2.39000   1
   1  -7  -6 27.7400 2.04000   1
  -8   5  -2 0.30000 0.43000   1
  -8   5  -2 0.24000 0.31000   1
  -8   5  -2 -0.0100 0.21000   1
   8  -5   2 0.18000 0.32000   1
  -8   5  -2 -0.1600 0.24000   1
  -6   4  -6 -0.3500 0.66000   1
   6  -4   6 0.52000 0.44000   1
   2   9  -8 1.79000 0.88000   1
   2   9  -8 1.38000 0.83000   1
  -2  -9   8 -0.4100 0.75000   1
   0  -7  10 14.0300 1.33000   1
   0   7 -10 16.7500 1.39000   1
   0   7 -10 15.7200 1.16000   1
   0   7 -10 13.3300 1.63000   1
  -2   4   9 14.8200 1.48000   1
  -2   4   9 14.6200 1.39000   1
   2  -4  -9 14.3600 1.17000   1
   2  -4  -9 14.2800 1.55000   1
   1  10  -1 0.14000 0.65000   1
   1  10  -1 -0.0400 0.44000   1
  -9   0   5 18.3700 1.59000   1
   9   0  -5 17.3800 1.61000   1
   9   0  -5 16.0800 1.33000   1
   9   0  -5 14.5000 1.01000   1
   6   6  -8 2.14000 1.07000   1
   6   6  -8 2.84000 1.20000   1
  -6  -6   8 2.95000 1.10000   1
  -4   6  -8 10.4500 0.83000   1
   4  -6   8 12.7400 0.98000   1
  -4   6  -8 18.6900 1.62000   1
  -4  -4  -5 9.94000 0.87000   1
  -4  -4  -5 9.82000 1.39000   1
   4   4   5 9.16000 0.90000   1
   4   4   5 9.66000 1.32000   1
   3   5 -11 35.2000 2.42000   1
   3   5 -11 33.9400 2.39000   1
   3   5 -11 37.4600 2.88000   1
  -3  -5  11 32.4000 2.45000   1
   9  -4  -3 7.98000 0.57000   1
   9  -4  -3 11.6900 0.85000   1
  -9   4   3 10.4500 0.81000   1
  -9   4   3 9.54000 0.72000   1
  -4   9  -6 0.66000 0.68000   1
  -4   9  -6 0.57000 0.38000   1
  -4   9  -6 0.16000 0.27000   1
   4  -9   6 0.35000 0.28000   1
   4  -9   6 -0.0800 0.27000   1
  -3  -1  -8 4.38000 0.69000   1
   3   1   8 4.49000 0.52000   1
   3   1   8 3.66000 0.94000   1
  -3  -1  -8 6.83000 1.13000   1
   8   3  -2 9.04000 1.29000   1
   8   3  -2 9.96000 1.17000   1
  -8  -3   2 9.52000 1.12000   1
   3  -2   9 15.0100 1.46000   1
   3  -2   9 12.3600 0.73000   1
   3  -2   9 12.1700 0.81000   1
  -3   2  -9 13.6800 1.57000   1
  -3   2  -9 12.1100 1.05000   1
   3  -2   9 15.0600 0.80000   1
   4  -8   7 0.07000 0.22000   1
   4  -8   7 1.10000 0.42000   1
  -4   8  -7 0.17000 0.68000   1
  -4   8  -7 0.32000 0.26000   1
  -5   8   5 13.5800 1.23000   1
  -5   8   5 10.9500 0.82000   1
  -5   8   5 9.93000 0.72000   1
   5  -8  -5 11.2800 1.49000   1
   6  -3   6 0.90000 0.66000   1
  -6   3  -6 1.17000 0.75000   1
  -9   4   2 1.03000 0.45000   1
   9  -4  -2 0.89000 0.43000   1
  -9   4   2 0.40000 0.30000   1
  -9   4   2 0.24000 0.37000   1
  -3   9  -7 10.2900 0.86000   1
   3  -9   7 11.8900 0.93000   1
  -3   9  -7 14.5500 1.13000   1
  -3   9  -7 13.5000 1.40000   1
  -4  -8   8 18.1200 1.94000   1
   4   8  -8 19.5900 1.89000   1
   6   6  -1 0.71000 0.73000   1
  -6  -6   1 0.74000 0.67000   1
   6   6  -1 -1.3000 0.71000   1
  -4   0  11 75.1400 5.10000   1
   4   0 -11 75.5800 5.34000   1
   4   0 -11 74.5600 4.46000   1
   2  10  -4 0.31000 0.51000   1
   2  10  -4 -0.5700 0.70000   1
  -9   3   1 7.66000 0.64000   1
   9  -3  -1 6.29000 0.53000   1
   9  -3  -1 7.31000 0.68000   1
  -7   1  -4 0.60000 0.63000   1
  -7   1  -4 -0.1400 0.22000   1
   7  -1   4 0.31000 0.58000   1
   7  -1   4 0.75000 0.21000   1
   6  -6  -7 17.3600 1.85000   1
  -6   6   7 16.9000 1.08000   1
   9  -2  -1 3.92000 0.58000   1
  -9   2   1 1.92000 0.50000   1
   9  -2  -1 2.46000 0.37000   1
   1   5 -11 12.6600 1.45000   1
   1   5 -11 10.4900 1.31000   1
  -1  -5  11 10.1900 1.33000   1
   7  -4  -8 -0.3800 0.85000   1
  -7   4   8 -0.4600 0.45000   1
   5   2 -11 3.70000 0.56000   1
   5   2 -11 2.75000 1.09000   1
  -5  -2  11 4.52000 1.07000   1
   8   3  -7 12.4000 1.69000   1
   8   3  -7 12.5200 1.45000   1
  -8  -3   7 11.4900 1.36000   1
  -5   6  -7 0.42000 0.80000   1
  -5   6  -7 0.79000 0.22000   1
  -5   6  -7 0.05000 0.22000   1
   5  -6   7 0.89000 0.41000   1
  -3  -8   9 16.4600 1.64000   1
   3   8  -9 12.3300 1.66000   1
   3   8  -9 13.3800 1.58000   1
  -2  -4  -7 0.54000 0.60000   1
   2   4   7 0.50000 0.77000   1
   2   4   7 1.72000 0.53000   1
  -2  -4  -7 0.23000 0.84000   1
   5 -10   1 16.8100 1.46000   1
  -5  10  -1 16.7000 1.19000   1
  -5  10  -1 16.8300 1.17000   1
   1  -5  -8 3.24000 0.98000   1
  -1   5   8 6.17000 0.97000   1
  -1   5   8 5.42000 0.93000   1
   1  -5  -8 6.32000 0.99000   1
   3   7 -10 14.5400 1.53000   1
   3   7 -10 12.8500 1.66000   1
   3   7 -10 16.4400 1.47000   1
  -3  -7  10 15.3700 1.75000   1
   7  -6   4 12.0700 0.80000   1
  -7   6  -4 9.85000 1.24000   1
  -7   6  -4 9.73000 0.72000   1
   8  -1   2 -0.4700 0.34000   1
   8  -1   2 0.52000 0.49000   1
  -8   1  -2 -0.0200 0.28000   1
  -8   1  -2 0.16000 0.56000   1
  -7  -5   2 0.59000 0.71000   1
   7   5  -2 1.70000 0.75000   1
   7   5  -2 -0.9100 0.81000   1
  -2  -7  -4 13.4700 1.63000   1
  -2  -7  -4 11.7200 1.45000   1
   2   7   4 15.9200 1.48000   1
   2   7   4 12.9900 1.37000   1
   9  -3  -5 3.06000 0.82000   1
  -9   3   5 3.86000 0.59000   1
   5   1   6 9.10000 1.09000   1
   5   1   6 6.50000 0.68000   1
   5   1   6 5.17000 0.50000   1
  -5  -1  -6 8.08000 1.19000   1
  -5  -1  -6 8.57000 0.72000   1
   6  -9  -2 20.7300 1.87000   1
  -6   9   2 22.2000 1.67000   1
  -6   9   2 22.0000 1.42000   1
   8  -2  -8 0.92000 0.80000   1
  -8   2   8 1.60000 0.61000   1
  -1  -6  -6 17.6300 1.67000   1
   1   6   6 19.4500 1.74000   1
   1   6   6 20.4400 1.58000   1
  -1  -6  -6 20.9900 1.87000   1
   1   2   9 3.50000 0.97000   1
   1   2   9 3.35000 0.58000   1
  -1  -2  -9 1.86000 0.70000   1
  -1  -2  -9 2.34000 0.90000   1
   6   2   4 26.9300 1.66000   1
   6   2   4 20.0800 1.21000   1
   6   2   4 21.7700 1.89000   1
  -6  -2  -4 22.3300 1.99000   1
  -7  -1  -3 13.6400 1.45000   1
   7   1   3 12.0500 0.69000   1
   7   1   3 15.9200 1.56000   1
   7   1   3 17.0100 1.22000   1
  -7  -1  -3 14.0600 1.02000   1
   2  10  -5 7.67000 1.29000   1
  -2 -10   5 9.71000 1.28000   1
  -6   5  -6 15.8300 1.61000   1
   6  -5   6 15.2700 1.25000   1
   8  -7  -1 0.69000 0.38000   1
  -8   7   1 0.05000 0.30000   1
  -8   7   1 -0.0500 0.33000   1
   0  -1 -10 28.5500 2.22000   1
   0  -1 -10 30.0700 1.99000   1
   0   1  10 28.8800 2.35000   1
   0   1  10 29.8300 1.88000   1
  -1  -1  11 12.2900 1.30000   1
   1   1 -11 12.6200 1.20000   1
   1   1 -11 12.2600 1.32000   1
   5   1 -11 -0.5500 0.90000   1
   5   1 -11 0.70000 0.52000   1
  -5  -1  11 5.88000 0.89000   1
   5   8  -5 2.44000 0.73000   1
   5   8  -5 0.45000 1.03000   1
   3  -8   8 11.0800 0.87000   1
   3  -8   8 10.3600 0.69000   1
  -3   8  -8 10.3100 0.83000   1
  -3   8  -8 15.2200 1.43000   1
   6  -5  -8 18.3700 1.88000   1
  -6   5   8 18.9800 1.28000   1
  -7  -4   0 -0.3100 0.74000   1
   7   4   0 0.66000 0.69000   1
   7   4   0 1.03000 0.81000   1
   8   2  -8 20.4100 1.83000   1
   8   2  -8 20.9700 2.18000   1
  -8  -2   8 19.7700 1.83000   1
   2  10  -3 14.3300 1.60000   1
   2  10  -3 16.4300 1.35000   1
   0  -3  -9 7.94000 1.11000   1
   0   3   9 6.65000 1.11000   1
   0   3   9 8.20000 0.89000   1
   0  -3  -9 7.72000 1.03000   1
   2   0 -11 4.29000 0.97000   1
  -2   0  11 4.55000 0.97000   1
   2   0 -11 3.81000 0.69000   1
  -5  10  -2 3.64000 0.58000   1
  -5  10  -2 3.14000 0.49000   1
   9  -4  -4 15.0600 1.13000   1
  -9   4   4 16.0800 1.12000   1
  -9   4   4 11.9200 0.73000   1
  -8   7   2 1.05000 0.15000   1
  -8   7   2 3.14000 0.42000   1
  -8   7   2 1.49000 0.39000   1
   8  -7  -2 1.05000 0.52000   1
   0  10  -7 0.18000 0.60000   1
   0  10  -7 -0.7300 0.71000   1
   0 -10   7 0.11000 0.42000   1
  -6  -4  10 14.2200 1.84000   1
   6   4 -10 17.9400 1.26000   1
   6   4 -10 18.1500 1.85000   1
   6   4 -10 20.1900 2.02000   1
   4   6   3 0.86000 0.76000   1
  -4  -6  -3 1.12000 0.88000   1
   4   6   3 1.47000 0.80000   1
  -7   8  -2 1.10000 0.42000   1
  -7   8  -2 0.94000 0.51000   1
  -7   8  -2 1.78000 0.50000   1
   3   9  -1 48.4000 3.75000   1
   3   9  -1 56.1200 3.50000   1
   9  -1  -6 2.04000 0.28000   1
   9  -1  -6 2.37000 0.75000   1
  -9   1   6 2.52000 0.67000   1
   5   8  -4 16.4300 1.83000   1
   5   8  -4 14.9900 1.64000   1
   8  -5  -6 7.30000 1.12000   1
  -8   5   6 7.60000 0.76000   1
  -5  10   0 10.0700 0.93000   1
   5 -10   0 11.7800 1.18000   1
  -5  10   0 9.85000 0.80000   1
  -5   8  -6 0.16000 0.31000   1
  -5   8  -6 0.17000 0.23000   1
   5  -8   6 -0.0800 0.29000   1
  -5   8  -6 -0.0400 0.27000   1
  -5   8  -6 -0.5600 0.59000   1
   5   3 -11 3.64000 1.09000   1
  -5  -3  11 3.17000 1.10000   1
   5   3 -11 5.14000 0.78000   1
   9   0  -2 5.77000 0.82000   1
  -9   0   2 5.47000 0.64000   1
   9   0  -2 2.97000 0.66000   1
   9   0  -2 4.97000 0.92000   1
   1   5   7 11.6400 1.17000   1
  -1  -5  -7 13.6000 1.34000   1
   1   5   7 14.1400 1.44000   1
  -1  -5  -7 13.0600 1.49000   1
  -7   7   5 14.8100 0.73000   1
  -7   7   5 17.3800 1.08000   1
  -7   7   5 16.3300 1.51000   1
   7  -7  -5 14.7400 0.89000   1
   7  -7  -5 18.3700 1.67000   1
   6  -7  -6 20.1700 1.80000   1
  -6   7   6 14.5600 0.81000   1
  -6   7   6 20.8100 1.71000   1
  -6   7   6 15.9400 1.09000   1
  -3   6  -9 56.8300 3.27000   1
   3  -6   9 47.1100 2.34000   1
   3  -6   9 58.9500 3.44000   1
  -3   6  -9 59.5500 4.20000   1
  -1   2  10 29.1000 2.26000   1
  -1   2  10 30.5800 2.17000   1
   1  -2 -10 27.1600 2.08000   1
   1  -2 -10 29.4300 2.06000   1
  -7   8   3 0.54000 0.51000   1
   7  -8  -3 0.52000 0.55000   1
  -7   8   3 -0.1800 0.33000   1
  -7   8   3 0.11000 0.16000   1
  -7   8   3 0.13000 0.26000   1
  -7   8   3 0.37000 0.15000   1
   6   7  -5 0.84000 0.99000   1
   6   7  -5 0.92000 0.77000   1
   3   7   3 8.90000 1.12000   1
   3   7   3 7.28000 1.17000   1
  -3  -7  -3 8.76000 1.33000   1
   6   5   1 0.81000 0.63000   1
   6   5   1 1.58000 0.85000   1
  -6  -5  -1 0.74000 0.84000   1
   9  -4  -1 16.2000 0.96000   1
  -9   4   1 16.2300 1.15000   1
  -9   4   1 16.0200 0.97000   1
  -4   1  -8 1.21000 0.42000   1
  -4   1  -8 0.77000 0.90000   1
   4  -1   8 1.91000 0.67000   1
   4  -1   8 0.95000 0.23000   1
   4  -1   8 0.96000 0.33000   1
  -3   9   4 18.6200 1.72000   1
  -3   9   4 15.8800 1.07000   1
   3  -9  -4 18.3100 1.85000   1
  -2   4 -10 6.88000 0.77000   1
  -2   4 -10 6.39000 1.26000   1
   2  -4  10 7.31000 1.06000   1
  -8   4   7 2.30000 0.54000   1
   8  -4  -7 2.26000 0.86000   1
  -8   7   0 5.05000 0.47000   1
   8  -7   0 4.18000 0.65000   1
  -8   7   0 3.51000 0.53000   1
  -8   7   0 6.55000 0.59000   1
   9  -1  -1 2.80000 0.46000   1
   9  -1  -1 3.22000 0.70000   1
  -9   1   1 3.92000 0.58000   1
   9  -1  -1 3.20000 0.63000   1
   1 -10   7 8.70000 1.02000   1
  -1  10  -7 8.51000 1.03000   1
  -1  10  -7 9.61000 1.28000   1
   6  -2   6 3.50000 0.93000   1
  -6   2  -6 4.81000 0.94000   1
  -1  -7  -5 1.93000 0.80000   1
   1   7   5 3.52000 0.98000   1
  -1  -7  -5 2.50000 0.87000   1
   1   7   5 5.19000 0.88000   1
   0  -3  11 5.33000 1.02000   1
   0   3 -11 7.22000 1.13000   1
   0   3 -11 6.35000 0.81000   1
   1   9   2 3.73000 1.02000   1
  -1  -9  -2 2.63000 0.99000   1
   1   9   2 3.54000 0.84000   1
  -5  -8   6 2.15000 1.07000   1
   5   8  -6 2.08000 1.10000   1
   9   0  -6 10.4900 0.76000   1
  -9   0   6 16.2900 1.48000   1
   9   0  -6 14.3100 1.35000   1
  -9  -1   4 59.7100 3.96000   1
   9   1  -4 66.5800 4.05000   1
   9   1  -4 60.4100 4.15000   1
  -9  -1   4 61.0900 3.55000   1
  -9   2   6 9.56000 0.95000   1
   9  -2  -6 9.15000 1.10000   1
  -6   9  -3 3.03000 0.56000   1
  -6   9  -3 3.13000 0.43000   1
   6   7  -4 37.4700 3.05000   1
   6   7  -4 36.1800 2.83000   1
   0  -4  11 18.4200 1.67000   1
   0   4 -11 13.6800 1.26000   1
   0   4 -11 17.1900 1.56000   1
  -2   3 -10 13.1300 0.91000   1
   2  -3  10 16.6800 1.52000   1
  -2   3 -10 13.0000 1.69000   1
   1  -8  -5 11.5300 1.23000   1
  -1   8   5 10.7700 1.08000   1
   1  -8  -5 13.1400 1.54000   1
  -1   8   5 17.0300 1.56000   1
   5  -9   5 1.29000 0.19000   1
   5  -9   5 2.24000 0.25000   1
  -5   9  -5 2.11000 0.79000   1
  -5   9  -5 2.25000 0.46000   1
  -3  10   2 10.3600 0.77000   1
   3 -10  -2 12.1700 1.53000   1
  -3  10   2 10.2800 1.35000   1
   3   3   7 4.44000 1.09000   1
   3   3   7 4.23000 0.60000   1
  -3  -3  -7 3.31000 0.57000   1
  -3  -3  -7 2.72000 1.02000   1
  -4  -3  -6 5.18000 0.90000   1
   4   3   6 4.93000 1.06000   1
   4   3   6 4.02000 0.59000   1
  -4  -3  -6 3.11000 0.54000   1
  -8  -2   0 0.15000 0.58000   1
   8   2   0 0.60000 0.74000   1
   8   2   0 0.52000 0.55000   1
   5  -1   7 16.5300 0.80000   1
   5  -1   7 14.7600 0.81000   1
   5  -1   7 19.3600 1.69000   1
  -5   1  -7 16.9200 0.95000   1
  -5   1  -7 18.2900 1.72000   1
   4  -9  -4 19.8000 2.01000   1
  -4   9   4 18.7400 1.79000   1
  -4   9   4 19.3400 1.24000   1
   8   1   1 0.96000 0.37000   1
   8   1   1 0.55000 0.25000   1
   8   1   1 1.31000 0.62000   1
  -8  -1  -1 1.31000 0.72000   1
   8   1   1 2.12000 0.77000   1
   9   1  -5 1.36000 0.85000   1
   9   1  -5 0.56000 0.65000   1
  -9  -1   5 -0.0700 0.71000   1
   4  -3 -10 -0.5500 0.70000   1
  -4   3  10 0.02000 0.33000   1
   4  -3 -10 -0.2400 0.41000   1
  -4   3  10 0.39000 0.60000   1
   6   7  -6 -1.6100 0.90000   1
  -6  -7   6 1.23000 0.87000   1
   2  -9   8 15.2000 1.26000   1
  -2   9  -8 16.5100 1.08000   1
  -2   9  -8 15.7400 1.69000   1
   1  10  -7 0.94000 0.81000   1
  -1 -10   7 0.56000 0.58000   1
   8   4  -5 21.1400 2.25000   1
   8   4  -5 22.3900 1.82000   1
  -8  -4   5 20.5200 2.07000   1
   3  -3 -10 0.14000 0.39000   1
  -3   3  10 0.37000 0.55000   1
   3  -3 -10 0.90000 0.75000   1
  -1   0 -10 2.67000 0.59000   1
   1   0  10 2.57000 0.44000   1
   1   0  10 3.38000 0.97000   1
  -1   0 -10 6.96000 1.01000   1
  -2 -10   6 1.57000 0.72000   1
   2  10  -6 2.46000 0.89000   1
  -8   6   5 0.81000 0.43000   1
  -8   6   5 0.17000 0.33000   1
   8  -6  -5 0.24000 0.61000   1
  -2  10   2 8.09000 1.16000   1
  -2  10   2 5.49000 0.57000   1
   2 -10  -2 3.71000 1.19000   1
   4   5 -11 0.61000 0.54000   1
   4   5 -11 0.35000 0.83000   1
   4   5 -11 0.26000 0.74000   1
  -4  -5  11 -0.0500 0.82000   1
   5   0 -11 23.8600 2.22000   1
  -5   0  11 25.8400 2.13000   1
   5   0 -11 23.2100 1.44000   1
   2 -11   3 0.04000 0.24000   1
  -2  11  -3 0.15000 0.59000   1
   2 -11   3 -0.0500 0.35000   1
   2  -5  10 0.64000 0.70000   1
   2  -5  10 0.37000 0.24000   1
  -2   5 -10 2.33000 0.85000   1
  -2   5 -10 0.53000 0.53000   1
   6  -2 -10 1.74000 0.28000   1
   6  -2 -10 1.28000 1.06000   1
  -6   2  10 1.83000 0.77000   1
   4   9  -5 25.5900 2.28000   1
  -5  -4  -4 1.76000 0.82000   1
   5   4   4 0.68000 0.51000   1
   5   4   4 -0.3400 0.79000   1
   8   4  -4 7.88000 1.30000   1
   8   4  -4 7.00000 1.35000   1
  -1  11  -3 5.13000 0.86000   1
   1 -11   3 4.76000 0.75000   1
  -3  10  -6 10.4400 0.73000   1
  -3  10  -6 7.39000 1.19000   1
   3 -10   6 5.67000 0.49000   1
   3 -10   6 8.51000 0.65000   1
  -8   7   3 4.11000 0.44000   1
  -8   7   3 3.20000 0.34000   1
  -8   7   3 4.16000 0.34000   1
   8  -7  -3 3.98000 0.80000   1
   9   1  -3 11.3900 1.24000   1
   9   1  -3 11.8700 1.01000   1
  -9  -1   3 10.5100 0.91000   1
   9   1  -3 12.0200 1.27000   1
   5   8  -3 0.44000 0.80000   1
   5   8  -3 1.91000 0.96000   1
  -2  -1  -9 1.84000 0.81000   1
  -2  -1  -9 0.05000 0.40000   1
   2   1   9 0.68000 0.38000   1
   2   1   9 0.64000 0.81000   1
  -2   9   4 17.0400 1.66000   1
  -2   9   4 15.1200 1.08000   1
   2  -9  -4 17.5700 1.73000   1
   2   6 -11 9.62000 1.18000   1
   2   6 -11 7.12000 1.02000   1
  -2  -6  11 6.61000 1.07000   1
   2   6 -11 8.82000 1.10000   1
   2 -11   2 0.51000 0.42000   1
  -2  11  -2 1.23000 0.70000   1
   2   9   1 26.2300 2.05000   1
   2   9   1 25.3100 2.38000   1
  -8   6  -2 48.3000 2.65000   1
   8  -6   2 56.6600 2.82000   1
  -8   6  -2 48.2000 2.65000   1
  -8   6  -2 48.1900 2.35000   1
  -8   6  -2 58.1300 2.99000   1
  -8   6  -2 63.5500 3.59000   1
   4   9  -4 74.5200 5.06000   1
   4   9  -4 68.6600 5.06000   1
   0   9   3 9.75000 1.05000   1
   0  -9  -3 9.45000 1.30000   1
   0   9   3 11.3900 1.43000   1
  -5  10  -3 1.94000 0.53000   1
  -5  10  -3 1.25000 0.38000   1
   7   4  -9 21.4700 2.25000   1
   7   4  -9 24.8700 2.40000   1
  -7  -4   9 24.7900 2.29000   1
   2  10  -2 2.11000 0.86000   1
   2  10  -2 0.35000 0.69000   1
   0   2 -11 1.72000 0.83000   1
   0   2 -11 1.91000 0.71000   1
   0  -2  11 1.81000 0.87000   1
   3  -1   9 0.61000 0.28000   1
   3  -1   9 2.49000 0.78000   1
  -3   1  -9 0.09000 0.74000   1
  -3   1  -9 0.27000 0.46000   1
   3  -1   9 1.32000 0.32000   1
   6  -6   6 109.670 6.46000   1
  -6   6  -6 104.200 7.30000   1
  -7  -1  10 18.7000 1.91000   1
   7   1 -10 17.5900 1.00000   1
   7   1 -10 21.5000 2.16000   1
   7   1 -10 19.9300 1.10000   1
   9  -5  -2 13.5000 1.08000   1
  -9   5   2 13.4700 0.94000   1
  -9   5   2 15.3000 1.02000   1
  -9   5   2 15.6900 1.03000   1
   5   7   0 1.45000 0.96000   1
   5   7   0 1.34000 0.90000   1
  -5  -7   0 3.79000 0.93000   1
   5   5   3 13.6100 1.68000   1
  -5  -5  -3 15.5500 1.53000   1
   5   5   3 17.6600 1.52000   1
  -5  10   1 9.39000 1.19000   1
  -5  10   1 8.65000 0.72000   1
   5 -10  -1 9.19000 1.32000   1
  -1  11  -4 0.46000 0.59000   1
   1 -11   4 -0.2900 0.42000   1
   4 -10  -2 14.2300 1.51000   1
   4 -10  -2 9.80000 0.65000   1
  -4  10   2 9.48000 1.29000   1
  -4  10   2 11.5600 0.84000   1
   7   5  -8 1.47000 0.99000   1
   7   5  -8 0.37000 0.98000   1
  -7  -5   8 1.39000 0.98000   1
  -1   7 -10 0.82000 0.58000   1
  -1   7 -10 0.31000 0.50000   1
  -1   7 -10 -0.5300 0.86000   1
   1  -7  10 1.64000 0.67000   1
   4   8   0 -0.3300 0.80000   1
  -4  -8   0 0.87000 0.80000   1
   4   8   0 0.06000 0.70000   1
   9  -3   0 3.77000 0.57000   1
   9  -3   0 4.08000 0.35000   1
  -9   3   0 5.48000 0.59000   1
  -8  -4   6 1.60000 1.06000   1
   8   4  -6 3.80000 0.95000   1
   8   4  -6 3.20000 0.89000   1
   4 -10   5 6.38000 0.44000   1
  -4  10  -5 8.27000 0.65000   1
  -4  10  -5 6.56000 0.94000   1
  -6   4   9 3.79000 0.80000   1
   6  -4  -9 4.03000 1.08000   1
   0   5 -11 9.23000 1.16000   1
   0  -5  11 8.20000 1.07000   1
   0   5 -11 8.90000 0.94000   1
  -9   5   3 34.3400 1.98000   1
   9  -5  -3 32.4400 1.74000   1
   9  -5  -3 42.1400 2.38000   1
  -9   5   3 43.2900 2.41000   1
  -9   5   3 38.6700 1.95000   1
   0  10   1 5.72000 0.81000   1
   0  10   1 3.54000 1.10000   1
  -9   4   5 9.63000 0.92000   1
   9  -4  -5 8.35000 0.99000   1
  -1  11  -2 0.78000 0.73000   1
  -1  11  -2 0.49000 0.37000   1
   1   6 -11 2.01000 0.99000   1
   1   6 -11 2.61000 0.99000   1
   1   6 -11 2.87000 0.65000   1
  -1  -6  11 4.59000 0.81000   1
   5   4 -11 13.9300 1.41000   1
   5   4 -11 13.7500 1.16000   1
   5   4 -11 17.1300 1.77000   1
  -5  -4  11 16.0000 1.75000   1
   3  -1 -11 10.1000 1.10000   1
   3  -1 -11 9.70000 1.29000   1
  -3   1  11 13.3900 1.34000   1
   4  -7   8 3.27000 0.52000   1
  -4   7  -8 2.47000 0.58000   1
  -4   7  -8 4.26000 0.97000   1
  -2   2 -10 7.68000 1.12000   1
  -2   2 -10 7.06000 0.67000   1
   2  -2  10 5.46000 0.55000   1
   2  -2  10 6.53000 0.55000   1
   2  -2  10 8.77000 1.13000   1
  -7   3   9 2.85000 0.64000   1
   7  -3  -9 2.01000 1.11000   1
  -1   4   9 1.46000 0.62000   1
  -1   4   9 0.41000 0.78000   1
   1  -4  -9 1.48000 0.81000   1
   1  -4  -9 1.23000 0.59000   1
   7   0 -10 0.71000 0.23000   1
  -7   0  10 0.46000 0.67000   1
   7   0 -10 0.46000 0.21000   1
   7   0 -10 1.25000 0.87000   1
   6   7  -3 2.81000 1.01000   1
   6   7  -3 6.57000 1.05000   1
  -2  11  -4 1.17000 0.58000   1
   2 -11   4 0.21000 0.38000   1
  -2  11  -4 0.49000 0.74000   1
   4  -1 -11 27.5300 2.18000   1
   4  -1 -11 26.0400 1.66000   1
  -4   1  11 27.5500 2.17000   1
   8   3  -1 8.65000 1.14000   1
  -8  -3   1 6.25000 0.97000   1
   8   3  -1 6.52000 1.22000   1
  -2   8  -9 7.32000 1.19000   1
  -2   8  -9 4.89000 0.71000   1
   2  -8   9 4.68000 0.67000   1
  -2   8  -9 5.11000 0.76000   1
   4   9  -6 90.8200 6.68000   1
  -4  -9   6 98.1200 6.95000   1
   1  10   0 15.5600 1.25000   1
   1  10   0 15.8800 1.72000   1
  -9   2   0 9.60000 0.89000   1
   9  -2   0 10.4200 0.89000   1
   9  -2   0 8.20000 0.53000   1
  -8   7  -1 -0.0100 0.10000   1
  -8   7  -1 -0.0400 0.12000   1
  -8   7  -1 -0.1100 0.29000   1
  -8   7  -1 1.01000 0.34000   1
  -8   7  -1 0.11000 0.26000   1
   8  -7   1 0.35000 0.30000   1
  -9  -1   6 13.5300 1.50000   1
   9   1  -6 14.8700 1.55000   1
   9   1  -6 13.4300 1.30000   1
   3   9  -8 6.65000 1.26000   1
  -3  -9   8 7.98000 1.26000   1
  -5  -6  10 28.0400 2.44000   1
   5   6 -10 27.4100 2.39000   1
   5   6 -10 24.6300 1.93000   1
   5   6 -10 21.9500 2.38000   1
   8  -3   3 0.56000 0.45000   1
  -8   3  -3 0.46000 0.20000   1
  -8   3  -3 -0.7100 0.60000   1
  -8   3   8 6.42000 0.79000   1
   8  -3  -8 5.21000 1.21000   1
  -9   3   6 32.9000 2.06000   1
   9  -3  -6 33.5700 2.33000   1
  -1  -4  -8 0.52000 0.66000   1
   1   4   8 1.31000 0.71000   1
   1   4   8 0.21000 0.65000   1
  -1  -4  -8 0.67000 0.74000   1
  -8   4  -3 0.31000 0.19000   1
   8  -4   3 1.14000 0.56000   1
  -8   4  -3 1.96000 0.57000   1
  -8   4  -3 0.83000 0.19000   1
  -7  -2  10 31.1900 2.43000   1
   7   2 -10 31.4800 2.70000   1
   7   2 -10 28.9100 1.76000   1
  -5   3  10 0.95000 0.32000   1
  -5   3  10 0.85000 0.68000   1
   5  -3 -10 1.21000 0.36000   1
   5  -3 -10 0.87000 0.85000   1
   3   6 -11 22.0100 1.78000   1
   3   6 -11 23.4600 2.27000   1
  -3  -6  11 26.0600 2.26000   1
   3   6 -11 23.9300 1.99000   1
  -4   6   8 12.6900 1.54000   1
  -4   6   8 12.2400 1.02000   1
   4  -6  -8 12.6900 1.51000   1
   4  -6  -8 11.9500 0.97000   1
   6   1   5 6.11000 0.68000   1
   6   1   5 6.19000 1.15000   1
  -6  -1  -5 5.70000 1.11000   1
  -6  -1  -5 8.96000 0.69000   1
  -4   7   7 16.3300 1.58000   1
   4  -7  -7 15.2600 1.74000   1
  -4   7   7 17.7300 1.29000   1
   5   7  -9 22.5100 2.07000   1
  -5  -7   9 24.5400 2.27000   1
   3 -11   2 4.87000 0.44000   1
  -3  11  -2 5.85000 0.96000   1
  -2  -3  -8 20.1700 1.49000   1
  -2  -3  -8 19.5500 1.73000   1
   2   3   8 19.1400 1.35000   1
   2   3   8 23.2100 1.87000   1
  -5  -3  -5 4.68000 1.08000   1
   5   3   5 5.77000 1.06000   1
   5   3   5 3.84000 0.63000   1
   8   0   2 0.03000 0.15000   1
   8   0   2 0.14000 0.18000   1
   8   0   2 0.49000 0.53000   1
  -8   0  -2 0.83000 0.63000   1
   8   0   2 0.12000 0.42000   1
  -5  -8   7 14.9100 1.89000   1
   5   8  -7 19.5900 1.94000   1
   5  -7   7 3.77000 0.45000   1
  -5   7  -7 2.16000 0.33000   1
  -5   7  -7 2.73000 0.93000   1
  -5   7  -7 2.62000 0.41000   1
   9  -5  -1 0.80000 0.37000   1
  -9   5   1 1.56000 0.30000   1
  -9   5   1 0.61000 0.44000   1
  -9   5   1 0.66000 0.33000   1
  -9   5   1 0.85000 0.34000   1
   1   9  -9 51.3400 3.48000   1
   1   9  -9 59.7400 4.05000   1
  -1  -9   9 56.6300 3.88000   1
   2   8   3 5.41000 0.97000   1
   2   8   3 2.45000 1.04000   1
  -2  -8  -3 6.48000 1.04000   1
  -2  -8  -3 6.70000 1.17000   1
  -6   9   3 24.2800 1.60000   1
  -6   9   3 21.0100 1.07000   1
  -6   9   3 26.7300 1.91000   1
   6  -9  -3 26.3200 2.05000   1
   6  -9  -3 19.3400 0.97000   1
   7   0   4 0.38000 0.13000   1
   7   0   4 0.42000 0.32000   1
  -7   0  -4 0.11000 0.29000   1
  -7   0  -4 0.21000 0.71000   1
  -2  10  -7 16.2200 1.16000   1
  -2  10  -7 16.6800 1.76000   1
   2 -10   7 19.2100 1.29000   1
   9  -4   0 0.32000 0.22000   1
   9  -4   0 0.55000 0.42000   1
  -9   4   0 0.26000 0.38000   1
  -3   7   7 0.43000 0.48000   1
  -3   7   7 0.44000 0.80000   1
   3  -7  -7 1.17000 0.77000   1
   3  -7  -7 0.23000 0.54000   1
  -1   0  11 12.5800 1.47000   1
   1   0 -11 9.68000 1.13000   1
   1   0 -11 12.1700 1.29000   1
   4   9  -3 -0.3800 0.79000   1
   4   9  -3 0.64000 0.72000   1
  -2  11  -1 0.49000 0.49000   1
  -2  11  -1 0.44000 0.72000   1
  -6   8   5 5.23000 0.63000   1
  -6   8   5 4.45000 0.45000   1
  -6   8   5 6.83000 0.97000   1
   6  -8  -5 8.35000 1.18000   1
   8   4  -3 1.28000 0.94000   1
   8   4  -3 1.53000 0.86000   1
  -8  -4   3 2.20000 0.67000   1
  -3   6   8 6.64000 1.08000   1
  -3   6   8 5.89000 0.86000   1
   3  -6  -8 3.77000 0.58000   1
   3  -6  -8 6.90000 1.11000   1
  -8  -3   8 7.39000 1.27000   1
   8   3  -8 7.82000 1.35000   1
   8   3  -8 5.71000 1.25000   1
  -3  11  -3 4.14000 0.69000   1
  -3  11  -3 3.28000 0.90000   1
   3 -11   3 2.37000 0.38000   1
   6   7  -7 13.3500 1.60000   1
  -6  -7   7 9.17000 1.67000   1
   0   9  -9 8.96000 0.95000   1
   0  -9   9 8.46000 0.98000   1
   0   9  -9 11.2800 1.47000   1
   7   6  -5 6.74000 1.13000   1
   7   6  -5 -0.3000 1.21000   1
   1   8 -10 2.47000 0.87000   1
   1   8 -10 3.51000 0.71000   1
   1   8 -10 2.31000 0.85000   1
  -1  -8  10 1.52000 0.88000   1
   9   0  -1 0.12000 0.39000   1
  -9   0   1 0.36000 0.49000   1
   9   0  -1 1.34000 0.67000   1
   9   0  -1 1.10000 0.55000   1
   7  -4   5 0.97000 0.47000   1
  -7   4  -5 0.09000 0.58000   1
  -4  -7  -2 15.3000 1.78000   1
   4   7   2 15.0600 1.65000   1
   4   7   2 17.6000 1.66000   1
  -2   3  10 16.9100 1.59000   1
  -2   3  10 14.6000 1.47000   1
   2  -3 -10 17.2100 1.60000   1
   2  -3 -10 16.0500 1.20000   1
   8   0  -9 3.07000 0.29000   1
   8   0  -9 4.88000 0.94000   1
  -8   0   9 5.14000 1.01000   1
  -4  -7  10 28.0800 2.45000   1
   4   7 -10 24.4800 2.10000   1
   4   7 -10 24.8400 2.13000   1
   4   7 -10 29.7500 2.55000   1
  -7  -5   1 1.33000 0.85000   1
   7   5  -1 1.32000 0.92000   1
   7   5  -1 2.20000 0.80000   1
  -7   7  -4 1.02000 0.64000   1
  -7   7  -4 0.29000 0.17000   1
  -7   7  -4 0.17000 0.16000   1
   7  -7   4 0.13000 0.21000   1
  -7   7  -4 0.24000 0.22000   1
  -7   7  -4 -0.1100 0.20000   1
  -6   8  -5 31.8300 1.54000   1
  -6   8  -5 26.5600 1.54000   1
  -6   8  -5 32.4600 2.16000   1
  -6   8  -5 25.5700 1.39000   1
   6  -8   5 31.7100 1.54000   1
   1   8   4 35.1100 2.39000   1
   1   8   4 30.6700 2.50000   1
  -1  -8  -4 31.2100 2.45000   1
  -1  -8  -4 28.2500 2.27000   1
  -5   9   4 19.7400 1.81000   1
   5  -9  -4 22.2300 2.00000   1
  -5   9   4 19.0900 1.23000   1
   0  -6  -7 9.14000 1.19000   1
   0   6   7 7.87000 1.10000   1
   0  -6  -7 9.10000 1.10000   1
   0   6   7 9.00000 1.14000   1
   0 -11   4 3.19000 0.63000   1
   0  11  -4 3.81000 0.97000   1
  -6   1  -6 2.41000 0.83000   1
   6  -1   6 0.67000 0.69000   1
  -7   3  -5 13.1300 1.34000   1
   7  -3   5 11.3300 1.01000   1
   0  11  -3 0.40000 0.79000   1
   0  11  -3 1.11000 0.43000   1
   8   1  -9 3.30000 0.41000   1
   8   1  -9 2.30000 1.14000   1
  -8  -1   9 2.60000 0.97000   1
   6   6  -9 30.7600 2.63000   1
  -6  -6   9 28.9300 2.68000   1
   6   6  -9 31.9200 2.83000   1
  -7   8  -3 4.64000 0.61000   1
  -7   8  -3 1.02000 0.43000   1
  -7   8  -3 2.92000 0.47000   1
  -9   1   7 7.34000 1.09000   1
   9  -1  -7 8.25000 1.21000   1
  -9   5   4 5.22000 0.66000   1
   9  -5  -4 4.13000 0.69000   1
  -9   5   4 2.75000 0.30000   1
  -3  11  -1 3.06000 0.47000   1
  -3  11  -1 4.03000 0.90000   1
   7   6  -4 1.58000 0.95000   1
   7   6  -4 0.10000 0.98000   1
   9   1  -2 0.47000 0.71000   1
  -9  -1   2 -0.5800 0.48000   1
   9   1  -2 0.76000 0.39000   1
   9   1  -2 0.49000 0.70000   1
   0   7   6 44.4600 3.47000   1
   0   7   6 52.2400 3.32000   1
   0  -7  -6 55.1600 3.80000   1
   0  -7  -6 55.5600 3.78000   1
   1 -11   5 1.93000 0.55000   1
  -1  11  -5 1.06000 0.76000   1
  -2   6 -10 4.49000 0.69000   1
   2  -6  10 1.87000 0.66000   1
  -2   6 -10 2.88000 1.06000   1
  -1  10   2 0.37000 0.68000   1
  -1  10   2 0.49000 0.45000   1
   1 -10  -2 0.30000 0.81000   1
  -7  -6   6 3.97000 1.24000   1
   7   6  -6 3.10000 1.21000   1
   2   8 -10 23.5700 1.99000   1
  -2  -8  10 23.2000 2.13000   1
   2   8 -10 21.0100 2.12000   1
   2   8 -10 24.4700 2.20000   1
  -3   7  -9 24.7700 1.61000   1
  -3   7  -9 21.3500 2.07000   1
   3  -7   9 25.7800 1.65000   1
  -8   2  -3 4.21000 0.70000   1
   8  -2   3 2.28000 0.73000   1
   9   0  -7 7.45000 1.29000   1
  -9   0   7 8.46000 1.16000   1
  -8   5  -3 15.6200 0.77000   1
   8  -5   3 15.6900 0.99000   1
  -8   5  -3 19.6100 1.39000   1
   6   6   0 3.17000 1.01000   1
   6   6   0 3.89000 1.09000   1
  -6  -6   0 4.50000 1.02000   1
  -7   8   4 32.2300 1.71000   1
  -7   8   4 34.5800 1.72000   1
   7  -8  -4 39.2600 2.66000   1
  -7   8   4 36.3000 1.85000   1
  -7   8   4 38.8800 2.49000   1
   2  -1 -11 0.06000 0.49000   1
  -2   1  11 1.07000 0.71000   1
   2  -1 -11 1.43000 0.77000   1
  -7   5  -5 6.21000 1.08000   1
   7  -5   5 6.90000 0.76000   1
   5   6   2 2.09000 0.82000   1
   5   6   2 0.96000 0.72000   1
  -5  -6  -2 1.81000 0.92000   1
  -7   1  10 1.85000 0.88000   1
   7  -1 -10 2.15000 1.03000   1
   7  -1 -10 1.84000 0.20000   1
  -4  -8   9 6.03000 1.27000   1
   4   8  -9 7.10000 1.30000   1
   0   1 -11 22.6900 1.81000   1
   0   1 -11 20.8900 1.70000   1
   0  -1  11 21.8700 2.00000   1
   6   5 -10 9.34000 1.32000   1
   6   5 -10 7.01000 0.89000   1
   6   5 -10 6.59000 1.46000   1
  -6  -5  10 6.07000 1.37000   1
  -8   1   9 26.4000 1.98000   1
   8  -1  -9 28.5100 2.51000   1
  -5   6   8 15.8500 1.66000   1
   5  -6  -8 9.97000 1.56000   1
  -5   6   8 14.4000 1.18000   1
   6   2 -11 3.41000 1.13000   1
   6   2 -11 2.50000 0.44000   1
  -6  -2  11 2.50000 1.00000   1
   8   4  -7 44.3300 3.42000   1
  -8  -4   7 44.7500 3.49000   1
   8   4  -7 44.2200 3.70000   1
   6   1 -11 16.9100 1.14000   1
   6   1 -11 21.1600 2.08000   1
  -6  -1  11 17.7000 1.81000   1
  -1  11  -1 6.17000 1.09000   1
  -1  11  -1 6.35000 0.61000   1
  -2 -10   7 0.79000 0.82000   1
   2  10  -7 1.26000 0.87000   1
   0   8 -10 7.20000 1.12000   1
   0  -8  10 5.52000 0.98000   1
   0   8 -10 5.97000 0.70000   1
   0   8 -10 3.54000 1.15000   1
   9  -1   0 8.49000 0.77000   1
   9  -1   0 7.01000 0.49000   1
   9  -1   0 7.98000 0.92000   1
  -9   1   0 7.88000 0.93000   1
   5   8  -2 8.14000 1.20000   1
   5   8  -2 6.76000 1.33000   1
   8  -7  -4 3.84000 0.77000   1
  -8   7   4 3.61000 0.31000   1
  -8   7   4 2.79000 0.36000   1
  -8   7   4 3.46000 0.31000   1
  -8   7   4 4.27000 0.40000   1
   5  -1 -11 2.87000 1.02000   1
   5  -1 -11 2.20000 0.46000   1
  -5   1  11 2.40000 0.86000   1
  -5   7   7 3.64000 0.76000   1
  -5   7   7 0.55000 0.31000   1
   5  -7  -7 0.03000 0.84000   1
  -5   7   7 0.33000 0.36000   1
   4  -5  -9 6.21000 1.05000   1
  -4   5   9 8.14000 1.26000   1
  -4   5   9 7.90000 0.93000   1
   4  -5  -9 5.76000 0.60000   1
  -7   9   0 5.46000 0.53000   1
  -7   9   0 6.48000 0.69000   1
   7  -9   0 5.94000 0.79000   1
   2   9  -9 24.4300 2.21000   1
  -2  -9   9 21.0100 1.86000   1
   2   9  -9 22.2400 1.98000   1
   3   8   2 13.5500 1.49000   1
   3   8   2 15.2700 1.64000   1
  -3  -8  -2 12.0900 1.68000   1
   4  -8  -6 4.11000 1.09000   1
  -4   8   6 3.65000 0.54000   1
  -4   8   6 5.49000 1.04000   1
   4   0   8 4.32000 0.48000   1
   4   0   8 7.22000 1.11000   1
  -4   0  -8 7.13000 1.20000   1
  -4   0  -8 4.10000 0.64000   1
   4   2   7 2.75000 0.53000   1
   4   2   7 1.67000 0.95000   1
  -4  -2  -7 2.11000 0.56000   1
  -4  -2  -7 2.28000 0.92000   1
  -3   8   6 5.75000 1.00000   1
   3  -8  -6 6.05000 1.10000   1
  -3   8   6 4.36000 0.72000   1
   3   9   0 36.0900 2.99000   1
   3   9   0 35.7600 2.72000   1
   0 -11   5 -0.1300 0.41000   1
   0  11  -5 -0.00000 0.6600   1
   9   2  -5 44.7600 3.20000   1
  -9  -2   5 40.8700 3.09000   1
   9   2  -5 42.1300 2.87000   1
  -3  11  -4 7.84000 0.85000   1
  -3  11  -4 6.39000 0.97000   1
   3 -11   4 5.16000 0.44000   1
  -6   9  -4 4.35000 0.58000   1
  -6   9  -4 4.62000 0.77000   1
   2 -11   5 20.3200 1.32000   1
  -2  11  -5 26.0900 2.13000   1
  -2  11  -5 22.9700 1.63000   1
  -1   9   4 20.4200 1.41000   1
   1  -9  -4 18.8100 1.89000   1
  -1   9   4 19.6700 1.93000   1
   9  -2  -7 35.1500 2.76000   1
  -9   2   7 35.4200 2.28000   1
   9   2  -4 14.9900 1.31000   1
  -9  -2   4 15.9100 1.17000   1
   9   2  -4 17.5700 1.63000   1
   9   2  -4 14.1700 1.81000   1
  -5  10  -4 3.38000 0.43000   1
  -5  10  -4 1.24000 0.72000   1
   7   3 -10 12.9000 0.93000   1
  -7  -3  10 14.6100 1.74000   1
   7   3 -10 14.6200 1.86000   1
   7   3 -10 15.9000 1.74000   1
   0  -5  -8 16.6600 1.58000   1
   0  -5  -8 15.1300 1.42000   1
   0   5   8 15.2900 1.51000   1
   0   5   8 15.1400 1.37000   1
   7   3   2 2.04000 0.64000   1
  -7  -3  -2 3.43000 0.93000   1
   7   3   2 2.98000 0.99000   1
   0  11  -2 31.7000 1.89000   1
   0  11  -2 29.8800 2.50000   1
   0   6 -11 21.2900 1.62000   1
   0   6 -11 22.3300 2.08000   1
   0  -6  11 18.3000 1.61000   1
   7  -6  -7 22.0900 2.03000   1
  -7   6   7 17.8900 1.09000   1
  -4  -9   7 9.05000 1.39000   1
   4   9  -7 9.07000 1.45000   1
   3  -5  -9 18.6900 1.29000   1
   3  -5  -9 17.5000 1.75000   1
  -3   5   9 17.1200 1.50000   1
  -3   5   9 18.6300 1.75000   1
  -7   9   1 0.21000 0.45000   1
  -7   9   1 -0.1500 0.35000   1
   7  -9  -1 0.91000 0.54000   1
   2  10  -1 8.11000 1.52000   1
   2  10  -1 15.0700 1.23000   1
  -2   7   7 12.8400 1.54000   1
   2  -7  -7 12.8500 1.12000   1
  -2   7   7 13.5800 1.27000   1
   2  -7  -7 14.8200 1.52000   1
  -9   5   0 28.8000 1.61000   1
   9  -5   0 27.9400 1.43000   1
   5   0   7 0.02000 0.28000   1
   5   0   7 1.70000 0.72000   1
  -5   0  -7 0.43000 0.77000   1
  -5   0  -7 0.14000 0.31000   1
   7  -2   5 18.7800 1.38000   1
  -7   2  -5 11.9900 1.53000   1
  -5  10   2 9.64000 1.10000   1
  -5  10   2 4.80000 0.46000   1
   5 -10  -2 6.20000 1.17000   1
  -1   9  -9 16.2200 1.15000   1
  -1   9  -9 14.2000 1.72000   1
   1  -9   9 12.8800 1.26000   1
  -2   1 -10 -0.1800 0.83000   1
   2  -1  10 1.36000 0.77000   1
   2  -1  10 0.33000 0.38000   1
   8   2  -9 13.8700 1.85000   1
   8   2  -9 15.6200 1.13000   1
   8   2  -9 18.9900 2.02000   1
  -8  -2   9 18.4300 1.83000   1
  -3  -2  -8 6.54000 0.71000   1
  -3  -2  -8 7.74000 1.24000   1
   3   2   8 7.02000 0.82000   1
   3   2   8 7.97000 1.30000   1
  -2   6   8 2.66000 0.96000   1
  -2   6   8 3.58000 0.78000   1
   2  -6  -8 3.52000 0.71000   1
   2  -6  -8 5.08000 1.01000   1
   0 -10   8 38.6500 2.50000   1
   0  10  -8 35.9300 2.46000   1
   0  10  -8 39.2000 3.23000   1
   7  -9   1 8.69000 0.79000   1
  -7   9  -1 8.59000 0.70000   1
  -7   9  -1 7.70000 0.65000   1
   6   7  -2 27.8200 2.36000   1
  -6  -7   2 17.4700 1.55000   1
   6   7  -2 26.1300 1.95000   1
  -6   7  -6 2.18000 0.32000   1
  -6   7  -6 2.08000 0.93000   1
   6  -7   6 3.91000 0.54000   1
   7  -5  -8 12.2600 1.35000   1
  -7   5   8 10.8600 0.98000   1
   9   1  -7 12.1700 1.38000   1
   9   1  -7 14.4800 1.86000   1
  -9  -1   7 15.2100 1.68000   1
  -4   9  -7 3.90000 0.99000   1
   4  -9   7 3.63000 0.52000   1
  -4   9  -7 2.94000 0.51000   1
   7   6  -3 0.72000 0.93000   1
   7   6  -3 1.99000 0.96000   1
   0  -2 -10 7.40000 0.96000   1
   0   2  10 11.4600 1.09000   1
   0   2  10 6.44000 1.18000   1
   0  -2 -10 11.2400 1.10000   1
   7   2   3 11.5100 1.42000   1
  -7  -2  -3 11.1900 1.39000   1
   7   2   3 11.4300 0.93000   1
  -3 -10   5 4.08000 1.15000   1
   3  10  -5 6.57000 1.18000   1
   6   3 -11 -0.0100 0.35000   1
   6   3 -11 -0.1700 0.80000   1
  -6  -3  11 0.22000 0.73000   1
  -6   0  11 0.87000 0.64000   1
   6   0 -11 0.35000 0.33000   1
   6   0 -11 0.15000 0.89000   1
   3  10  -4 18.6100 1.86000   1
   3  10  -4 17.2400 1.42000   1
  -7  -6   7 3.94000 1.27000   1
   7   6  -7 4.74000 1.34000   1
   4   9  -2 14.1800 1.48000   1
   4   9  -2 14.0900 1.75000   1
  -4  -6  11 0.59000 0.90000   1
   4   6 -11 0.79000 0.63000   1
   4   6 -11 1.24000 0.97000   1
   4   6 -11 1.99000 0.88000   1
   7   4   1 6.05000 1.12000   1
   7   4   1 5.19000 0.80000   1
  -7  -4  -1 4.32000 1.04000   1
  -4  11  -2 3.27000 0.63000   1
  -4  11  -2 2.23000 0.67000   1
  -2  11   0 -0.0200 0.63000   1
  -2  11   0 0.32000 0.37000   1
   5   5 -11 4.79000 0.80000   1
   5   5 -11 6.71000 1.26000   1
   5   5 -11 6.41000 1.17000   1
  -5  -5  11 7.24000 1.33000   1
   0  -8  -5 65.9000 4.50000   1
   0   8   5 64.8200 4.42000   1
   0  -8  -5 71.5300 4.61000   1
   0   8   5 64.1200 4.29000   1
   8  -5  -7 10.8900 1.47000   1
  -8   5   7 10.5200 0.97000   1
   9   2  -6 3.20000 1.00000   1
  -9  -2   6 4.07000 1.06000   1
   9   2  -6 3.04000 1.17000   1
  -5  -2  -6 9.50000 1.51000   1
  -5  -2  -6 13.7300 1.05000   1
   5   2   6 12.1600 1.02000   1
   5   2   6 12.6600 1.60000   1
  -9   4   6 66.7600 4.04000   1
   9  -4  -6 64.3300 4.30000   1
  -5   5   9 26.3700 1.78000   1
   5  -5  -9 26.0000 2.37000   1
   5  -5  -9 26.2500 1.45000   1
   3 -11   0 2.13000 0.86000   1
  -3  11   0 0.53000 0.39000   1
  -3  11   0 -0.1600 0.74000   1
   8   4  -2 5.99000 1.25000   1
   8   4  -2 6.65000 1.21000   1
  -8  -4   2 6.66000 0.95000   1
  -6  10  -1 0.57000 0.37000   1
  -6  10  -1 0.39000 0.37000   1
   6 -10   1 -0.4600 0.50000   1
  -1   4 -11 2.04000 0.90000   1
   1  -4  11 1.98000 0.80000   1
  -1   4 -11 1.39000 0.51000   1
  -8   7  -2 9.78000 0.81000   1
  -8   7  -2 11.5300 1.01000   1
   3   0   9 6.06000 0.65000   1
  -3   0  -9 10.0700 1.30000   1
   3   0   9 8.90000 1.25000   1
  -3   0  -9 6.48000 0.60000   1
   1  10  -8 0.39000 0.58000   1
   1  10  -8 -1.0500 0.86000   1
  -1 -10   8 0.76000 0.67000   1
  -9  -2   3 0.52000 0.45000   1
   9   2  -3 0.35000 0.70000   1
   9   2  -3 -0.6100 0.45000   1
   9   2  -3 -0.1200 0.70000   1
   6 -10   0 1.68000 0.75000   1
  -6  10   0 1.30000 0.37000   1
  -6  10   0 0.53000 0.55000   1
  -7   7   6 1.67000 0.73000   1
  -7   7   6 0.61000 0.29000   1
   7  -7  -6 -0.0700 0.82000   1
  -9   6   2 80.0600 4.36000   1
  -9   6   2 76.9900 4.28000   1
   9  -6  -2 81.1700 4.64000   1
  -4  11  -1 7.75000 0.79000   1
   4 -11   1 5.03000 0.35000   1
  -4  11  -1 7.26000 1.00000   1
  -1   3 -11 0.92000 0.53000   1
  -1   3 -11 0.57000 0.72000   1
   1  -3  11 -0.7000 0.75000   1
  -6   3  10 3.44000 0.77000   1
   6  -3 -10 3.64000 1.13000   1
   6  -3 -10 2.06000 0.26000   1
   6   4   3 1.39000 0.61000   1
  -6  -4  -3 3.94000 0.91000   1
   6   4   3 2.91000 0.93000   1
  -5  -8   8 6.73000 1.36000   1
   5   8  -8 7.83000 1.28000   1
  -8   6   6 52.7900 2.93000   1
   8  -6  -6 51.8900 3.69000   1
   3   3 -12 18.5900 1.77000   1
   3   3 -12 18.1900 1.42000   1
  -3  -3  12 17.5200 1.81000   1
  -5   8   6 3.30000 0.47000   1
   5  -8  -6 2.95000 1.12000   1
  -5   8   6 3.01000 0.86000   1
  -3  10   3 15.9800 1.07000   1
  -3  10   3 15.8600 1.63000   1
   3 -10  -3 15.7300 1.85000   1
  -3   9  -8 8.13000 1.30000   1
   3  -9   8 11.0200 0.93000   1
  -3   9  -8 9.11000 0.94000   1
   3   8 -10 30.9900 2.54000   1
   3   8 -10 30.1600 2.33000   1
  -3  -8  10 32.4300 2.61000   1
   3   8 -10 29.4800 2.73000   1
   1   1  10 0.41000 0.39000   1
   1   1  10 0.22000 0.77000   1
  -1  -1 -10 0.58000 0.77000   1
  -1  -1 -10 0.71000 0.48000   1
  -7   6  -5 72.0200 4.67000   1
   7  -6   5 62.8800 3.60000   1
  -1  10  -8 38.2400 3.00000   1
   1 -10   8 41.4200 2.47000   1
  -1  10  -8 39.2500 2.50000   1
   9  -3   1 29.5000 1.80000   1
  -9   3  -1 31.3800 2.06000   1
  -6  -7   8 32.7600 2.86000   1
   6   7  -8 32.1900 2.89000   1
   8  -8  -1 9.56000 0.91000   1
  -8   8   1 9.88000 0.81000   1
  -8   8   1 12.1100 0.79000   1
  -9   5   5 12.3900 0.85000   1
   9  -5  -5 16.0300 1.28000   1
  -8   1  -3 2.51000 0.74000   1
   8  -1   3 3.34000 0.73000   1
   8  -1   3 2.38000 0.39000   1
  -2  -7  11 19.3900 1.91000   1
   2   7 -11 20.8700 1.61000   1
   2   7 -11 20.1100 1.99000   1
   2   7 -11 18.8100 2.01000   1
   5  -4   8 8.25000 1.03000   1
  -5   4  -8 6.71000 0.45000   1
  -5   4  -8 9.70000 1.26000   1
   2  -8  -6 20.2600 1.96000   1
   2  -8  -6 23.3400 1.74000   1
  -2   8   6 21.7900 1.53000   1
  -2   8   6 19.1700 1.95000   1
  -8   2   9 4.52000 0.87000   1
   8  -2  -9 3.72000 1.18000   1
   3   2 -12 17.6200 1.38000   1
  -3  -2  12 18.7700 1.77000   1
   3   2 -12 19.5100 1.86000   1
  -8  -2  -1 6.42000 1.10000   1
   8   2   1 8.81000 0.91000   1
   8   2   1 8.43000 1.30000   1
  -4   4  -9 82.8600 4.74000   1
  -4   4  -9 86.1800 6.20000   1
   4  -4   9 84.9500 5.43000   1
  -8   6  -3 20.9000 1.07000   1
   8  -6   3 21.6700 1.24000   1
  -8   6  -3 26.7700 1.83000   1
  -4  11  -3 48.8200 3.12000   1
  -4  11  -3 42.9300 2.60000   1
  -7   9   2 0.84000 0.46000   1
  -7   9   2 1.10000 0.52000   1
   7  -9  -2 0.90000 0.73000   1
  -5   9  -6 15.5100 1.55000   1
  -5   9  -6 13.5200 0.86000   1
   5  -9   6 12.5600 0.74000   1
  -9   6   1 7.19000 0.55000   1
  -9   6   1 8.40000 0.65000   1
   9  -6  -1 9.23000 0.77000   1
   1 -11   6 0.76000 0.43000   1
  -1  11  -6 0.95000 0.68000   1
  -1  11  -6 1.79000 0.84000   1
   1   7 -11 1.20000 0.58000   1
   1   7 -11 0.91000 1.00000   1
   1   7 -11 2.34000 0.94000   1
  -1  -7  11 1.80000 0.81000   1
   1  11  -4 1.52000 0.86000   1
  -1 -11   4 0.46000 0.69000   1
  -3 -10   6 10.2500 1.46000   1
   3  10  -6 9.78000 1.42000   1
  -9   6   3 5.16000 0.45000   1
   9  -6  -3 4.07000 0.63000   1
  -9   6   3 4.44000 0.52000   1
  -1  -3  -9 0.09000 0.67000   1
  -1  -3  -9 1.46000 0.55000   1
   1   3   9 0.44000 0.53000   1
   1   3   9 0.56000 0.72000   1
   9  -4   1 0.92000 0.45000   1
  -9   4  -1 0.57000 0.47000   1
   7   5  -9 42.4400 3.59000   1
  -7  -5   9 51.7300 3.84000   1
   7   5  -9 48.2200 3.93000   1
   6   3   4 0.16000 0.43000   1
  -6  -3  -4 -1.9200 0.73000   1
   6   3   4 0.15000 0.74000   1
   3  10  -3 24.6800 2.25000   1
   3  10  -3 23.5500 1.86000   1
  -8   8   0 10.8700 0.86000   1
   8  -8   0 12.1400 0.89000   1
  -8   8   0 12.1600 0.81000   1
   2   3 -12 9.00000 1.12000   1
   2   3 -12 11.2800 1.35000   1
  -2  -3  12 8.79000 1.22000   1
  -1   5 -11 7.23000 1.26000   1
   1  -5  11 6.67000 1.06000   1
  -1   5 -11 6.50000 0.79000   1
  -6  10  -2 0.11000 0.31000   1
  -6  10  -2 0.24000 0.44000   1
  -4  10   3 17.6600 1.74000   1
   4 -10  -3 18.7700 1.88000   1
  -4  10   3 17.5400 1.21000   1
   5  -5   8 23.2200 1.62000   1
  -5   5  -8 23.7500 2.05000   1
  -9   3   7 21.8100 1.50000   1
   9  -3  -7 20.9600 1.80000   1
   0 -11   6 0.05000 0.44000   1
   0  11  -6 -0.5700 0.61000   1
  -8   4   8 0.51000 0.46000   1
   8  -4  -8 2.13000 0.95000   1
   1  -3 -10 8.91000 0.95000   1
   1  -3 -10 7.64000 1.16000   1
  -1   3  10 8.53000 1.07000   1
  -1   3  10 7.40000 1.08000   1
   9   1  -1 1.99000 0.82000   1
  -9  -1   1 1.27000 0.62000   1
   9   1  -1 1.51000 0.55000   1
   9   1  -1 1.95000 0.67000   1
   4 -10   6 1.15000 0.28000   1
  -4  10  -6 2.14000 0.86000   1
  -4  10  -6 1.05000 0.39000   1
  -4   2  11 17.0300 1.66000   1
   4  -2 -11 22.4200 2.12000   1
   4  -2 -11 19.9200 1.30000   1
  -8   8   2 20.6600 1.35000   1
  -8   8   2 19.6800 1.26000   1
   8  -8  -2 17.7800 1.39000   1
  -5   3  -8 0.16000 0.68000   1
   5  -3   8 0.88000 0.60000   1
  -5   3  -8 -0.1400 0.19000   1
  -4   8  -8 0.46000 0.47000   1
  -4   8  -8 0.51000 0.69000   1
   4  -8   8 0.43000 0.35000   1
  -4   8  -8 0.00000 0.26000   1
  -4   5  -9 19.7800 1.92000   1
   4  -5   9 26.3300 1.81000   1
  -4   5  -9 19.3800 1.22000   1
   7  -2 -10 20.8100 2.08000   1
  -7   2  10 14.8100 1.50000   1
  -3  10  -7 2.97000 0.94000   1
   3 -10   7 1.78000 0.46000   1
  -3  10  -7 2.71000 0.44000   1
  -3  -4  12 6.91000 1.23000   1
   3   4 -12 7.44000 1.06000   1
   3   4 -12 6.42000 1.22000   1
  -2   5   9 12.9200 1.37000   1
  -2   5   9 14.6600 1.58000   1
   2  -5  -9 14.1300 1.21000   1
   2  -5  -9 16.5600 1.65000   1
  -9   2  -1 18.3400 1.47000   1
   9  -2   1 19.9400 1.50000   1
  -7   9  -2 23.0400 1.33000   1
  -7   9  -2 25.1300 1.53000   1
   2  -7  10 25.8400 1.88000   1
  -2   7 -10 24.3100 1.67000   1
  -2   7 -10 29.4700 2.40000   1
   1  11  -3 3.58000 1.10000   1
   1  11  -3 5.57000 0.71000   1
  -4   3  -9 21.5700 1.27000   1
   4  -3   9 26.1100 2.01000   1
  -4   3  -9 21.0500 2.13000   1
  -1   8 -10 -0.6000 0.35000   1
  -1   8 -10 0.06000 0.84000   1
   1  -8  10 -0.3100 0.53000   1
  -1   8 -10 -0.3500 0.62000   1
   0  11  -1 17.0900 1.87000   1
   0  11  -1 19.9700 1.47000   1
   1  11  -5 36.7500 2.79000   1
  -1 -11   5 33.3800 2.31000   1
   9   0   0 1.43000 0.36000   1
   9   0   0 3.08000 0.84000   1
   9   0   0 3.59000 0.60000   1
  -9   0   0 3.15000 0.77000   1
  -2  10   3 9.24000 0.76000   1
   2 -10  -3 10.2500 1.28000   1
  -2  10   3 7.41000 1.26000   1
   6   5   2 0.54000 0.70000   1
   6   5   2 1.08000 0.81000   1
  -6  -5  -2 0.73000 0.82000   1
   8   3   0 6.07000 0.85000   1
  -8  -3   0 2.82000 0.87000   1
   8   3   0 4.48000 1.07000   1
   4   2 -12 -0.2600 0.43000   1
  -4  -2  12 -0.0600 0.64000   1
   4   2 -12 0.11000 0.80000   1
   3   6   5 2.42000 0.82000   1
   3   6   5 0.72000 0.62000   1
  -3  -6  -5 1.84000 0.70000   1
  -3  -6  -5 0.41000 0.93000   1
   3  -2 -11 13.6500 1.09000   1
  -3   2  11 15.6800 1.58000   1
   3  -2 -11 19.4900 1.79000   1
  -2  -4  12 17.8300 1.86000   1
   2   4 -12 21.7800 1.80000   1
   2   4 -12 20.1500 1.84000   1
  -6  10   1 8.18000 0.86000   1
   6 -10  -1 6.03000 1.01000   1
  -6  10   1 8.20000 0.66000   1
   3 -11   5 2.30000 0.34000   1
  -3  11  -5 0.92000 0.53000   1
  -3  11  -5 2.26000 0.87000   1
   4   3 -12 0.32000 0.47000   1
  -4  -3  12 -0.2400 0.67000   1
   4   3 -12 1.02000 0.84000   1
  -3  -5  -6 4.74000 0.85000   1
   3   5   6 7.52000 1.12000   1
  -3  -5  -6 6.83000 1.01000   1
   3   5   6 4.79000 0.89000   1
  -1  11   0 4.04000 0.93000   1
  -1  11   0 2.70000 0.51000   1
   8   1   2 0.76000 0.42000   1
  -8  -1  -2 0.58000 0.63000   1
   8   1   2 0.26000 0.73000   1
  -7   4   9 24.5300 1.75000   1
   7  -4  -9 23.6800 2.33000   1
   6  -6  -8 -0.3800 0.81000   1
  -6   6   8 0.20000 0.38000   1
   1  -1 -11 0.17000 0.65000   1
  -1   1  11 0.47000 0.72000   1
   1  -1 -11 0.72000 0.60000   1
   2   2 -12 9.54000 1.23000   1
   2   2 -12 12.9400 1.44000   1
  -2  -2  12 9.15000 1.40000   1
  -6   9   4 13.6100 0.87000   1
  -6   9   4 17.3800 1.22000   1
  -6   9   4 17.0700 1.65000   1
   6  -9  -4 18.6600 1.61000   1
  -5   8  -7 6.43000 1.14000   1
   5  -8   7 8.10000 0.72000   1
  -8  -4   8 1.58000 0.85000   1
   8   4  -8 1.04000 1.06000   1
   8   4  -8 1.10000 1.09000   1
   6   0   6 5.14000 0.48000   1
   6   0   6 6.87000 1.13000   1
  -6   0  -6 6.08000 1.02000   1
   1  10   1 30.8900 2.58000   1
   1  10   1 31.1800 2.27000   1
  -1   2 -11 6.03000 0.73000   1
  -1   2 -11 7.03000 1.25000   1
   1  -2  11 5.89000 1.14000   1
  -4  11   0 4.75000 0.92000   1
  -4  11   0 4.14000 0.37000   1
   4 -11   0 5.00000 1.12000   1
   1   9   3 48.8400 3.50000   1
  -1  -9  -3 49.4500 3.55000   1
  -1  -9  -3 49.5000 3.68000   1
   1   9   3 50.2400 3.36000   1
   6  -7  -7 7.25000 1.35000   1
  -6   7   7 6.94000 1.14000   1
  -6   7   7 7.84000 0.68000   1
   0  -4  -9 -0.4800 0.65000   1
   0  -4  -9 0.99000 0.55000   1
   0   4   9 0.20000 0.68000   1
   0   4   9 0.32000 0.63000   1
   3  -9  -5 6.94000 1.20000   1
  -3   9   5 3.98000 0.61000   1
  -3   9   5 5.32000 1.13000   1
   4  -4 -10 2.58000 0.46000   1
  -4   4  10 2.59000 0.82000   1
   4  -4 -10 4.38000 0.97000   1
   3   9  -9 33.0900 2.92000   1
   3   9  -9 32.9300 2.78000   1
  -3  -9   9 38.4400 3.01000   1
   2   2   9 12.8800 1.15000   1
  -2  -2  -9 13.0200 1.55000   1
  -2  -2  -9 13.3000 1.07000   1
   2   2   9 14.7400 1.58000   1
   2   6   6 0.45000 0.61000   1
  -2  -6  -6 -0.6600 0.82000   1
  -2  -6  -6 1.06000 0.60000   1
   2   6   6 0.96000 0.70000   1
   4  -9  -5 10.3600 1.54000   1
  -4   9   5 12.3800 1.36000   1
  -4   9   5 10.1000 0.77000   1
   0   0  11 1.53000 0.90000   1
   0   0 -11 0.88000 0.70000   1
   0   0 -11 1.64000 0.85000   1
   0   0  11 1.05000 0.46000   1
  -3  -7  11 1.37000 0.88000   1
   3   7 -11 0.45000 0.79000   1
   3   7 -11 1.01000 0.69000   1
   3   7 -11 0.46000 0.80000   1
  -5  -7  -1 21.8800 2.11000   1
   5   7   1 25.0900 2.14000   1
   5   7   1 25.8800 2.25000   1
   0 -10  -2 0.43000 0.81000   1
   0  10   2 0.64000 0.81000   1
   0  10   2 0.37000 0.50000   1
  -7  -1  -4 -0.0200 0.72000   1
   7   1   4 0.76000 0.72000   1
   7   1   4 0.60000 0.46000   1
   7  -1   5 1.55000 0.25000   1
   7  -1   5 1.40000 0.70000   1
  -7   1  -5 2.50000 0.83000   1
  -4  -8  -1 2.16000 1.09000   1
   4   8   1 3.09000 0.93000   1
   4   8   1 2.51000 1.00000   1
   8   3  -9 9.88000 1.48000   1
  -8  -3   9 8.09000 1.42000   1
   8   3  -9 10.5700 1.61000   1
   2   9   2 19.1300 1.95000   1
   2   9   2 19.4400 1.72000   1
  -2  -9  -2 20.2900 2.05000   1
   6   4 -11 1.06000 0.84000   1
   6   4 -11 0.19000 0.42000   1
   6   4 -11 -0.2400 0.89000   1
  -6  -4  11 0.93000 0.86000   1
  -2  11  -6 -0.9100 0.54000   1
  -2  11  -6 0.49000 0.73000   1
   2 -11   6 0.17000 0.39000   1
   7   4 -10 4.59000 0.67000   1
   7   4 -10 5.34000 1.30000   1
  -7  -4  10 4.57000 1.21000   1
   7   4 -10 6.81000 1.21000   1
  -6   1  11 0.97000 0.68000   1
   6  -1 -11 0.57000 0.80000   1
   6  -1 -11 -0.0700 0.23000   1
  -3  -1  12 -0.0100 0.76000   1
   3   1 -12 1.44000 0.86000   1
   3   1 -12 0.59000 0.49000   1
  -4  -5  -5 0.35000 0.56000   1
   4   5   5 -0.3200 0.77000   1
   4   5   5 0.79000 0.55000   1
  -4  -5  -5 1.07000 0.86000   1
   9   2  -7 17.0100 1.97000   1
  -9  -2   7 16.9400 1.78000   1
   9   2  -7 16.3400 1.75000   1
   6  -4   7 21.8900 1.50000   1
  -6   4  -7 17.9700 1.80000   1
   8   5  -5 0.59000 1.00000   1
   8   5  -5 1.18000 0.96000   1
  -9   0   8 14.7900 1.58000   1
   9   0  -8 14.2500 1.52000   1
   5   8  -1 7.34000 1.35000   1
   5   8  -1 8.12000 1.22000   1
   4   9  -8 0.61000 0.95000   1
  -4  -9   8 1.27000 0.93000   1
   7   5   0 1.04000 0.88000   1
  -7  -5   0 3.48000 0.87000   1
   7   5   0 1.67000 0.92000   1
  -8   7   5 13.3400 0.89000   1
   8  -7  -5 14.1100 1.53000   1
   9  -6   0 36.9300 1.90000   1
  -9   6   0 34.5900 1.87000   1
  -9   6   0 32.9700 1.77000   1
   9  -1  -8 16.8300 1.63000   1
  -9   1   8 15.1600 1.40000   1
   3  -4 -10 5.04000 0.63000   1
  -3   4  10 2.94000 0.88000   1
   3  -4 -10 4.35000 1.01000   1
  -3   4  10 3.24000 0.95000   1
   2  10  -8 7.45000 1.18000   1
  -2 -10   8 10.4100 1.32000   1
   9   2  -2 9.03000 1.16000   1
  -9  -2   2 7.69000 0.88000   1
   9   2  -2 6.51000 0.76000   1
   9   2  -2 7.49000 1.24000   1
  -9   5  -1 4.03000 0.54000   1
   9  -5   1 1.10000 0.48000   1
  -7   8  -4 6.06000 0.89000   1
   7  -8   4 3.47000 0.29000   1
  -7   8  -4 4.55000 0.42000   1
   7   6  -2 16.7500 1.74000   1
   7   6  -2 13.5500 1.70000   1
  -7  -6   2 11.5000 1.47000   1
  -8   8  -1 2.82000 0.45000   1
  -8   8  -1 2.96000 0.50000   1
   8  -8   1 1.66000 0.54000   1
  -4  -1  12 116.730 8.26000   1
   4   1 -12 118.460 7.54000   1
   4   1 -12 120.070 8.67000   1
  -5   2  11 57.9600 3.95000   1
   5  -2 -11 57.8700 4.29000   1
   5  -2 -11 55.0300 3.08000   1
   9  -6  -4 30.8100 1.97000   1
  -9   6   4 25.2700 1.14000   1
  -9   6   4 28.9500 1.63000   1
  -3   8  -9 19.9100 1.81000   1
  -3   8  -9 17.1400 1.23000   1
   3  -8   9 19.6500 1.32000   1
  -3   8  -9 17.2600 1.05000   1
  -4  11  -4 12.4800 0.94000   1
  -4  11  -4 13.4000 1.23000   1
  -2  -5  -7 25.0800 2.20000   1
   2   5   7 22.8100 1.93000   1
  -2  -5  -7 28.0600 1.90000   1
   2   5   7 19.7600 1.64000   1
   3  -4  10 37.5100 2.60000   1
   3  -4  10 30.5300 1.40000   1
  -3   4 -10 32.7800 1.95000   1
  -3   4 -10 36.5200 2.90000   1
   8   5  -6 21.6800 2.04000   1
  -8  -5   6 20.3500 2.04000   1
   8   5  -6 18.8700 2.05000   1
   7   6  -8 10.4200 1.77000   1
   7   6  -8 11.1100 1.75000   1
  -7  -6   8 13.1100 1.59000   1
  -4  -4  12 1.07000 0.97000   1
   4   4 -12 2.19000 0.94000   1
   4   4 -12 1.91000 0.62000   1
   0  -7  11 1.14000 0.72000   1
   0   7 -11 -0.0500 0.84000   1
   0   7 -11 0.58000 0.41000   1
   0   7 -11 -0.5000 0.57000   1
  -6   5  -7 41.2200 2.79000   1
   6  -5   7 39.9300 2.53000   1
  -4  -6  -4 6.30000 1.33000   1
   4   6   4 8.71000 1.01000   1
   4   6   4 6.25000 1.11000   1
  -1   7   7 34.1600 2.46000   1
  -1   7   7 37.5300 2.79000   1
   1  -7  -7 34.0600 2.74000   1
   1  -7  -7 37.4200 2.66000   1
   5  -6   8 0.77000 0.51000   1
  -5   6  -8 1.16000 0.31000   1
  -5   6  -8 2.60000 0.83000   1
  -2  -7  -5 9.46000 1.10000   1
   2   7   5 10.1600 1.28000   1
   2   7   5 10.0000 1.26000   1
  -2  -7  -5 7.77000 1.40000   1
  -5  10  -5 3.56000 0.41000   1
  -5  10  -5 2.92000 0.74000   1
   8   5  -4 0.85000 0.95000   1
   8   5  -4 0.55000 0.90000   1
  -6   3  -7 13.1600 1.45000   1
   6  -3   7 11.2000 1.25000   1
   3   7   4 -0.5500 0.60000   1
  -3  -7  -4 0.43000 0.62000   1
   3   7   4 0.09000 0.63000   1
  -3  -7  -4 -0.3000 0.76000   1
   5   7 -10 2.15000 1.05000   1
  -5  -7  10 0.98000 1.07000   1
   5   7 -10 2.63000 0.79000   1
   5   7 -10 3.68000 1.10000   1
   7  -8  -5 12.6400 1.41000   1
  -7   8   5 9.67000 0.65000   1
  -7   8   5 10.0800 0.74000   1
  -7   8   5 11.3400 1.26000   1
  -4   6  -9 0.35000 0.39000   1
   4  -6   9 1.02000 0.51000   1
  -4   6  -9 1.84000 0.84000   1
   6  -5  -9 11.4300 1.52000   1
  -6   5   9 9.91000 0.91000   1
  -2   9  -9 27.2800 2.37000   1
  -2   9  -9 30.2100 1.76000   1
   2  -9   9 30.5800 1.92000   1
  -6  -2  -5 -0.9100 0.70000   1
   6   2   5 0.44000 0.72000   1
   6   2   5 -0.0400 0.32000   1
   1  11  -2 10.2700 0.93000   1
   1  11  -2 9.87000 1.33000   1
  -8   8   3 0.07000 0.13000   1
  -8   8   3 0.70000 0.37000   1
  -8   8   3 -0.1600 0.29000   1
   8  -8  -3 0.74000 0.54000   1
   5  -4 -10 6.08000 1.13000   1
   5  -4 -10 4.49000 0.50000   1
  -5   4  10 4.98000 0.89000   1
  -5   2  -8 0.98000 0.77000   1
  -5   2  -8 0.27000 0.26000   1
   5  -2   8 -0.5000 0.70000   1
  -3 -10   7 2.12000 0.87000   1
   3  10  -7 2.94000 1.06000   1
  -1   6 -11 2.28000 1.06000   1
  -1   6 -11 4.39000 0.66000   1
   1  -6  11 3.55000 0.79000   1
   1  -6  -8 12.8900 1.52000   1
   1  -6  -8 13.9500 1.36000   1
  -1   6   8 12.3000 1.36000   1
  -1   6   8 14.7800 1.48000   1
  -1 -11   6 5.42000 0.80000   1
   1  11  -6 3.24000 1.05000   1
   2   5 -12 30.8900 2.52000   1
   2   5 -12 31.9900 2.54000   1
  -2  -5  12 31.2300 2.57000   1
   3 -11  -1 -0.4800 0.86000   1
  -3  11   1 1.06000 0.46000   1
  -3  11   1 -0.5800 0.75000   1
  -6  10  -3 10.0400 0.72000   1
  -6  10  -3 11.5900 0.93000   1
   2 -10   8 9.83000 0.80000   1
  -2  10  -8 10.4000 0.87000   1
  -2  10  -8 9.54000 1.35000   1
   4  -2   9 5.27000 0.92000   1
  -4   2  -9 4.98000 1.15000   1
  -4   2  -9 4.28000 0.53000   1
   3   4   7 31.9000 2.53000   1
   3   4   7 36.9500 2.31000   1
  -3  -4  -7 35.7900 2.26000   1
  -3  -4  -7 38.5700 2.75000   1
  -4  -4  -6 43.1600 3.36000   1
  -4  -4  -6 40.5800 2.44000   1
   4   4   6 42.1200 2.60000   1
   4   4   6 41.6400 3.21000   1
  -1  -3  12 -1.2500 0.69000   1
   1   3 -12 0.16000 0.57000   1
   1   3 -12 0.39000 0.62000   1
  -3   5 -10 26.7800 1.63000   1
  -3   5 -10 28.5500 2.46000   1
   3  -5  10 27.3100 2.03000   1
   3  -5  10 22.4200 1.02000   1
   3  10  -2 23.8900 1.82000   1
   3  10  -2 24.3000 2.30000   1
   2   0  10 8.49000 1.33000   1
  -2   0 -10 11.0000 1.40000   1
  -2   0 -10 8.76000 0.81000   1
   2   0  10 8.45000 0.76000   1
   9  -1   1 1.13000 0.47000   1
   9  -1   1 -0.2800 0.52000   1
   9  -1   1 0.30000 0.13000   1
  -9   1  -1 0.95000 0.61000   1
   2  10   0 49.7100 3.88000   1
   2  10   0 52.3900 3.48000   1
   3   5 -12 -0.3400 0.73000   1
  -3  -5  12 -0.3200 0.80000   1
   3   5 -12 -0.9000 0.63000   1
   6   7  -1 0.87000 0.83000   1
   6   7  -1 1.95000 0.83000   1
  -6  -7   1 2.37000 0.89000   1
   3  -3  10 19.2900 1.64000   1
  -3   3 -10 13.9800 1.05000   1
  -3   3 -10 17.7300 1.77000   1
   3  -3  10 13.6100 0.74000   1
   9   1  -8 9.97000 1.36000   1
   9   1  -8 6.38000 1.10000   1
  -9  -1   8 7.65000 1.12000   1
   1   4 -12 0.73000 0.65000   1
   1   4 -12 -0.4400 0.71000   1
  -1  -4  12 0.30000 0.75000   1
  -5  10   3 19.9400 1.17000   1
   5 -10  -3 23.7900 2.14000   1
  -5  10   3 23.0900 1.95000   1
  -9  -3   5 9.27000 1.45000   1
   9   3  -5 8.59000 1.51000   1
   9   3  -5 10.6100 1.34000   1
   2  -2 -11 20.8500 1.46000   1
  -2   2  11 18.4100 1.74000   1
   2  -2 -11 21.3300 1.74000   1
  -7   9   3 1.17000 0.59000   1
  -7   9   3 1.97000 0.48000   1
  -7   9   3 1.54000 0.19000   1
   7  -9  -3 2.42000 0.84000   1
   0  -9  -4 14.1600 1.62000   1
   0  -9  -4 16.5600 1.72000   1
   0   9   4 15.0600 1.72000   1
   0   9   4 17.7200 1.44000   1
   4   9  -1 1.28000 0.77000   1
   4   9  -1 -0.0600 0.76000   1
   2   1 -12 2.10000 0.88000   1
  -2  -1  12 1.12000 0.89000   1
   2   1 -12 2.69000 0.66000   1
   2  -9  -5 2.31000 1.02000   1
  -2   9   5 1.02000 0.97000   1
  -2   9   5 4.03000 0.62000   1
   8  -4   4 0.67000 0.45000   1
  -8   4  -4 1.65000 0.61000   1
  -2  11   1 8.12000 1.18000   1
  -2  11   1 5.56000 0.60000   1
   2 -11  -1 6.58000 1.30000   1
   6   6 -10 1.24000 1.22000   1
   6   6 -10 7.07000 1.14000   1
   6   6 -10 2.81000 0.73000   1
  -6  -6  10 2.39000 1.14000   1
  -6   9  -5 24.8800 1.42000   1
  -6   9  -5 24.8000 1.85000   1
   6  -9   5 24.1100 1.07000   1
  -5   9   5 0.10000 0.34000   1
  -5   9   5 -0.5900 0.60000   1
   5  -9  -5 0.51000 0.77000   1
  -7   7  -5 2.52000 0.84000   1
   7  -7   5 1.52000 0.39000   1
  -6   8   6 3.83000 0.93000   1
  -6   8   6 4.29000 0.57000   1
   6  -8  -6 4.54000 1.10000   1
  -8  -4   1 0.36000 0.68000   1
   8   4  -1 0.76000 0.73000   1
   8   4  -1 1.39000 0.74000   1
  -9   2   8 0.40000 0.56000   1
   9  -2  -8 0.67000 0.74000   1
   4   1   8 22.3700 2.00000   1
   4   1   8 19.6300 1.27000   1
  -4  -1  -8 20.1900 1.18000   1
  -4  -1  -8 19.9900 1.97000   1
   9   3  -4 7.33000 1.00000   1
  -9  -3   4 8.65000 0.89000   1
   9   3  -4 8.86000 1.41000   1
   9   3  -4 7.23000 1.27000   1
   5   2 -12 0.95000 0.57000   1
   5   2 -12 0.42000 0.93000   1
  -5  -2  12 1.81000 0.84000   1
  -8   3  -4 19.9600 1.64000   1
   8  -3   4 22.3900 1.55000   1
  -8   3   9 1.57000 0.59000   1
   8  -3  -9 0.74000 0.85000   1
   6 -10  -2 33.8500 2.56000   1
  -6  10   2 33.2700 1.97000   1
  -6  10   2 33.0600 2.43000   1
   6  -8   6 0.44000 0.32000   1
  -6   8  -6 1.33000 0.69000   1
   1  -8  -6 6.58000 0.96000   1
  -1   8   6 9.69000 1.15000   1
  -1   8   6 7.92000 1.01000   1
   1  -8  -6 6.90000 1.09000   1
   8   0   3 2.01000 0.48000   1
   8   0   3 1.59000 0.69000   1
  -8   0  -3 1.79000 0.83000   1
  -6  -6  -1 7.31000 1.20000   1
   6   6   1 4.40000 1.15000   1
   6   6   1 9.77000 1.29000   1
  -1  10   3 10.0900 0.97000   1
   1 -10  -3 10.3200 1.37000   1
  -1  10   3 8.37000 1.38000   1
   9   3  -6 6.19000 1.09000   1
   9   3  -6 11.8500 1.55000   1
  -9  -3   6 7.43000 1.29000   1
  -9   5   6 0.86000 0.49000   1
   9  -5  -6 0.66000 0.79000   1
   6   8  -5 6.90000 1.27000   1
   6   8  -5 11.9100 1.62000   1
   3   9   1 2.74000 1.02000   1
   3   9   1 1.63000 0.92000   1
  -5  11  -1 3.72000 0.52000   1
  -5  11  -1 1.75000 0.68000   1
   1   2 -12 9.64000 1.31000   1
   1   2 -12 11.5900 1.27000   1
  -1  -2  12 11.0800 1.42000   1
   1   6   7 5.83000 1.05000   1
  -1  -6  -7 5.98000 1.04000   1
   1   6   7 6.80000 1.04000   1
  -1  -6  -7 6.22000 1.17000   1
   5   3 -12 16.7200 1.89000   1
   5   3 -12 15.3300 1.18000   1
  -5  -3  12 15.0000 1.70000   1
  -1  -9  10 0.44000 0.62000   1
   1   9 -10 -0.2200 0.71000   1
   1   9 -10 1.26000 0.63000   1
   5   6 -11 16.5200 1.90000   1
   5   6 -11 12.9600 1.46000   1
   5   6 -11 15.4900 1.76000   1
  -5  -6  11 14.5100 1.65000   1
  -8   7  -3 3.47000 0.70000   1
  -8   7  -3 2.08000 0.38000   1
   8  -7   3 1.95000 0.26000   1
  -7   9  -3 0.05000 0.39000   1
  -7   9  -3 0.35000 0.40000   1
   8   5  -7 1.43000 0.75000   1
   8   5  -7 0.39000 0.95000   1
  -8  -5   7 -0.4200 0.91000   1
  -5  -1  -7 29.2300 2.57000   1
   5   1   7 32.8900 2.61000   1
  -5  -1  -7 29.6100 1.78000   1
   5   1   7 31.5300 1.79000   1
  -5  11  -2 10.0300 0.92000   1
  -5  11  -2 13.1900 0.97000   1
   4   8 -10 10.0300 1.56000   1
   4   8 -10 7.99000 1.45000   1
   4   8 -10 8.71000 1.32000   1
  -4  -8  10 10.9000 1.50000   1
   8  -5   4 11.1200 0.81000   1
  -8   5  -4 9.08000 1.04000   1
  -1   1 -11 1.11000 0.85000   1
   1  -1  11 0.64000 0.34000   1
   1  -1  11 1.43000 0.80000   1
  -1   1 -11 0.64000 0.58000   1
   4 -11  -1 0.67000 0.64000   1
  -4  11   1 1.42000 0.64000   1
  -4  11   1 -0.3500 0.26000   1
   9  -4  -7 1.83000 0.94000   1
  -9   4   7 1.73000 0.50000   1
   8   1 -10 12.9900 1.61000   1
  -8  -1  10 10.7100 1.42000   1
   8   1 -10 8.54000 0.61000   1
  -6   6  -7 0.76000 0.79000   1
   6  -6   7 0.80000 0.43000   1
   0  11  -7 1.43000 0.80000   1
   0 -11   7 1.67000 0.60000   1
   0  11  -7 2.83000 0.98000   1
   7   1 -11 -0.0200 0.90000   1
  -7  -1  11 1.11000 0.77000   1
   7   1 -11 0.07000 0.28000   1
   1   7   6 3.65000 0.97000   1
   1   7   6 5.30000 0.86000   1
  -1  -7  -6 1.60000 0.90000   1
  -1  -7  -6 2.22000 0.86000   1
   5   9  -5 7.88000 1.51000   1
   5   9  -5 8.87000 1.27000   1
  -8   0  10 32.8900 2.41000   1
   8   0 -10 34.5300 2.80000   1
   8   0 -10 26.2000 1.27000   1
   6   8  -6 6.59000 1.40000   1
  -6  -8   6 5.20000 1.38000   1
  10  -2  -4 0.92000 0.50000   1
 -10   2   4 0.13000 0.45000   1
 -10   2   4 0.28000 0.44000   1
   5   1 -12 1.28000 0.98000   1
  -5  -1  12 2.22000 0.86000   1
   5   1 -12 0.92000 0.52000   1
   1 -11   7 4.00000 0.65000   1
  -1  11  -7 4.98000 0.91000   1
  -1  11  -7 4.53000 1.13000   1
   6   7  -9 0.80000 0.82000   1
  -6  -7   9 0.45000 0.90000   1
   6   7  -9 -0.6400 0.83000   1
   5   8  -9 46.0800 3.76000   1
  -5  -8   9 52.0300 3.95000   1
   1   5 -12 29.3800 2.45000   1
   1   5 -12 26.9500 2.07000   1
  -1  -5  12 29.0800 2.39000   1
   2  -4 -10 -0.6100 0.75000   1
   2  -4 -10 0.77000 0.49000   1
  -2   4  10 1.40000 0.67000   1
  -2   4  10 0.59000 0.72000   1
   8   5  -3 10.9200 1.39000   1
   8   5  -3 7.02000 1.39000   1
  -8  -5   3 5.67000 1.11000   1
  -5  -5  -4 2.16000 1.03000   1
   5   5   4 1.92000 0.80000   1
   5   5   4 2.84000 0.95000   1
  -6   2  -7 5.49000 1.01000   1
   6  -2   7 2.70000 0.89000   1
 -10   2   3 28.9100 1.73000   1
 -10   2   3 28.8500 1.90000   1
  10  -2  -3 29.8000 1.92000   1
   0  11   0 0.59000 0.49000   1
   0  11   0 1.49000 0.83000   1
  -7  -2  11 7.57000 1.12000   1
   7   2 -11 1.44000 1.14000   1
   7   2 -11 1.98000 0.51000   1
   4   0 -12 11.3500 1.54000   1
   4   0 -12 11.2000 1.04000   1
  -4   0  12 11.5900 1.26000   1
   3   0 -12 14.0500 1.13000   1
  -3   0  12 13.5500 1.52000   1
   3   0 -12 13.3700 1.62000   1
   4   7   3 1.50000 0.68000   1
   4   7   3 0.02000 0.89000   1
  -4  -7  -3 1.51000 0.96000   1
  -3   6 -10 7.42000 1.45000   1
  -3   6 -10 9.38000 0.70000   1
   3  -6  10 9.57000 1.00000   1
   6   8  -4 3.11000 1.14000   1
   6   8  -4 1.00000 0.93000   1
  -5  -9   6 9.85000 1.45000   1
   5   9  -6 4.07000 1.32000   1
   0   9 -10 26.1000 1.80000   1
   0   9 -10 26.9100 2.22000   1
   0  -9  10 26.0600 1.98000   1
  -2  -4  -8 13.7300 1.58000   1
  -2  -4  -8 15.0100 1.19000   1
   2   4   8 14.9300 1.40000   1
   2   4   8 10.9100 1.07000   1
   1  -5  -9 -0.2500 0.57000   1
  -1   5   9 1.19000 0.69000   1
   1  -5  -9 1.64000 0.70000   1
  -1   5   9 -1.0100 0.67000   1
   4   7 -11 -1.1300 0.66000   1
  -4  -7  11 0.08000 0.89000   1
   4   7 -11 0.13000 0.93000   1
   4   7 -11 0.15000 0.71000   1
   5   4   5 6.85000 1.21000   1
   5   4   5 7.97000 0.89000   1
  -5  -4  -5 10.7400 1.36000   1
 -10   1   4 2.42000 0.50000   1
  10  -1  -4 2.39000 0.61000   1
 -10   1   4 3.63000 0.73000   1
  10  -3  -3 1.29000 0.46000   1
 -10   3   3 1.73000 0.49000   1
 -10   3   3 3.27000 0.52000   1
   3   1   9 11.0300 0.88000   1
  -3  -1  -9 12.9900 1.53000   1
  -3  -1  -9 9.50000 0.83000   1
   3   1   9 12.2200 1.53000   1
   5   9  -4 8.49000 1.44000   1
   5   9  -4 7.45000 1.27000   1
  -3  11  -6 13.8800 1.07000   1
  -3  11  -6 12.3400 1.48000   1
   3 -11   6 17.7200 0.99000   1
   3  -2  10 1.38000 0.29000   1
   3  -2  10 4.24000 0.91000   1
  -3   2 -10 1.60000 0.36000   1
  -3   2 -10 2.57000 1.00000   1
   4   5 -12 5.00000 0.97000   1
   4   5 -12 8.07000 1.32000   1
  -4  -5  12 5.29000 1.21000   1
   4   5 -12 5.88000 0.89000   1
   2   8   4 3.76000 0.83000   1
   2   8   4 1.99000 0.92000   1
  -2  -8  -4 1.28000 0.82000   1
  -2  -8  -4 1.83000 0.90000   1
  -5  11   0 18.4200 1.23000   1
  -5  11   0 17.0900 1.44000   1
   5 -11   0 19.0300 1.87000   1
  -8   8  -2 6.23000 0.72000   1
  -8   8  -2 8.06000 0.79000   1
   7  -3 -10 2.87000 1.28000   1
  -7   3  10 5.49000 0.79000   1
  -9   6  -1 42.8500 2.46000   1
   9  -6   1 41.7700 1.99000   1
  -9   6  -1 43.0400 2.45000   1
 -10   3   4 16.4200 1.06000   1
 -10   3   4 16.1500 1.19000   1
  10  -3  -4 19.4100 1.38000   1
   2   9 -10 1.16000 0.79000   1
  -2  -9  10 1.69000 0.92000   1
   2   9 -10 1.64000 1.02000   1
   7   0 -11 4.67000 1.39000   1
  -7   0  11 7.05000 1.16000   1
  -9   7   2 4.22000 0.34000   1
  -9   7   2 4.57000 0.52000   1
   9  -7  -2 5.91000 0.65000   1
  -8   2  -4 17.8500 1.69000   1
   8  -2   4 20.9500 1.56000   1
  -9  -1   0 1.17000 0.65000   1
   9   1   0 0.00000 0.51000   1
   9   1   0 0.18000 0.68000   1
   9   1   0 0.13000 0.37000   1
  -9  -3   3 19.3800 1.69000   1
   9   3  -3 22.5900 2.03000   1
   9   3  -3 22.4600 1.64000   1
   9   3  -3 24.5400 2.07000   1
   0  10  -9 5.88000 0.97000   1
   0  10  -9 7.08000 1.34000   1
   0 -10   9 5.85000 0.95000   1
   9  -7  -1 -0.0800 0.41000   1
  -9   7   1 0.25000 0.17000   1
  -9   7   1 0.42000 0.30000   1
  -9   7   1 0.72000 0.32000   1
  -9   6   5 3.15000 0.58000   1
   9  -6  -5 5.72000 0.92000   1
   2  11  -4 9.96000 1.27000   1
   2  11  -4 5.32000 0.81000   1
 -10   2   5 0.16000 0.31000   1
 -10   2   5 -0.6400 0.51000   1
  10  -2  -5 2.27000 0.55000   1
  -9   3  -2 9.71000 1.09000   1
   9  -3   2 10.5200 0.92000   1
  -8  -2  10 1.30000 0.87000   1
   8   2 -10 1.91000 0.76000   1
   8   2 -10 -0.0200 0.38000   1
   9  -4   2 7.94000 0.82000   1
  -9   4  -2 8.09000 0.96000   1
   9   2  -8 3.73000 1.19000   1
   9   2  -8 4.14000 1.28000   1
  -9  -2   8 4.67000 1.08000   1
  -2 -11   5 1.25000 0.76000   1
   2  11  -5 3.48000 0.93000   1
  -1 -10   9 -0.3800 0.67000   1
   1  10  -9 1.78000 0.67000   1
   1  10  -9 1.40000 0.99000   1
 -10   1   5 0.62000 0.61000   1
  10  -1  -5 0.83000 0.53000   1
 -10   1   5 -0.1100 0.43000   1
  -5  11  -3 4.99000 0.58000   1
  -5  11  -3 4.33000 0.78000   1
   1 -11  -1 5.35000 1.32000   1
  -1  11   1 5.89000 1.16000   1
  -1  11   1 7.92000 0.74000   1
   5  -7   8 17.1600 1.12000   1
  -5   7  -8 12.4900 0.82000   1
  -5   7  -8 15.7700 1.63000   1
  -6  -5  11 2.71000 1.15000   1
   6   5 -11 0.94000 1.03000   1
   6   5 -11 4.96000 0.71000   1
   6   5 -11 1.04000 1.16000   1
 -10   1   3 5.65000 0.72000   1
 -10   1   3 3.58000 0.89000   1
  10  -1  -3 5.82000 0.80000   1
  -1  -5  -8 16.4000 1.57000   1
   1   5   8 17.3100 1.56000   1
   1   5   8 19.7900 1.57000   1
  -1  -5  -8 17.4900 1.59000   1
   6  -2 -11 7.33000 1.35000   1
   6  -2 -11 5.10000 0.43000   1
  -6   2  11 5.53000 1.04000   1
   4 -11   5 2.47000 0.26000   1
  -4  11  -5 3.66000 0.50000   1
  -4  11  -5 3.53000 0.92000   1
  -8   1  10 0.51000 0.67000   1
   8  -1 -10 1.01000 0.92000   1
   7  -4   6 7.94000 0.81000   1
  -7   4  -6 6.19000 1.15000   1
  -2   8 -10 6.78000 0.84000   1
  -2   8 -10 8.20000 1.28000   1
   2  -8  10 7.57000 0.95000   1
   4   3   7 24.5500 2.20000   1
   4   3   7 23.4000 1.69000   1
  -4  -3  -7 24.5600 1.65000   1
  -4  -3  -7 23.1500 1.97000   1
  -4   7  -9 0.76000 0.45000   1
  -4   7  -9 2.24000 0.78000   1
   4  -7   9 0.16000 0.44000   1
   1  11  -1 4.34000 0.68000   1
   1  11  -1 4.03000 1.03000   1
  -7   0  -5 2.67000 0.88000   1
   7   0   5 1.19000 0.87000   1
   7   0   5 2.46000 0.39000   1
  -6   4  10 2.28000 0.76000   1
   6  -4 -10 2.27000 0.27000   1
   6  -4 -10 1.99000 1.02000   1
   5   4 -12 19.7200 1.52000   1
  -5  -4  12 22.3800 2.23000   1
   5   4 -12 25.2500 2.26000   1
   5   6   3 -0.6200 0.72000   1
   5   6   3 0.62000 0.72000   1
  -5  -6  -3 1.26000 0.84000   1
   9   2  -1 26.5800 1.89000   1
  -9  -2   1 22.8600 1.93000   1
   9   2  -1 27.3400 1.80000   1
   9   2  -1 23.4600 2.10000   1
  -8  -4   9 18.3200 2.03000   1
   8   4  -9 20.1000 2.19000   1
   8   4  -9 21.7500 2.33000   1
   9   3  -7 29.3400 2.61000   1
  -9  -3   7 32.6000 2.49000   1
   9   3  -7 30.5300 2.83000   1
   1  11  -7 10.4000 1.32000   1
  -1 -11   7 9.37000 1.05000   1
   7   7  -5 16.6200 2.07000   1
   7   7  -5 17.1500 1.60000   1
  -8   8   4 1.96000 0.31000   1
  -8   8   4 3.07000 0.37000   1
   8  -8  -4 2.51000 0.87000   1
  -8   8   4 3.19000 0.77000   1
   2   6 -12 9.98000 1.38000   1
  -2  -6  12 9.47000 1.19000   1
   2   6 -12 9.17000 1.02000   1
   2   6 -12 10.3700 1.38000   1
   3   8   3 0.52000 0.81000   1
   3   8   3 0.63000 0.73000   1
  -3  -8  -3 0.75000 0.89000   1
  -8   6   7 2.12000 0.39000   1
   8  -6  -7 0.94000 0.90000   1
   1   8 -11 26.8700 2.18000   1
  -1  -8  11 23.8600 2.13000   1
   1   8 -11 24.3200 1.79000   1
   1   8 -11 27.9600 2.29000   1
   6   8  -7 4.47000 1.41000   1
  -6  -8   7 7.60000 1.42000   1
  10  -3  -2 22.0500 1.34000   1
 -10   3   2 23.2500 1.44000   1
 -10   3   2 19.9500 1.26000   1
  -5   1  -8 3.17000 1.01000   1
   5  -1   8 2.31000 0.29000   1
  -5   1  -8 3.31000 0.40000   1
   5  -1   8 5.06000 0.94000   1
  -2  -8  11 7.23000 1.09000   1
   2   8 -11 5.73000 1.02000   1
   2   8 -11 5.16000 1.23000   1
   2   8 -11 7.23000 1.29000   1
 -10   2   2 9.75000 0.82000   1
  10  -2  -2 12.7600 1.02000   1
  10  -2  -2 10.6800 0.84000   1
  -4   1  -9 6.19000 0.71000   1
   4  -1   9 5.77000 0.48000   1
   4  -1   9 7.21000 1.23000   1
  -4   1  -9 7.76000 1.32000   1
  -1  -2 -10 1.67000 0.95000   1
   1   2  10 2.60000 0.56000   1
  -1  -2 -10 1.44000 0.62000   1
   1   2  10 4.50000 0.91000   1
  -7  -7   6 11.2900 1.55000   1
   7   7  -6 9.97000 1.67000   1
   1   8   5 20.9200 1.91000   1
  -1  -8  -5 19.9500 1.88000   1
  -1  -8  -5 18.7500 1.74000   1
   1   8   5 17.5500 1.66000   1
  -9   7   3 0.22000 0.22000   1
  -9   7   3 -0.1000 0.20000   1
   9  -7  -3 0.46000 0.44000   1
  -7   5  -6 7.79000 1.14000   1
   7  -5   6 4.61000 0.80000   1
  -9   3   8 5.02000 0.68000   1
   9  -3  -8 2.16000 0.96000   1
  -4   7   8 6.07000 0.75000   1
  -4   7   8 8.37000 1.28000   1
   4  -7  -8 6.98000 0.80000   1
   4  -7  -8 6.84000 1.20000   1
   0   3  10 8.96000 0.97000   1
   0  -3 -10 7.33000 1.14000   1
   0  -3 -10 10.7600 1.12000   1
   0   3  10 9.26000 1.25000   1
  -8   5   8 5.86000 0.63000   1
   8  -5  -8 4.29000 1.26000   1
  -7   6   8 12.6900 0.91000   1
   7  -6  -8 10.4000 1.56000   1
  -1   7 -11 23.9400 1.74000   1
  -1   7 -11 30.7900 2.55000   1
   1  -7  11 24.9200 1.99000   1
  -1   7 -11 23.1500 1.40000   1
   9   0   1 0.45000 0.38000   1
  -9   0  -1 0.66000 0.62000   1
   9   0   1 0.04000 0.21000   1
   9   0   1 0.19000 0.57000   1
   7   3 -11 9.98000 1.50000   1
  -7  -3  11 10.4900 1.48000   1
   7   3 -11 9.74000 1.67000   1
   7   3 -11 9.38000 0.76000   1
  -7  -5  10 11.7300 1.70000   1
   7   5 -10 13.8200 1.59000   1
   7   5 -10 10.3300 1.82000   1
  -7  -3  -3 6.77000 1.25000   1
   7   3   3 7.34000 1.10000   1
   7   3   3 7.42000 0.85000   1
   8  -6   4 22.3800 1.35000   1
  -8   6  -4 24.1000 1.94000   1
  -6  10  -4 10.7300 0.78000   1
  -6  10  -4 11.5800 1.17000   1
  -7   3  -6 13.5100 1.39000   1
   7  -3   6 11.6500 1.11000   1
   7   6  -1 3.64000 0.98000   1
   7   6  -1 2.90000 1.10000   1
  -7  -6   1 6.10000 0.97000   1
   3   3   8 17.8000 1.21000   1
  -3  -3  -8 13.0900 1.13000   1
  -3  -3  -8 15.8400 1.74000   1
   3   3   8 17.4500 1.71000   1
   2 -11   7 19.9100 1.33000   1
  -2  11  -7 19.9500 1.44000   1
  -2  11  -7 22.9200 2.04000   1
  -3 -10   8 10.5400 1.27000   1
   3  10  -8 10.4300 1.54000   1
  -2   4 -11 8.06000 0.76000   1
  -2   4 -11 9.56000 1.44000   1
   2  -4  11 9.68000 1.26000   1
  -5   0  12 11.3000 1.43000   1
   5   0 -12 11.3900 0.90000   1
   5   0 -12 12.8900 1.59000   1
   2  11  -3 1.74000 0.77000   1
   2  11  -3 2.17000 1.01000   1
   1   1 -12 16.4500 1.45000   1
   1   1 -12 17.0300 1.66000   1
  -1  -1  12 16.7300 1.61000   1
 -10   3   5 4.23000 0.39000   1
  10  -3  -5 5.86000 0.81000   1
 -10   3   5 5.77000 0.68000   1
   7   4   2 8.49000 0.98000   1
   7   4   2 8.17000 1.35000   1
  -7  -4  -2 7.52000 1.28000   1
  -3  10   4 1.74000 0.43000   1
   3 -10  -4 1.36000 1.00000   1
  -3  10   4 0.34000 0.83000   1
  -3  -6  12 18.6900 1.85000   1
   3   6 -12 14.9000 1.52000   1
   3   6 -12 17.7000 1.91000   1
   3   6 -12 18.0600 1.49000   1
  -2   0  12 25.0600 2.25000   1
   2   0 -12 26.4100 2.03000   1
   2   0 -12 28.0800 2.34000   1
   0  -1 -11 0.50000 0.58000   1
   0   1  11 0.57000 0.51000   1
   0  -1 -11 0.54000 0.65000   1
   0   1  11 1.21000 0.70000   1
 -10   4   3 0.27000 0.36000   1
 -10   4   3 0.44000 0.39000   1
  10  -4  -3 0.47000 0.50000   1
   5   9  -7 40.4400 3.21000   1
  -5  -9   7 36.1800 3.27000   1
   3  10  -1 14.9500 1.84000   1
   3  10  -1 14.8100 1.33000   1
   4  -3 -11 4.37000 0.53000   1
   4  -3 -11 5.06000 1.09000   1
  -4   3  11 4.78000 0.87000   1
   9  -2   2 2.35000 0.62000   1
  -9   2  -2 1.91000 0.65000   1
  -4  10   4 22.5300 1.85000   1
  -4  10   4 18.4800 1.10000   1
   4 -10  -4 15.8800 2.00000   1
   7  -7  -7 26.8500 2.34000   1
  -7   7   7 26.5500 2.09000   1
  -7   7   7 21.5800 1.32000   1
  -6  -1  -6 10.3200 1.36000   1
   6   1   6 13.0500 1.47000   1
   6   1   6 9.80000 0.79000   1
   7   6  -9 1.43000 1.17000   1
  -7  -6   9 3.08000 1.12000   1
   7   6  -9 3.10000 1.13000   1
  -9   7   0 2.71000 0.36000   1
  -9   7   0 1.46000 0.23000   1
  -9   7   0 2.88000 0.39000   1
   9  -7   0 1.48000 0.45000   1
  -4  -9   9 23.9900 2.35000   1
   4   9  -9 27.2300 2.35000   1
   9  -5   2 9.60000 0.68000   1
  -9   5  -2 10.3400 0.98000   1
  -9   5  -2 11.4000 0.72000   1
 -10   0   4 7.80000 0.84000   1
  10   0  -4 8.27000 1.30000   1
  10   0  -4 6.81000 0.85000   1
 -10   0   4 8.98000 1.04000   1
  -2 -11   6 16.2700 1.62000   1
   2  11  -6 14.1800 1.56000   1
   4 -10   7 0.52000 0.32000   1
  -4  10  -7 0.31000 0.38000   1
  -4  10  -7 0.99000 0.75000   1
  -1   9   5 17.2400 1.30000   1
   1  -9  -5 14.1900 1.78000   1
   1  -9  -5 17.6300 1.62000   1
  -1   9   5 18.2900 1.88000   1
  -4   9  -8 1.01000 0.72000   1
   4  -9   8 -0.1800 0.38000   1
  -4   9  -8 0.34000 0.31000   1
   6   8  -3 27.1900 2.32000   1
   6   8  -3 25.9700 2.50000   1
   7   7  -4 6.98000 1.54000   1
   7   7  -4 8.21000 1.27000   1
   0   4 -12 8.98000 1.02000   1
   0   4 -12 9.27000 1.40000   1
   0  -4  12 9.09000 1.30000   1
   4  10  -5 41.2700 3.25000   1
   5   9  -3 2.60000 1.10000   1
   5   9  -3 2.45000 0.89000   1
   3  -7  -8 4.67000 0.64000   1
  -3   7   8 3.07000 1.05000   1
  -3   7   8 2.58000 0.67000   1
   3  -7  -8 4.52000 1.02000   1
  -1  10  -9 -0.5400 0.73000   1
  -1  10  -9 1.48000 0.51000   1
   1 -10   9 0.39000 0.49000   1
 -10   0   5 4.19000 0.56000   1
 -10   0   5 2.38000 0.88000   1
  10   0  -5 2.50000 0.90000   1
  10   0  -5 2.98000 0.75000   1
  -8  -3  -1 77.5700 5.34000   1
   8   3   1 81.4400 5.15000   1
   8   3   1 70.6900 5.28000   1
   5   3   6 25.4900 1.62000   1
   5   3   6 25.3700 2.18000   1
  -5  -3  -6 23.1000 2.20000   1
  -5  -3  -6 23.4500 1.43000   1
   2  -5  11 25.6300 1.92000   1
  -2   5 -11 23.5800 1.52000   1
  -2   5 -11 27.2600 2.37000   1
  -4   6   9 1.86000 0.61000   1
   4  -6  -9 2.50000 0.96000   1
   4  -6  -9 2.50000 0.51000   1
  -4   6   9 2.80000 1.05000   1
   1  -2 -11 1.69000 0.69000   1
  -1   2  11 1.21000 0.57000   1
  -1   2  11 1.75000 0.76000   1
   1  -2 -11 0.31000 0.75000   1
   8   2   2 10.5100 1.09000   1
   8   2   2 8.21000 1.19000   1
  -8  -2  -2 12.2000 1.34000   1
   8   5  -8 3.92000 1.50000   1
  -8  -5   8 7.60000 1.38000   1
   8   5  -8 8.31000 1.48000   1
 -10   4   4 27.2700 1.48000   1
  10  -4  -4 34.1500 2.07000   1
 -10   4   4 31.2400 1.76000   1
  -6   9   5 27.1600 2.03000   1
   6  -9  -5 25.3700 2.29000   1
  -6   9   5 23.8000 1.46000   1
  -4   8   7 17.5200 1.66000   1
   4  -8  -7 15.7400 1.73000   1
  -4   8   7 11.5500 1.03000   1
   1   6 -12 14.6700 1.45000   1
   1   6 -12 17.0900 1.82000   1
  -1  -6  12 14.0800 1.67000   1
  -2   3 -11 3.37000 0.51000   1
  -2   3 -11 3.19000 1.06000   1
   2  -3  11 2.01000 0.96000   1
   2  -3  11 2.82000 0.39000   1
   5   8   0 9.56000 1.48000   1
  -5  -8   0 6.67000 1.30000   1
   5   8   0 10.0300 1.27000   1
   0   3 -12 5.10000 0.78000   1
   0  -3  12 6.28000 1.14000   1
   0   3 -12 5.04000 1.12000   1
 -10   4   2 -0.2800 0.26000   1
  10  -4  -2 -0.2000 0.34000   1
 -10   4   2 0.45000 0.31000   1
   7  -9  -4 6.13000 1.08000   1
  -7   9   4 6.12000 0.98000   1
  -7   9   4 4.83000 0.54000   1
  -7   9   4 3.87000 0.36000   1
  -8   7   6 8.84000 0.73000   1
   8  -7  -6 13.8100 1.47000   1
   7  -1 -11 16.8900 0.85000   1
   7  -1 -11 24.3900 2.20000   1
  -7   1  11 20.7600 1.65000   1
  -5   7   8 13.3200 1.58000   1
  -5   7   8 13.7300 1.04000   1
   5  -7  -8 15.5400 1.70000   1
  -5   9  -7 8.18000 1.18000   1
  -5   9  -7 6.17000 0.49000   1
   5  -9   7 8.34000 0.66000   1
   3  -3 -11 29.7300 1.86000   1
  -3   3  11 30.5000 2.37000   1
   3  -3 -11 31.9400 2.53000   1
   6  -7   7 7.05000 0.72000   1
  -6   7  -7 5.11000 0.38000   1
  -6   7  -7 6.98000 1.17000   1
  10  -1  -6 1.31000 0.79000   1
 -10   1   6 2.19000 0.69000   1
  -5  11   1 32.3600 1.86000   1
  -5  11   1 28.3000 2.11000   1
   5 -11  -1 28.4500 2.32000   1
   7 -10   0 6.65000 0.87000   1
  -7  10   0 6.00000 0.70000   1
  -7  10   0 8.67000 0.78000   1
  10  -1  -2 -0.1600 0.46000   1
  10  -1  -2 0.33000 0.39000   1
 -10   1   2 -0.0600 0.36000   1
  -1   9 -10 23.8000 1.70000   1
  -1   9 -10 25.1100 2.08000   1
  -1   9 -10 23.7100 2.32000   1
   1  -9  10 26.4000 1.78000   1
   3 -11  -2 7.81000 1.40000   1
  -3  11   2 7.43000 0.72000   1
  -3  11   2 9.46000 1.27000   1
  -6  10   3 0.25000 0.24000   1
   6 -10  -3 1.10000 0.84000   1
  -6  10   3 0.58000 0.40000   1
  -6  10   3 -0.0500 0.73000   1
   4  10  -4 31.1600 2.33000   1
   4  10  -4 28.9900 2.60000   1
   2  10  -9 4.39000 1.20000   1
   2  10  -9 7.09000 1.35000   1
  -2 -10   9 8.31000 1.23000   1
   9   0  -9 1.80000 0.93000   1
  -9   0   9 1.45000 0.83000   1
   9   0  -9 0.91000 0.23000   1
  -4 -10   6 -0.4900 0.90000   1
   4  10  -6 1.28000 0.85000   1
 -10   2   6 1.87000 0.57000   1
  10  -2  -6 0.06000 0.66000   1
   1  10   2 -0.5300 0.86000   1
   1  10   2 -0.6300 0.54000   1
  -3  10  -8 1.28000 0.52000   1
   3 -10   8 4.01000 0.53000   1
  -3  10  -8 0.32000 0.93000   1
   0   8 -11 1.29000 0.87000   1
   0   8 -11 2.73000 0.69000   1
   0   8 -11 2.94000 1.01000   1
   0  -8  11 1.55000 0.83000   1
  -7   5   9 6.23000 0.73000   1
   7  -5  -9 3.89000 1.29000   1
  -7  -7   7 9.22000 1.75000   1
   7   7  -7 15.2500 1.92000   1
   8   5  -2 13.0000 1.64000   1
  -8  -5   2 11.6600 1.22000   1
   8   5  -2 9.21000 1.51000   1
  -3   8   7 2.70000 1.01000   1
   3  -8  -7 1.81000 0.58000   1
  -3   8   7 2.20000 0.68000   1
   3  -8  -7 2.83000 0.93000   1
  -2  12  -3 0.64000 0.71000   1
   2 -12   3 0.49000 0.42000   1
   5  -3 -11 0.53000 1.14000   1
  -5   3  11 4.58000 0.88000   1
   5  -3 -11 4.23000 0.56000   1
  -7  10  -1 0.11000 0.33000   1
  -7  10  -1 -0.00000 0.3400   1
   7 -10   1 0.42000 0.45000   1
 -10   0   3 5.05000 0.60000   1
  10   0  -3 4.27000 0.80000   1
  10   0  -3 5.47000 0.91000   1
  10   0  -3 4.20000 0.62000   1
  -6   1  -7 -0.7400 0.72000   1
   6  -1   7 -0.2500 0.77000   1
   0   5 -12 1.51000 0.65000   1
   0  -5  12 1.97000 0.93000   1
   0   5 -12 3.63000 0.83000   1
  -3   6   9 5.52000 0.91000   1
  -3   6   9 5.72000 0.97000   1
   3  -6  -9 4.54000 0.70000   1
   3  -6  -9 5.47000 1.13000   1
   8   3 -10 0.61000 0.91000   1
   8   3 -10 1.23000 0.96000   1
   8   3 -10 0.39000 0.34000   1
  -8  -3  10 0.58000 0.88000   1
   3  -7  10 4.21000 0.73000   1
  -3   7 -10 7.33000 1.26000   1
  -3   7 -10 5.55000 0.70000   1
  -7  -2  -4 9.61000 1.30000   1
   7   2   4 8.14000 1.38000   1
   7   2   4 9.72000 0.95000   1
  -5  10  -6 11.3900 0.88000   1
   5 -10   6 10.9400 0.64000   1
  -5  10  -6 14.3600 1.43000   1
  -8   9   1 3.96000 0.51000   1
  -8   9   1 2.74000 0.43000   1
   8  -9  -1 1.63000 0.64000   1
  -3  -8  11 5.40000 1.08000   1
   3   8 -11 1.94000 0.87000   1
   3   8 -11 2.14000 0.88000   1
   3   8 -11 2.70000 1.01000   1
   3   9 -10 -0.4300 0.64000   1
   3   9 -10 -0.1800 0.82000   1
  -3  -9  10 0.72000 0.79000   1
  -5   6   9 10.7900 0.97000   1
  -5   6   9 9.19000 1.38000   1
   5  -6  -9 7.62000 1.48000   1
   5  -6  -9 9.93000 0.77000   1
   6   2 -12 21.7200 2.10000   1
  -6  -2  12 22.2700 2.02000   1
   6   2 -12 20.7600 1.41000   1
  -7   6  -6 -1.0400 0.58000   1
   7  -6   6 0.29000 0.45000   1
   0  -7  -7 1.71000 0.82000   1
   0  -7  -7 1.57000 0.69000   1
   0   7   7 -0.5800 0.71000   1
   0   7   7 0.73000 0.72000   1
   8  -9   0 13.0200 1.08000   1
  -8   9   0 12.9300 0.94000   1
  -8   9   0 12.3900 0.84000   1
  -9   1   9 0.87000 0.68000   1
   9  -1  -9 0.48000 0.77000   1
  -5  11  -4 13.9100 1.06000   1
  -5  11  -4 12.3300 1.19000   1
   8  -1   4 9.43000 0.60000   1
   8  -1   4 11.9900 1.28000   1
  -8   1  -4 10.1800 1.27000   1
   2 -10  -4 16.5500 1.82000   1
  -2  10   4 17.7900 1.86000   1
  -2  10   4 17.7300 1.24000   1
   9   3  -2 33.3100 2.78000   1
   9   3  -2 35.7600 2.60000   1
  -9  -3   2 37.4900 2.70000   1
   9   3  -2 40.3200 3.09000   1
   7  -8   5 0.52000 0.23000   1
  -7   8  -5 1.40000 0.68000   1
   4   9   0 0.82000 0.86000   1
   4   9   0 -0.4400 0.74000   1
  -7  10   1 1.23000 0.45000   1
  -7  10   1 1.84000 0.58000   1
   7 -10  -1 0.32000 0.63000   1
  -3   1 -10 9.47000 0.75000   1
   3  -1  10 10.3200 0.74000   1
   3  -1  10 13.3800 1.48000   1
  -3   1 -10 10.9000 1.52000   1
  -4  11   2 7.03000 1.11000   1
   4 -11  -2 7.62000 1.27000   1
  -4  11   2 5.94000 0.66000   1
  -1  12  -3 3.17000 0.84000   1
   1 -12   3 4.06000 0.72000   1
   8  -2 -10 1.92000 0.92000   1
  -8   2  10 -0.2100 0.70000   1
  -9  -1   9 5.47000 1.02000   1
   9   1  -9 6.86000 1.27000   1
   9   1  -9 4.32000 0.47000   1
  10  -3  -1 0.66000 0.27000   1
  10  -3  -1 0.56000 0.45000   1
 -10   3   1 0.69000 0.40000   1
  -1   0 -11 15.8600 1.78000   1
   1   0  11 15.3000 1.65000   1
   1   0  11 16.9500 1.10000   1
  -1   0 -11 14.5800 1.22000   1
   3  -9   9 8.19000 0.75000   1
  -3   9  -9 12.4000 1.31000   1
  -3   9  -9 7.09000 0.75000   1
   7   5   1 0.34000 0.72000   1
   7   5   1 0.63000 0.87000   1
  -7  -5  -1 1.39000 0.79000   1
  -5   8   7 21.4000 1.35000   1
   5  -8  -7 23.1000 2.15000   1
  -5   8   7 23.7500 2.07000   1
  -2  -1 -10 14.3100 1.09000   1
   2   1  10 15.9800 1.53000   1
  -2  -1 -10 13.2300 1.60000   1
   2   1  10 14.7200 1.01000   1
   2 -12   4 1.00000 0.42000   1
  -2  12  -4 0.47000 0.69000   1
  -2  12  -2 0.13000 0.58000   1
   2 -12   2 0.18000 0.40000   1
  -1  12  -4 1.09000 0.71000   1
   1 -12   4 1.45000 0.57000   1
   6   7   0 41.7200 2.87000   1
  -6  -7   0 37.2700 2.94000   1
   6   7   0 42.4000 3.21000   1
  10   0  -6 14.7800 1.49000   1
 -10   0   6 13.7100 1.50000   1
  -8   4   9 1.07000 0.53000   1
   8  -4  -9 0.34000 0.97000   1
   2 -11  -2 13.0700 1.56000   1
  -2  11   2 12.0300 1.46000   1
  -2  11   2 9.29000 0.79000   1
   7  -2   6 1.80000 0.78000   1
  -7   2  -6 0.96000 0.85000   1
   6   1 -12 1.21000 0.92000   1
  -6  -1  12 2.23000 0.85000   1
   6   1 -12 0.48000 0.42000   1
   4  -1 -12 8.18000 1.25000   1
   4  -1 -12 5.08000 0.62000   1
  -9   7   4 18.8400 1.04000   1
   9  -7  -4 21.9700 1.60000   1
  -7   9  -4 27.4100 1.58000   1
  -7   9  -4 32.8100 2.09000   1
   0   6   8 7.46000 1.03000   1
   0   6   8 2.23000 1.03000   1
   0  -6  -8 4.09000 0.95000   1
   0  -6  -8 3.96000 1.02000   1
   2  10   1 1.64000 0.94000   1
   2  10   1 0.75000 0.76000   1
   0  10   3 3.95000 0.98000   1
   0  10   3 1.77000 0.60000   1
   0 -10  -3 2.77000 0.99000   1
   1  -4 -10 3.04000 0.88000   1
  -1   4  10 2.72000 0.87000   1
  -1   4  10 1.93000 0.75000   1
   1  -4 -10 2.79000 0.79000   1
   8   4   0 18.8300 1.64000   1
  -8  -4   0 16.4200 1.72000   1
   8   4   0 17.2800 1.81000   1
   5 -10  -4 17.4200 1.87000   1
  -5  10   4 16.6800 1.75000   1
  -5  10   4 14.8000 1.03000   1
   0   2 -12 4.33000 0.92000   1
   0  -2  12 5.88000 1.11000   1
   0   2 -12 6.03000 0.81000   1
  10  -2  -1 4.35000 0.45000   1
  10  -2  -1 3.83000 0.82000   1
 -10   2   1 6.45000 0.68000   1
   4   8   2 41.2700 3.05000   1
   4   8   2 35.5600 2.96000   1
  -4  -8  -2 43.0500 3.27000   1
   1   4   9 15.1800 1.30000   1
   1   4   9 14.3000 1.56000   1
  -1  -4  -9 16.8000 1.66000   1
  -1  -4  -9 18.7100 1.45000   1
  -7   8   6 7.83000 0.62000   1
  -7   8   6 6.22000 0.48000   1
   7  -8  -6 7.02000 1.30000   1
  -7   8   6 9.81000 1.17000   1
   6   8  -8 19.6600 1.90000   1
  -6  -8   8 19.6600 2.23000   1
   2  11  -2 0.13000 0.54000   1
   2  11  -2 0.94000 0.84000   1
  -8  -1  -3 5.31000 0.99000   1
   8   1   3 3.69000 0.68000   1
   8   1   3 5.39000 0.93000   1
   5   5 -12 11.3900 1.07000   1
   5   5 -12 9.19000 1.51000   1
   5   5 -12 9.03000 1.47000   1
  -5  -5  12 11.8300 1.63000   1
   5   7   2 19.7400 1.83000   1
  -5  -7  -2 17.9100 1.90000   1
   5   7   2 18.2100 1.67000   1
   3  -1 -12 6.55000 0.82000   1
   3  -1 -12 11.7700 1.38000   1
  -3   1  12 7.82000 1.02000   1
  10  -4  -5 17.5500 1.41000   1
 -10   4   5 15.6000 1.08000   1
  -6  -4  -4 15.7600 1.63000   1
   6   4   4 14.5000 1.78000   1
   6   4   4 16.7400 1.31000   1
  -6  -3  12 7.98000 1.25000   1
   6   3 -12 4.40000 1.09000   1
   6   3 -12 3.65000 0.57000   1
   2  -6  11 0.04000 0.55000   1
  -2   6 -11 2.67000 0.83000   1
  -2   6 -11 -0.3600 0.37000   1
  -4  -6  12 13.9400 1.73000   1
   4   6 -12 13.6800 1.79000   1
   4   6 -12 12.9500 1.39000   1
   4   6 -12 13.7000 1.35000   1
  -3  12  -3 7.82000 0.99000   1
  -3  12  -3 5.86000 1.04000   1
  -2  -3  -9 7.70000 0.82000   1
  -2  -3  -9 8.07000 1.25000   1
   2   3   9 8.51000 1.25000   1
   2   3   9 6.12000 0.78000   1
   7   7  -3 52.8800 4.02000   1
   7   7  -3 46.6200 3.53000   1
   9  -5  -7 14.1700 1.52000   1
  -9   5   7 15.9000 1.07000   1
   3 -12   2 8.47000 0.62000   1
  -3  12  -2 9.22000 1.23000   1
   0 -11   8 14.4500 1.26000   1
   0  11  -8 15.3700 1.75000   1
   0  11  -8 17.2900 1.41000   1
 -10   4   1 1.77000 0.43000   1
 -10   4   1 2.10000 0.42000   1
  10  -4  -1 1.35000 0.31000   1
 -10   3   6 0.46000 0.49000   1
  10  -3  -6 0.70000 0.63000   1
   2  -2  11 10.9900 0.79000   1
  -2   2 -11 11.8400 1.56000   1
  -2   2 -11 12.1600 0.96000   1
   2  -2  11 11.4500 1.29000   1
  -9  -3   8 18.8500 1.94000   1
   9   3  -8 13.6100 1.94000   1
   9   3  -8 18.2400 1.93000   1
  -8   9   2 12.2700 1.05000   1
   8  -9  -2 11.8800 1.13000   1
  -8   9   2 12.6900 0.94000   1
   9  -1   2 21.5700 1.78000   1
   9  -1   2 21.5300 1.37000   1
  -9   1  -2 16.0000 1.61000   1
   6   5   3 0.73000 0.87000   1
  -6  -5  -3 1.16000 0.79000   1
   6   5   3 0.64000 0.59000   1
  -8   8  -3 3.30000 0.65000   1
  -8   8  -3 4.21000 0.48000   1
   9   4  -5 12.0800 1.51000   1
   9   4  -5 15.6300 1.81000   1
   4  10  -3 7.39000 1.55000   1
   4  10  -3 12.1400 1.36000   1
   0  -8  -6 56.9700 3.84000   1
   0   8   6 50.4500 3.79000   1
   0   8   6 51.7000 3.55000   1
   0  -8  -6 56.2900 3.80000   1
  -7  -4  11 9.07000 1.41000   1
   7   4 -11 7.13000 0.97000   1
   7   4 -11 7.09000 1.49000   1
   7   4 -11 8.58000 1.34000   1
  -9   6  -2 0.40000 0.30000   1
  -9   6  -2 0.55000 0.51000   1
   9  -6   2 0.59000 0.30000   1
  -9   7  -1 18.7000 1.21000   1
  -9   7  -1 18.1800 0.96000   1
  -9   7  -1 22.0400 1.29000   1
   9  -7   1 20.2900 1.07000   1
   2  11  -7 7.00000 1.22000   1
  -2 -11   7 5.50000 1.15000   1
  -7  10  -2 29.8300 1.85000   1
  -7  10  -2 30.4400 1.72000   1
  -8   9  -1 26.9900 1.60000   1
   8  -9   1 33.3800 1.86000   1
  -8   9  -1 29.9100 1.76000   1
   2   9   3 22.8600 1.98000   1
  -2  -9  -3 19.1500 1.55000   1
   2   9   3 24.3600 1.92000   1
  -2  -9  -3 22.8000 2.20000   1
  -1  12  -2 14.5200 1.64000   1
  -1  12  -2 15.1000 1.03000   1
 -10   5   3 9.85000 0.83000   1
 -10   5   3 8.68000 0.72000   1
  10  -5  -3 10.5100 0.85000   1
   4  10  -7 14.5800 1.67000   1
  -4 -10   7 9.67000 1.63000   1
  -2   7   8 1.20000 0.88000   1
  -2   7   8 0.69000 0.70000   1
   2  -7  -8 0.89000 0.59000   1
   2  -7  -8 1.93000 0.90000   1
  -5  -9   8 51.2400 4.05000   1
   5   9  -8 49.9800 3.98000   1
  -4   5  10 12.0600 1.45000   1
  -4   5  10 8.99000 1.15000   1
   4  -5 -10 10.0100 0.90000   1
   4  -5 -10 9.90000 1.37000   1
   0  11   1 4.20000 1.01000   1
   0  11   1 2.05000 0.73000   1
  -9  -4   6 6.46000 1.20000   1
   9   4  -6 3.59000 1.13000   1
   9   4  -6 3.29000 1.28000   1
  -1  12  -5 1.16000 0.65000   1
   1 -12   5 0.82000 0.55000   1
  10   1  -5 1.77000 0.76000   1
 -10  -1   5 0.67000 0.82000   1
  10   1  -5 1.68000 0.82000   1
   9  -6  -6 5.53000 1.07000   1
  -9   6   6 5.75000 0.62000   1
 -10   5   2 3.87000 0.59000   1
  10  -5  -2 4.53000 0.56000   1
 -10   5   2 2.61000 0.39000   1
   4  -9  -6 12.0400 1.60000   1
  -4   9   6 10.5600 1.45000   1
  -4   9   6 11.1100 0.91000   1
   6  -9   6 6.92000 0.47000   1
  -6   9  -6 6.16000 0.50000   1
  -6   9  -6 12.5500 1.18000   1
  -1  11  -8 12.9600 1.37000   1
   1 -11   8 10.7800 0.98000   1
  -1  11  -8 10.4300 1.17000   1
  -1  -9  -4 55.2200 3.82000   1
   1   9   4 48.3600 3.64000   1
  -1  -9  -4 53.6700 3.68000   1
   1   9   4 51.8900 3.46000   1
  -5   1  12 19.4000 1.80000   1
   5  -1 -12 18.6800 1.93000   1
   5  -1 -12 18.7400 1.12000   1
  -2   3  11 0.44000 0.60000   1
   2  -3 -11 0.08000 0.61000   1
   2  -3 -11 0.06000 0.47000   1
  -2   3  11 0.45000 0.69000   1
  -8   7  -4 7.21000 0.84000   1
   8  -7   4 3.93000 0.42000   1
  10   1  -4 12.7500 1.37000   1
  10   1  -4 14.4200 1.42000   1
 -10  -1   4 8.44000 1.39000   1
 -10  -1   4 12.1700 0.96000   1
   9  -2  -9 5.41000 1.10000   1
  -9   2   9 4.91000 0.86000   1
  -5   8  -8 24.6600 1.52000   1
   5  -8   8 28.5200 1.59000   1
  -5   8  -8 26.3700 2.25000   1
   1  11   0 1.34000 0.85000   1
   1  11   0 -0.2100 0.60000   1
 -10   0   2 5.56000 0.71000   1
  10   0  -2 4.26000 0.84000   1
  10   0  -2 4.81000 0.68000   1
  10   0  -2 4.90000 0.88000   1
   5   9  -2 4.68000 1.19000   1
   5   9  -2 2.89000 0.99000   1
   5   7 -11 33.0100 2.96000   1
   5   7 -11 34.8300 2.85000   1
  -5  -7  11 30.0000 2.81000   1
   5   7 -11 29.7700 2.39000   1
  -6  11  -1 1.24000 0.53000   1
  -6  11  -1 0.80000 0.43000   1
   6   0 -12 2.54000 0.86000   1
   6   0 -12 0.16000 0.33000   1
  -6   0  12 -0.2700 0.78000   1
   4 -11   6 0.65000 0.21000   1
  -4  11  -6 -0.2300 0.78000   1
  -4  11  -6 0.68000 0.35000   1
  -9  -4   4 6.73000 0.97000   1
   9   4  -4 8.01000 1.33000   1
   9   4  -4 6.59000 1.22000   1
   9   4  -4 3.46000 1.09000   1
   6   7 -10 18.1400 2.17000   1
  -6  -7  10 20.3100 2.17000   1
   6   7 -10 17.7500 1.81000   1
  -2   8   7 18.2500 1.40000   1
   2  -8  -7 19.4500 1.49000   1
   2  -8  -7 19.3900 1.87000   1
  -2   8   7 19.5100 1.93000   1
   6   8  -2 13.1800 1.84000   1
   6   8  -2 13.1200 1.51000   1
  -4   8  -9 11.4600 0.93000   1
  -4   8  -9 11.6900 1.39000   1
   4  -8   9 11.8500 1.13000   1
  -3  12  -4 37.6100 2.77000   1
  -3  12  -4 33.5900 2.28000   1
   3 -12   4 30.3800 1.64000   1
   8   6  -5 3.11000 0.94000   1
   8   6  -5 3.62000 1.20000   1
   0  12  -4 15.5500 1.54000   1
   0 -12   4 16.7000 1.32000   1
  -2  12  -5 11.2500 1.51000   1
  -2  12  -5 12.1700 1.14000   1
   2 -12   5 8.57000 0.80000   1
   0   6 -12 9.31000 1.28000   1
   0  -6  12 5.47000 1.10000   1
   0   6 -12 5.73000 1.02000   1
   1   0 -12 7.43000 1.09000   1
  -1   0  12 6.26000 1.17000   1
   1   0 -12 4.92000 0.97000   1
  -2  12  -1 9.72000 1.25000   1
  -2  12  -1 7.06000 0.69000   1
  -3   9   6 1.15000 0.81000   1
  -3   9   6 0.31000 0.41000   1
   3  -9  -6 -1.2400 0.78000   1
  -9   4   8 24.9100 1.69000   1
   9  -4  -8 24.9300 2.47000   1
  -1 -11   8 1.30000 0.67000   1
   1  11  -8 0.89000 1.04000   1
   1  11  -8 1.86000 0.90000   1
   6  -7  -8 7.18000 1.36000   1
  -6   7   8 11.9700 1.26000   1
  -6   7   8 6.64000 0.67000   1
  -3  11  -7 26.4000 1.68000   1
   3 -11   7 23.7900 1.47000   1
  -3  11  -7 31.2200 2.26000   1
   4   2   8 28.8300 1.79000   1
   4   2   8 27.9500 2.53000   1
  -4  -2  -8 26.8200 2.44000   1
  -4  -2  -8 28.9400 1.86000   1
  -5  -8  10 54.3000 4.04000   1
   5   8 -10 55.9200 4.37000   1
   5   8 -10 52.6400 3.92000   1
   5   8 -10 50.3400 3.87000   1
  -8  -6   6 3.84000 1.11000   1
   8   6  -6 4.46000 1.30000   1
   9   2  -9 7.88000 1.47000   1
   9   2  -9 8.45000 1.57000   1
  -9  -2   9 10.3900 1.41000   1
   2   7 -12 5.68000 1.01000   1
   2   7 -12 4.45000 0.79000   1
   2   7 -12 5.52000 1.15000   1
  -2  -7  12 4.18000 1.01000   1
  -6  -3  -5 28.0600 2.31000   1
   6   3   5 25.9000 1.64000   1
   6   3   5 23.5100 2.14000   1
   7 -10  -2 2.74000 0.95000   1
  -7  10   2 2.30000 0.76000   1
  -7  10   2 3.59000 0.42000   1
  -8   8   5 4.63000 0.50000   1
   8  -8  -5 4.86000 0.94000   1
  -8   8   5 10.2200 1.05000   1
  -7  -7   8 10.6700 1.72000   1
   7   7  -8 10.6500 1.77000   1
  10  -5  -4 43.1000 2.81000   1
 -10   5   4 37.1200 1.96000   1
 -10   5   4 41.0300 2.22000   1
  -3  12  -1 0.48000 0.77000   1
 -10   1   7 9.87000 1.17000   1
  10  -1  -7 7.82000 1.13000   1
  -2  10  -9 12.5100 1.42000   1
  -2  10  -9 11.5600 0.91000   1
   2 -10   9 9.94000 0.90000   1
   5  -5 -10 11.9800 1.61000   1
   5  -5 -10 13.3500 0.90000   1
  -5   5  10 13.1100 1.19000   1
  10  -1  -1 8.54000 0.66000   1
 -10   1   1 8.33000 0.84000   1
  10  -1  -1 7.88000 1.07000   1
   3  -5 -10 4.29000 0.65000   1
   3  -5 -10 3.81000 0.91000   1
  -3   5  10 2.95000 1.05000   1
  -3   5  10 3.47000 0.81000   1
   5   0   8 13.1500 0.82000   1
  -5   0  -8 12.8900 1.64000   1
  -5   0  -8 12.2300 0.88000   1
   5   0   8 13.3100 1.43000   1
  -2   6   9 11.9800 1.45000   1
  -2   6   9 12.8700 1.36000   1
   2  -6  -9 11.7600 1.16000   1
   2  -6  -9 13.8000 1.54000   1
  -6  11   0 0.02000 0.48000   1
   6 -11   0 -0.0400 0.64000   1
  -6  11   0 -0.5100 0.35000   1
   0  12  -3 24.8400 2.25000   1
   0  12  -3 26.3500 1.61000   1
  -6  -6  11 12.4600 1.85000   1
   6   6 -11 13.8600 1.93000   1
   6   6 -11 13.8300 1.68000   1
   6   6 -11 14.4700 1.32000   1
   7  -4 -10 9.83000 1.63000   1
  -7   4  10 11.1700 1.08000   1
   6  -3 -11 17.0200 1.88000   1
  -6   3  11 12.5800 1.28000   1
   6  -3 -11 11.6400 0.75000   1
   4   0   9 19.1900 1.17000   1
  -4   0  -9 18.6500 1.24000   1
  -4   0  -9 18.9800 2.00000   1
   4   0   9 22.8400 2.07000   1
  10   1  -6 1.98000 0.68000   1
 -10  -1   6 1.00000 0.81000   1
  10   1  -6 -0.3700 0.96000   1
  -7   2  11 0.93000 0.74000   1
   7  -2 -11 0.14000 0.85000   1
  -6  11  -2 1.19000 0.44000   1
  -6  11  -2 0.17000 0.38000   1
   0   5   9 6.86000 0.98000   1
   0  -5  -9 1.78000 0.96000   1
   0   5   9 3.09000 0.95000   1
   0  -5  -9 3.79000 0.83000   1
   9   2   0 21.2000 1.88000   1
   9   2   0 17.2600 1.29000   1
  -9  -2   0 18.4300 1.56000   1
   9   2   0 18.8300 1.52000   1
   6  -6  -9 14.3800 1.52000   1
  -6   6   9 14.0700 1.21000   1
   5   2   7 8.52000 1.38000   1
  -5  -2  -7 7.50000 0.78000   1
  -5  -2  -7 8.56000 1.33000   1
   5   2   7 9.48000 0.83000   1
  -5  11   2 14.3000 0.85000   1
   5 -11  -2 16.6400 1.86000   1
  -5  11   2 18.4900 1.60000   1
   0 -12   5 39.9700 2.56000   1
   0  12  -5 43.3700 3.15000   1
   3   9   2 4.00000 1.21000   1
   3   9   2 4.48000 1.02000   1
  -3  -9  -2 5.31000 1.25000   1
   9   1   1 16.4100 1.04000   1
   9   1   1 19.4200 1.55000   1
  -9  -1  -1 18.3600 1.53000   1
   9   1   1 18.0800 1.55000   1
 -10   2   7 0.26000 0.50000   1
  10  -2  -7 0.02000 0.78000   1
 -10   0   7 16.9300 1.49000   1
  10   0  -7 15.2800 1.52000   1
  -6  -4  12 2.76000 0.94000   1
   6   4 -12 -0.0600 0.87000   1
   6   4 -12 1.11000 0.91000   1
   6   4 -12 0.51000 0.50000   1
  -5   9   6 8.78000 0.70000   1
  -5   9   6 7.61000 1.24000   1
   5  -9  -6 8.53000 1.49000   1
  -2   1  12 5.70000 1.13000   1
   2  -1 -12 9.06000 1.23000   1
   2  -1 -12 7.26000 0.91000   1
  -1  -7  12 1.74000 0.78000   1
   1   7 -12 2.06000 0.93000   1
   1   7 -12 1.10000 0.59000   1
   1   7 -12 2.11000 0.95000   1
  -7   7  -6 10.7100 1.11000   1
   7  -7   6 6.89000 0.68000   1
  -6  10  -5 9.86000 1.21000   1
  -6  10  -5 10.1800 0.83000   1
  -1   8 -11 10.5200 0.89000   1
   1  -8  11 9.55000 1.24000   1
  -1   8 -11 11.8100 1.15000   1
  -1   8 -11 10.6100 1.47000   1
  -1  11   2 32.1600 2.78000   1
   1 -11  -2 37.2500 2.98000   1
  -1  11   2 36.8700 2.27000   1
 -10   5   1 8.82000 0.67000   1
 -10   5   1 8.75000 0.78000   1
  10  -5  -1 8.64000 0.65000   1
   6   6   2 0.77000 0.84000   1
  -6  -6  -2 -0.1400 0.77000   1
   6   6   2 0.74000 0.61000   1
  -9  -4   7 2.06000 0.99000   1
   9   4  -7 0.85000 0.96000   1
   9   4  -7 1.96000 0.89000   1
   7   1   5 10.3200 1.17000   1
   7   1   5 7.39000 0.76000   1
  -7  -1  -5 8.20000 1.19000   1
   8   6  -4 3.85000 1.26000   1
   8   6  -4 4.77000 1.23000   1
   8   5  -9 1.96000 1.02000   1
  -8  -5   9 0.01000 0.94000   1
   8   5  -9 0.14000 1.10000   1
 -10  -1   3 6.90000 0.78000   1
  10   1  -3 5.78000 1.10000   1
  10   1  -3 6.43000 0.93000   1
  10   1  -3 6.61000 1.02000   1
   3   7 -12 22.3800 2.24000   1
   3   7 -12 23.4400 1.81000   1
   3   7 -12 20.8300 2.05000   1
  -3  -7  12 18.3000 1.89000   1
   3  10  -9 8.02000 1.36000   1
  -3 -10   9 8.12000 1.16000   1
  -6   8   7 0.35000 0.32000   1
   6  -8  -7 0.62000 0.89000   1
  -6   8   7 0.99000 0.72000   1
   8  -4   5 0.75000 0.50000   1
  -8   4  -5 1.40000 0.76000   1
  -8   9   3 0.61000 0.51000   1
  -8   9   3 0.41000 0.34000   1
   8  -9  -3 0.28000 0.59000   1
  -5   4  -9 4.04000 1.00000   1
   5  -4   9 5.22000 0.89000   1
  -5   4  -9 3.12000 0.37000   1
   0   1 -12 0.92000 0.63000   1
   0   1 -12 0.08000 0.56000   1
   0  -1  12 -0.3500 0.76000   1
   3  10   0 3.41000 0.79000   1
   3  10   0 3.60000 1.22000   1
  -1  10   4 17.9100 1.30000   1
  -1  10   4 16.8200 1.89000   1
   1 -10  -4 17.5400 1.89000   1
   8   6  -7 2.30000 1.15000   1
  -8  -6   7 1.65000 1.09000   1
   8   6  -7 2.35000 1.14000   1
   3   2   9 17.1000 1.17000   1
   3   2   9 18.2000 1.84000   1
  -3  -2  -9 17.1800 1.22000   1
  -3  -2  -9 20.9600 2.02000   1
  -4  12  -2 12.3500 1.38000   1
  -4  12  -2 20.1800 1.48000   1
   9  -8  -1 5.37000 0.82000   1
  -9   8   1 6.00000 0.55000   1
  -9   8   1 5.43000 0.52000   1
   8   4 -10 16.5300 2.08000   1
   8   4 -10 16.7600 1.84000   1
  -8  -4  10 16.4900 1.94000   1
  -3  -6  -6 2.63000 0.77000   1
   3   6   6 1.96000 0.85000   1
  -3  -6  -6 3.13000 1.01000   1
   3   6   6 1.27000 0.70000   1
  -7   1  -6 1.05000 0.74000   1
   7  -1   6 0.89000 0.67000   1
  -5   5  -9 53.7400 3.66000   1
   5  -5   9 54.4800 3.44000   1
  -5   5  -9 42.8500 2.28000   1
   9  -4   3 0.36000 0.44000   1
  -9   4  -3 0.29000 0.52000   1
   6  -8   7 0.54000 0.38000   1
  -6   8  -7 0.25000 0.26000   1
  -6   8  -7 2.08000 0.75000   1
  -4  -8  11 11.8900 1.72000   1
   4   8 -11 8.33000 1.63000   1
   4   8 -11 11.5600 1.48000   1
   4   8 -11 14.8100 1.47000   1
  -1  12  -1 34.3700 2.12000   1
  -1  12  -1 32.9000 2.63000   1
  10  -3   0 30.2700 1.82000   1
 -10   3   0 29.8100 1.84000   1
  -2   9 -10 0.44000 0.56000   1
   2  -9  10 0.21000 0.50000   1
  -2   9 -10 0.88000 0.87000   1
  -2   9 -10 0.81000 0.43000   1
  -3 -11   5 0.59000 0.81000   1
   3  11  -5 1.83000 0.90000   1
  -9   8   2 0.77000 0.43000   1
  -9   8   2 1.98000 0.42000   1
   9  -8  -2 2.75000 0.56000   1
  -7  -6   0 8.51000 1.35000   1
   7   6   0 9.55000 1.27000   1
   7   6   0 11.6600 1.50000   1
 -10   4   6 0.83000 0.46000   1
  10  -4  -6 0.19000 0.67000   1
  -8   9  -2 0.17000 0.34000   1
  -8   9  -2 0.00000 0.36000   1
  -5  11  -5 3.02000 0.45000   1
  -5  11  -5 3.60000 0.87000   1
   8  -5   5 1.15000 0.58000   1
  -8   5  -5 2.73000 0.83000   1
   9  -7  -5 3.77000 0.91000   1
  -9   7   5 2.60000 0.44000   1
   8   5  -1 6.44000 1.30000   1
   8   5  -1 7.06000 1.15000   1
  -8  -5   1 8.58000 1.24000   1
  -2   7 -11 0.05000 0.49000   1
   2  -7  11 -0.1500 0.51000   1
  -2   7 -11 0.13000 0.75000   1
  -9   3  -3 7.52000 0.99000   1
   9  -3   3 6.54000 0.92000   1
  -4  12  -3 9.71000 1.24000   1
  -4  12  -3 12.0100 1.05000   1
  -9  -4   3 12.1000 1.34000   1
   9   4  -3 13.6500 1.53000   1
   9   4  -3 11.8400 1.61000   1
   8  -3   5 12.1800 1.15000   1
  -8   3  -5 15.7700 1.38000   1
  -8   3  10 -0.1000 0.53000   1
   8  -3 -10 1.27000 0.82000   1
  -1  12  -6 4.32000 1.07000   1
   1 -12   6 2.47000 0.66000   1
  -1  12  -6 0.29000 0.66000   1
  -7  10  -3 18.7100 1.24000   1
  -7  10  -3 21.0800 1.39000   1
   0   9   5 34.8400 2.86000   1
   0  -9  -5 33.0600 2.70000   1
   0   9   5 33.7300 2.45000   1
   0  -9  -5 34.9200 2.74000   1
  10  -4   0 0.23000 0.36000   1
 -10   4   0 0.55000 0.40000   1
   3  11  -4 1.58000 0.75000   1
   3  11  -4 1.26000 0.90000   1
   4  10  -2 3.98000 1.26000   1
   4  10  -2 5.22000 0.93000   1
  -7  -6  10 6.33000 1.39000   1
   7   6 -10 5.14000 1.46000   1
   7   6 -10 5.59000 1.36000   1
  -9  -3   1 0.75000 0.72000   1
   9   3  -1 0.60000 0.86000   1
   9   3  -1 0.22000 0.61000   1
   0  12  -2 27.6800 2.29000   1
   0  12  -2 26.0300 1.71000   1
   8   0   4 5.26000 0.57000   1
  -8   0  -4 6.18000 1.14000   1
   8   0   4 7.61000 1.10000   1
   3  -8  10 0.93000 0.54000   1
  -3   8 -10 2.26000 0.50000   1
  -3   8 -10 2.31000 0.91000   1
  -2  11  -8 19.6700 1.91000   1
   2 -11   8 17.7100 1.18000   1
  -2  11  -8 17.4700 1.30000   1
   2  -1  11 19.1200 1.16000   1
   2  -1  11 17.6900 1.80000   1
  -2   1 -11 18.2800 2.03000   1
  -2   1 -11 16.9800 1.20000   1
  -4   4 -10 3.05000 0.51000   1
  -4   4 -10 1.80000 1.10000   1
   4  -4  10 3.31000 0.82000   1
  -6  11   1 3.27000 0.83000   1
  -6  11   1 4.19000 0.53000   1
   6 -11  -1 5.22000 0.93000   1
   2  11  -1 17.4200 1.55000   1
   2  11  -1 13.0700 1.83000   1
   3   3 -13 0.35000 0.87000   1
   3   3 -13 1.11000 0.62000   1
  -3  -3  13 1.22000 0.87000   1
   6   0   7 0.72000 0.26000   1
  -6   0  -7 0.56000 0.78000   1
   6   0   7 1.16000 0.84000   1
   4   6   5 5.95000 1.07000   1
   4   6   5 6.49000 0.91000   1
  -4  -6  -5 4.09000 1.25000   1
  -4  -6  -5 5.67000 0.94000   1
  -4  12  -1 15.5300 1.46000   1
  -4  12  -1 16.1700 1.29000   1
   8   1 -11 19.6200 1.09000   1
   8   1 -11 23.7000 2.36000   1
  -8  -1  11 23.2400 1.95000   1
   3   7   5 13.6200 1.47000   1
   3   7   5 10.6300 1.26000   1
  -3  -7  -5 14.5300 1.44000   1
  -3  -7  -5 11.9200 1.65000   1
  -2   9   6 4.94000 1.11000   1
  -2   9   6 5.38000 0.72000   1
   2  -9  -6 1.78000 1.05000   1
   7   7  -2 4.45000 1.11000   1
  -7  -7   2 4.69000 1.14000   1
   7   7  -2 6.33000 1.27000   1
   6 -10  -4 13.6300 1.68000   1
  -6  10   4 15.5200 1.57000   1
  -6  10   4 11.4200 0.81000   1
  -3  12  -5 18.0400 1.77000   1
  -3  12  -5 16.6500 1.31000   1
   3 -12   5 13.8700 0.85000   1
   1  -4  12 7.74000 1.17000   1
  -1   4 -12 9.72000 0.94000   1
  -1   4 -12 10.0400 1.49000   1
  10  -5  -5 7.51000 0.93000   1
 -10   5   5 6.99000 0.75000   1
  -4   5 -10 5.71000 0.65000   1
  -4   5 -10 7.07000 1.31000   1
   4  -5  10 7.08000 0.95000   1
  -4 -10   8 -0.0700 0.75000   1
   4  10  -8 0.57000 0.94000   1
  -3 -11   6 4.38000 0.98000   1
   3  11  -6 3.30000 1.09000   1
   7  -9  -5 5.40000 1.06000   1
  -7   9   5 7.71000 1.09000   1
  -7   9   5 6.28000 0.62000   1
  -7   9   5 6.76000 0.59000   1
  -3  -5  -7 3.72000 0.83000   1
   3   5   7 5.92000 1.10000   1
  -3  -5  -7 5.06000 1.04000   1
   3   5   7 5.41000 0.77000   1
  -9   5  -3 2.04000 0.79000   1
   9  -5   3 2.95000 0.45000   1
  -5   3  -9 2.25000 0.37000   1
  -5   3  -9 4.47000 1.05000   1
   5  -3   9 3.09000 0.75000   1
  -4  -5  -6 -0.1300 0.76000   1
  -4  -5  -6 0.45000 0.53000   1
   4   5   6 1.68000 0.57000   1
   4   5   6 0.74000 0.79000   1
 -10   2   0 41.9400 2.66000   1
  10  -2   0 45.9600 2.99000   1
   1  10 -10 6.16000 0.95000   1
   1  10 -10 6.83000 1.36000   1
  -1 -10  10 6.58000 0.98000   1
  -6  11  -3 -0.2600 0.45000   1
  -6  11  -3 0.83000 0.36000   1
  -6   4  -8 6.88000 1.23000   1
   6  -4   8 7.34000 0.90000   1
  -9   8   0 2.83000 0.43000   1
  -9   8   0 4.36000 0.52000   1
   9  -8   0 2.51000 0.44000   1
  -4  -9  10 -0.1800 0.93000   1
   4   9 -10 0.49000 0.95000   1
   4   9 -10 1.75000 0.95000   1
   3   0  10 12.5600 0.89000   1
   3   0  10 12.4200 1.54000   1
  -3   0 -10 11.6000 0.89000   1
  -3   0 -10 12.5300 1.67000   1
   0   2  11 8.64000 0.97000   1
   0  -2 -11 10.2600 1.20000   1
   0  -2 -11 9.69000 1.17000   1
   0   2  11 12.8200 1.34000   1
   6  -5   8 45.4000 2.89000   1
  -6   5  -8 48.2400 3.56000   1
   1   9 -11 16.1700 1.93000   1
  -1  -9  11 17.3500 1.55000   1
   1   9 -11 17.2900 1.76000   1
   1   9 -11 16.5900 1.40000   1
  -6  -8   9 1.76000 1.08000   1
   6   8  -9 1.71000 1.12000   1
  -8   0  11 1.32000 0.77000   1
   8   0 -11 -1.8500 0.87000   1
  -3  12   0 -0.1200 0.36000   1
  -3  12   0 0.43000 0.67000   1
  -2  -6  -7 2.49000 0.77000   1
  -2  -6  -7 0.60000 0.91000   1
   2   6   7 0.25000 0.65000   1
   2   6   7 1.20000 0.75000   1
  10  -3  -7 9.18000 1.20000   1
 -10   3   7 9.20000 0.96000   1
   3   4 -13 33.8000 2.80000   1
   3   4 -13 30.5700 2.46000   1
  -3  -4  13 35.6600 2.85000   1
   0 -12   6 0.97000 0.58000   1
   0  12  -6 2.95000 0.85000   1
   9   0   2 11.7000 0.96000   1
  -9   0  -2 8.48000 1.22000   1
   9   0   2 11.2900 1.35000   1
  10   1  -7 46.1600 3.58000   1
  10   1  -7 45.7800 3.49000   1
 -10  -1   7 53.4800 3.81000   1
   0  10 -10 0.33000 0.94000   1
   0  10 -10 0.99000 0.59000   1
   0 -10  10 2.12000 0.74000   1
  -2  -7  -6 15.4100 1.71000   1
  -2  -7  -6 13.4000 1.45000   1
   2   7   6 11.3700 1.41000   1
   2   7   6 17.1600 1.53000   1
   6  -1 -12 24.3900 1.41000   1
  -6   1  12 27.4400 2.28000   1
   6  -1 -12 33.5000 2.63000   1
   9  -3  -9 12.1100 1.67000   1
  -9   3   9 11.3000 1.21000   1
  -4  -3  13 -0.0900 0.85000   1
   4   3 -13 1.90000 0.88000   1
   4   3 -13 0.26000 0.52000   1
   6  -5 -10 24.7100 2.38000   1
  -6   5  10 23.0000 1.76000   1
   3   2 -13 1.41000 0.70000   1
   3   2 -13 0.21000 0.76000   1
  -3  -2  13 0.65000 0.83000   1
   2  11  -8 23.9800 2.02000   1
  -2 -11   8 21.1200 1.96000   1
  -5   6  -9 49.6600 3.70000   1
   5  -6   9 54.3400 3.40000   1
  -5   6  -9 44.7500 2.43000   1
   5   6 -12 5.51000 1.05000   1
   5   6 -12 1.03000 0.74000   1
   5   6 -12 0.87000 1.12000   1
  -5  -6  12 2.46000 1.13000   1
  -1   5 -12 3.00000 1.09000   1
  -1   5 -12 4.81000 0.66000   1
   1  -5  12 2.32000 0.98000   1
  -9   7  -2 -0.2400 0.38000   1
  -9   7  -2 0.12000 0.33000   1
   1  -3  12 1.00000 0.88000   1
  -1   3 -12 0.57000 0.97000   1
  -1   3 -12 3.80000 0.61000   1
  -2  12  -6 15.1600 1.27000   1
  -2  12  -6 17.1000 1.80000   1
   2 -12   6 11.5500 0.99000   1
  -3  11   3 0.88000 0.35000   1
  -3  11   3 0.19000 0.78000   1
   3 -11  -3 0.47000 0.94000   1
  -2  12   0 13.5100 1.60000   1
  -2  12   0 14.7300 0.98000   1
  -8   6   8 5.18000 0.57000   1
   8  -6  -8 5.49000 1.28000   1
   8   2 -11 12.4400 0.93000   1
  -8  -2  11 14.0500 1.68000   1
   8   2 -11 12.3900 1.84000   1
   9  -8  -3 4.50000 0.75000   1
  -9   8   3 4.43000 0.58000   1
  -9   8   3 4.04000 0.41000   1
   2  -5 -10 0.68000 0.52000   1
  -2   5  10 0.73000 0.68000   1
  -2   5  10 1.06000 0.65000   1
   2   9 -11 1.41000 0.88000   1
   2   9 -11 -0.0500 0.65000   1
  -2  -9  11 0.74000 0.77000   1
   2   9 -11 1.36000 0.83000   1
  -4  -2  13 6.50000 1.22000   1
   4   2 -13 5.49000 0.75000   1
   4   2 -13 7.22000 1.12000   1
  -6  -2  -6 23.8400 2.12000   1
   6   2   6 22.8900 1.36000   1
   6   2   6 24.9500 2.23000   1
 -10   6   2 14.5100 0.92000   1
 -10   6   2 12.3100 0.93000   1
  10  -6  -2 13.3100 1.01000   1
  -4   2  12 5.49000 1.04000   1
   4  -2 -12 4.34000 0.72000   1
   4  -2 -12 6.40000 1.16000   1
  -4   3 -10 2.79000 0.48000   1
   4  -3  10 1.18000 0.75000   1
  -4   3 -10 3.44000 1.03000   1
  10   0  -1 7.90000 0.90000   1
  10   0  -1 6.60000 1.02000   1
 -10   0   1 5.51000 0.81000   1
  10   0  -1 6.29000 0.66000   1
  -7  -5  11 1.48000 1.03000   1
   7   5 -11 1.91000 0.99000   1
   7   5 -11 1.09000 0.61000   1
   7   5 -11 2.90000 1.18000   1
  -4  11   3 0.92000 0.35000   1
   4 -11  -3 0.20000 0.77000   1
  -4  11   3 -0.2800 0.83000   1
   2   3 -13 1.46000 0.81000   1
   2   3 -13 5.87000 0.91000   1
  -2  -3  13 2.42000 0.99000   1
  -9  -3   9 6.76000 1.20000   1
   9   3  -9 8.98000 1.44000   1
   9   3  -9 3.65000 1.37000   1
   8   6  -3 11.2900 1.53000   1
  -8  -6   3 9.06000 1.01000   1
   8   6  -3 9.73000 1.41000   1
  -5  -8  -1 23.1700 2.32000   1
   5   8   1 27.4700 2.24000   1
   5   8   1 23.8500 2.09000   1
 -10   6   3 22.0400 1.35000   1
  10  -6  -3 23.4400 1.50000   1
 -10   6   3 19.4800 1.13000   1
   7 -10  -3 1.80000 1.02000   1
  -7  10   3 2.42000 0.46000   1
  -7  10   3 2.97000 0.80000   1
 -10  -2   5 38.4900 2.91000   1
  10   2  -5 35.3500 2.82000   1
  10   2  -5 33.0700 2.47000   1
   1   1  11 15.5200 1.11000   1
   1   1  11 15.0400 1.71000   1
  -1  -1 -11 16.1600 1.28000   1
  -1  -1 -11 17.6900 1.58000   1
   2   4 -13 2.90000 0.78000   1
   2   4 -13 1.51000 0.84000   1
  -2  -4  13 0.26000 0.92000   1
  -9   2  -3 61.7400 3.96000   1
   9  -2   3 58.8000 3.96000   1
  -1  -3 -10 10.6000 1.37000   1
   1   3  10 7.51000 1.36000   1
   1   3  10 10.2300 1.03000   1
  -1  -3 -10 13.0400 1.22000   1
   0  -7  12 17.3100 1.68000   1
   0   7 -12 15.7800 1.41000   1
   0   7 -12 13.9300 1.82000   1
  -5  -9   9 15.1100 1.69000   1
   5   9  -9 13.6300 1.85000   1
   8  -7  -7 1.27000 0.81000   1
  -8   7   7 1.36000 0.44000   1
  -4  12  -4 34.0300 2.41000   1
  -4  12  -4 32.9600 2.19000   1
  -8   6  -5 1.93000 0.73000   1
   8  -6   5 0.68000 0.45000   1
  -6   3  -8 12.6800 1.57000   1
   6  -3   8 13.8400 1.40000   1
   1  12  -4 4.89000 1.12000   1
  -1 -12   4 5.21000 0.88000   1
  -4   4  11 9.04000 1.05000   1
   4  -4 -11 6.80000 1.35000   1
   4  -4 -11 12.3700 0.99000   1
  -1   7   8 -0.7800 0.71000   1
   1  -7  -8 0.35000 0.57000   1
   1  -7  -8 0.06000 0.72000   1
  -1   7   8 0.92000 0.66000   1
   3  11  -3 2.15000 0.71000   1
   3  11  -3 1.86000 0.96000   1
  -4  -7  -4 23.2500 2.39000   1
   4   7   4 25.5000 2.03000   1
   4   7   4 28.2100 2.26000   1
 -10   5   0 1.51000 0.44000   1
  10   1  -2 7.08000 1.22000   1
 -10  -1   2 7.33000 1.00000   1
  10   1  -2 7.70000 1.08000   1
  10   1  -2 8.20000 0.85000   1
  -4   6 -10 17.8400 1.85000   1
   4  -6  10 17.8600 1.42000   1
  -4   6 -10 15.3300 1.09000   1
   4   4 -13 1.77000 0.97000   1
   4   4 -13 1.28000 0.63000   1
  -4  -4  13 1.61000 0.98000   1
  -4  10   5 7.02000 1.22000   1
  -4  10   5 7.15000 0.64000   1
   4 -10  -5 7.80000 1.37000   1
  -1 -12   5 18.1100 1.49000   1
   1  12  -5 19.4400 1.72000   1
   9   4  -8 7.08000 1.33000   1
  -9  -4   8 9.24000 1.44000   1
   9   4  -8 7.57000 1.51000   1
   4   7 -12 8.62000 1.33000   1
   4   7 -12 11.8000 1.63000   1
   4   7 -12 13.3100 1.39000   1
  -4  -7  12 10.5200 1.60000   1
   2  10 -10 2.90000 0.95000   1
   2  10 -10 1.92000 0.95000   1
  -2 -10  10 1.78000 0.84000   1
   0   9 -11 0.25000 0.79000   1
   0   9 -11 0.53000 0.50000   1
   0   9 -11 1.24000 0.80000   1
   0  -9  11 0.72000 0.62000   1
  -4  10  -8 0.31000 0.46000   1
   4 -10   8 0.81000 0.40000   1
  -4  10  -8 0.57000 0.78000   1
  -8  -6   8 2.12000 1.10000   1
   8   6  -8 3.84000 1.18000   1
   8   6  -8 2.88000 1.09000   1
   1  -3 -11 20.0000 1.81000   1
   1  -3 -11 20.0500 1.56000   1
  -1   3  11 21.3200 1.78000   1
  -1   3  11 16.4800 1.57000   1
   8  -2   5 5.31000 0.86000   1
  -8   2  -5 4.27000 0.99000   1
   6  -9  -6 0.45000 0.78000   1
  -6   9   6 -0.2900 0.67000   1
  -6   9   6 -0.0400 0.26000   1
  -7   9  -5 1.45000 0.73000   1
  10   2  -4 2.22000 1.09000   1
  10   2  -4 6.01000 0.77000   1
 -10  -2   4 1.80000 0.70000   1
  10   2  -4 4.20000 1.07000   1
   6  -6   8 22.3400 1.51000   1
  -6   6  -8 20.1300 2.02000   1
   7   1 -12 19.5300 1.85000   1
   7   1 -12 15.3500 1.03000   1
  -7  -1  12 15.6700 1.79000   1
  -7  -2  12 9.18000 1.56000   1
   7   2 -12 9.79000 1.71000   1
   7   2 -12 10.7700 0.86000   1
  -7  -7   9 1.03000 0.97000   1
   7   7  -9 -0.1300 1.02000   1
   7   7  -9 -1.6300 0.90000   1
   8   3   2 8.15000 1.38000   1
  -8  -3  -2 8.95000 1.24000   1
   8   3   2 7.06000 0.94000   1
 -10  -2   6 2.34000 0.78000   1
  10   2  -6 -0.2100 0.68000   1
  10   2  -6 0.99000 0.94000   1
  -3   2  12 1.59000 0.83000   1
   3  -2 -12 1.66000 0.52000   1
   3  -2 -12 1.86000 0.93000   1
  -1   8   7 7.81000 1.26000   1
   1  -8  -7 7.68000 1.15000   1
   1  -8  -7 7.16000 1.28000   1
  -1   8   7 6.67000 1.05000   1
  -3  10   5 5.59000 1.04000   1
  -3  10   5 3.77000 0.60000   1
   3 -10  -5 9.02000 1.30000   1
  -9   0  10 7.61000 1.21000   1
   9   0 -10 8.90000 1.51000   1
  -4  12   0 2.07000 0.33000   1
  -4  12   0 4.79000 0.86000   1
   4 -12   0 3.64000 1.10000   1
   5   9  -1 6.70000 1.36000   1
   5   9  -1 5.12000 1.00000   1
   8  -5  -9 9.32000 1.32000   1
  -8   5   9 6.64000 0.81000   1
  -5   2  12 7.82000 1.11000   1
   5  -2 -12 5.19000 0.61000   1
   5  -2 -12 6.87000 1.26000   1
   6   5 -12 0.76000 0.58000   1
   6   5 -12 1.64000 1.00000   1
   6   5 -12 1.15000 0.97000   1
  -6  -5  12 1.03000 1.02000   1
   4   9   1 1.94000 0.82000   1
   4   9   1 0.21000 0.92000   1
  -4  -9  -1 0.89000 1.04000   1
   5  -4 -11 2.16000 0.96000   1
   5  -4 -11 1.49000 0.46000   1
  -5   4  11 1.39000 0.64000   1
  10  -6  -1 0.13000 0.35000   1
 -10   6   1 0.93000 0.32000   1
 -10   6   1 0.57000 0.35000   1
  -2  -5  -8 16.6400 1.39000   1
   2   5   8 16.0000 1.63000   1
   2   5   8 18.1300 1.43000   1
  -2  -5  -8 15.4100 1.62000   1
  -4  -4  -7 0.11000 0.44000   1
   4   4   7 -0.0200 0.45000   1
   4   4   7 1.02000 0.79000   1
  -4  -4  -7 -0.1100 0.68000   1
  -8   8  -4 3.03000 0.72000   1
  -3 -11   7 5.84000 1.16000   1
   3  11  -7 2.18000 1.15000   1
   6   8  -1 20.6000 2.19000   1
   6   8  -1 21.5500 1.84000   1
  -6  -8   1 21.2200 2.03000   1
  -5  10  -7 22.8300 1.34000   1
  -5  10  -7 24.0500 2.05000   1
   5 -10   7 23.0200 1.27000   1
   5   5   5 0.69000 0.81000   1
   5   5   5 -0.2500 0.54000   1
  -5  -5  -5 1.63000 0.84000   1
   8  -1 -11 5.28000 1.45000   1
  -8   1  11 7.45000 1.01000   1
 -10   1   8 15.5300 1.40000   1
  10  -1  -8 15.1500 1.70000   1
  -2  -2  13 1.87000 1.04000   1
   2   2 -13 2.78000 0.91000   1
   2   2 -13 6.13000 1.06000   1
   0  -4 -10 14.6000 1.55000   1
   0   4  10 16.3800 1.67000   1
   0  -4 -10 19.9100 1.59000   1
   0   4  10 16.9400 1.46000   1
  -2  11   3 6.67000 0.65000   1
  -2  11   3 2.47000 1.07000   1
   2 -11  -3 4.65000 1.24000   1
  -9  -1  10 0.78000 0.95000   1
   9   1 -10 2.89000 1.11000   1
   3   5 -13 10.7900 1.37000   1
  -3  -5  13 11.0200 1.59000   1
   3   5 -13 15.1500 1.64000   1
  10  -1   0 15.0100 1.24000   1
  10  -1   0 12.5700 1.09000   1
 -10   1   0 9.34000 1.00000   1
   1  12  -3 24.5400 2.28000   1
   1  12  -3 25.3500 1.67000   1
   2   8   5 8.57000 1.16000   1
   2   8   5 8.73000 1.15000   1
  -2  -8  -5 6.67000 1.18000   1
  -2  -8  -5 8.08000 1.39000   1
  -9   6  -3 5.99000 0.81000   1
   9  -6   3 4.24000 0.52000   1
   7   4   3 0.34000 0.77000   1
   7   4   3 -0.6500 0.50000   1
  -7  -4  -3 1.73000 0.72000   1
  -9   8  -1 2.02000 0.47000   1
   9  -8   1 0.29000 0.34000   1
  -9   8  -1 -0.2900 0.37000   1
  10   0  -8 5.74000 1.01000   1
 -10   0   8 4.38000 0.87000   1
 -10   6   4 -0.0100 0.38000   1
  10  -6  -4 0.95000 0.50000   1
   3  -4 -11 6.47000 1.14000   1
  -3   4  11 5.81000 1.01000   1
  -3   4  11 6.19000 1.06000   1
   3  -4 -11 4.45000 0.70000   1
   7  -7  -8 9.92000 1.27000   1
  -7   7   8 7.56000 1.21000   1
  -7   7   8 7.59000 0.70000   1
   6   7   1 20.1200 2.05000   1
   6   7   1 22.2200 2.01000   1
  -6  -7  -1 23.8200 2.15000   1
   3   8   4 1.57000 0.93000   1
  -3  -8  -4 1.97000 1.00000   1
   3   8   4 2.35000 0.73000   1
  -4  -1  13 4.54000 1.00000   1
   4   1 -13 3.71000 0.61000   1
   4   1 -13 4.69000 1.16000   1
  -2  -2 -10 6.60000 0.84000   1
  -2  -2 -10 7.01000 1.15000   1
   2   2  10 7.92000 1.29000   1
   2   2  10 9.25000 0.80000   1
  -1   6 -12 11.0500 1.06000   1
  -1   6 -12 11.1500 1.56000   1
   1  -6  12 11.5300 1.42000   1
  -5   2  -9 1.52000 0.90000   1
   5  -2   9 2.26000 0.83000   1
  -5   2  -9 0.70000 0.29000   1
   1  -6  -9 5.41000 0.86000   1
   1  -6  -9 3.58000 0.90000   1
  -1   6   9 2.56000 0.75000   1
  -1   6   9 3.08000 1.03000   1
  -8   9   4 2.58000 0.38000   1
   8  -9  -4 2.66000 0.85000   1
  -8   9   4 4.43000 0.77000   1
   2   5 -13 14.7900 1.58000   1
   2   5 -13 14.9800 1.53000   1
  -2  -5  13 15.2500 1.69000   1
  -8  -4  -1 10.7700 1.38000   1
   8   4   1 10.7800 1.19000   1
   8   4   1 10.2400 1.44000   1
  -3  -1  13 11.7800 1.56000   1
   3   1 -13 12.2000 1.17000   1
   3   1 -13 17.3000 1.57000   1
   5   6   4 8.87000 1.19000   1
   5   6   4 6.69000 1.01000   1
  -5  -6  -4 6.36000 1.18000   1
  -1   1  12 6.55000 0.84000   1
   1  -1 -12 6.46000 1.13000   1
  -1   1  12 5.39000 1.11000   1
   1  -1 -12 5.88000 0.95000   1
   1  10   3 37.3100 2.64000   1
   1  10   3 35.6300 3.04000   1
  -1 -10  -3 38.1300 2.97000   1
   0 -11   9 1.63000 0.67000   1
   0  11  -9 1.70000 1.06000   1
   0  11  -9 1.89000 0.78000   1
  -8  -2  -3 7.44000 1.24000   1
   8   2   3 7.14000 1.25000   1
   8   2   3 6.00000 0.90000   1
   1 -10  10 14.7400 1.23000   1
  -1  10 -10 13.7000 1.13000   1
  -1  10 -10 15.9900 1.83000   1
  -1   2 -12 -0.0700 0.45000   1
  -1   2 -12 1.15000 0.78000   1
   1  -2  12 -0.2100 0.36000   1
   1  -2  12 0.15000 0.64000   1
   0  12  -1 0.32000 0.90000   1
   0  12  -1 1.56000 0.53000   1
  -3   4 -11 1.12000 0.44000   1
  -3   4 -11 0.60000 0.93000   1
   3  -4  11 0.47000 0.64000   1
   9  -6  -7 17.8900 1.90000   1
  -9   6   7 17.7200 1.20000   1
  -3  -4  -8 12.4300 1.68000   1
   3   4   8 15.1200 1.56000   1
   3   4   8 11.0900 1.10000   1
  -3  -4  -8 11.6400 1.12000   1
  -6  -9   6 1.05000 1.07000   1
   6   9  -6 0.22000 1.01000   1
   6   9  -5 3.88000 1.01000   1
   6   9  -5 3.43000 1.32000   1
   8   3 -11 2.33000 0.53000   1
   8   3 -11 4.74000 1.14000   1
   8   3 -11 3.60000 1.09000   1
  -8  -3  11 2.24000 1.09000   1
   9  -1 -10 13.8100 1.63000   1
  -9   1  10 13.3900 1.34000   1
  -7   6   9 0.32000 0.45000   1
   7  -6  -9 1.19000 0.92000   1
  -1  12   0 -0.4800 0.47000   1
  -1  12   0 0.76000 0.75000   1
  -6  11   2 21.7300 1.34000   1
  -6  11   2 21.7500 1.73000   1
   6 -11  -2 22.6000 1.96000   1
  -3   5 -11 18.1900 1.89000   1
   3  -5  11 15.8000 1.49000   1
  -3   5 -11 13.8100 0.93000   1
   7  -3 -11 0.82000 1.01000   1
  -7   3  11 -0.6800 0.56000   1
   2  10   2 10.2200 1.28000   1
   2  10   2 8.75000 1.47000   1
   9   4  -2 -0.5700 0.75000   1
   9   4  -2 -0.3500 0.73000   1
  -9  -4   2 0.66000 0.64000   1
   5   2 -13 23.9900 2.28000   1
  -5  -2  13 32.8700 2.51000   1
   5   2 -13 21.7500 1.52000   1
  -9   5   8 24.8900 1.56000   1
   9  -5  -8 23.0600 2.28000   1
   7  -8   6 8.43000 0.66000   1
  -7   8  -6 8.95000 1.24000   1
   5 -10  -5 8.32000 1.29000   1
  -5  10   5 7.82000 1.08000   1
  -5  10   5 4.59000 0.49000   1
   1  11   1 4.29000 1.13000   1
   1  11   1 2.28000 0.71000   1
  -7   0  12 6.99000 1.16000   1
   7   0 -12 5.70000 1.29000   1
   7   0 -12 4.41000 0.44000   1
  -1 -12   6 32.5400 2.33000   1
   1  12  -6 33.2100 2.75000   1
   1   7   7 10.5400 1.15000   1
   1   7   7 11.8700 1.40000   1
  -1  -7  -7 12.1100 1.53000   1
  -1  -7  -7 8.63000 1.26000   1
   7   3 -12 0.32000 0.44000   1
   7   3 -12 -0.0700 0.87000   1
  -7  -3  12 -1.0500 0.79000   1
   5   3 -13 3.64000 0.64000   1
   5   3 -13 5.67000 1.23000   1
  -5  -3  13 4.76000 1.17000   1
   7   3   4 35.0800 2.84000   1
  -7  -3  -4 34.1000 2.66000   1
   7   3   4 31.3900 2.03000   1
   5  -9   8 17.6600 1.16000   1
  -5   9  -8 20.4700 1.73000   1
  -5   9  -8 16.4700 1.17000   1
   0   0  12 10.4500 0.97000   1
   0   0 -12 11.8500 1.29000   1
   0   0 -12 12.3800 1.13000   1
   0   0  12 10.1700 1.49000   1
  -8   9  -3 11.7000 0.91000   1
  -8   9  -3 11.4800 0.98000   1
  -5  11   3 11.1400 0.86000   1
   5 -11  -3 11.7100 1.67000   1
  -5  11   3 15.5200 1.55000   1
  -3  10  -9 1.78000 0.85000   1
  -3  10  -9 -0.00000 0.4000   1
   3 -10   9 0.84000 0.38000   1
 -10   2   8 25.0900 1.86000   1
  10  -2  -8 24.7400 2.16000   1
   3   9 -11 3.03000 1.12000   1
   3   9 -11 4.62000 1.04000   1
   3   9 -11 2.51000 1.05000   1
  -3  -9  11 4.49000 1.14000   1
  -1 -11   9 1.82000 0.71000   1
   1  11  -9 -0.1000 0.81000   1
   1  11  -9 0.94000 1.02000   1
  -7   4  -7 -1.6200 0.62000   1
   7  -4   7 0.33000 0.54000   1
  -6  11  -4 14.5100 1.32000   1
  -6  11  -4 14.4200 1.02000   1
   0  11   2 5.45000 1.30000   1
   0  11   2 7.01000 0.84000   1
   0 -11  -2 6.41000 0.96000   1
   4  -9   9 5.49000 0.62000   1
  -4   9  -9 5.88000 0.64000   1
  -4   9  -9 6.19000 1.16000   1
   4 -11   7 0.97000 0.29000   1
  -4  11  -7 -0.2700 0.86000   1
  -4  11  -7 1.37000 0.46000   1
   5  -7   9 8.49000 0.84000   1
  -5   7  -9 7.67000 1.16000   1
  -7  -5  -2 2.94000 0.98000   1
   7   5   2 1.93000 0.72000   1
   7   5   2 1.55000 0.97000   1
   4  -2  10 17.1400 1.76000   1
  -4   2 -10 13.9100 1.89000   1
  -4   2 -10 15.9200 1.08000   1
   5   4   6 1.44000 0.49000   1
  -5  -4  -6 -0.2000 0.87000   1
   5   4   6 -1.2300 0.89000   1
  -7   5  -7 1.40000 0.76000   1
   7  -5   7 1.38000 0.57000   1
   2   8 -12 16.6200 1.61000   1
   2   8 -12 17.0200 1.93000   1
   2   8 -12 14.0600 1.77000   1
  -2  -8  12 17.8700 1.83000   1
  -1  12  -7 1.39000 0.69000   1
  -1  12  -7 3.95000 1.03000   1
   1 -12   7 2.23000 0.53000   1
  10  -5  -6 65.7200 4.28000   1
 -10   5   6 61.2700 3.66000   1
  -9   8   4 19.6000 1.50000   1
   9  -8  -4 23.1200 1.71000   1
   8  -8  -6 1.98000 0.90000   1
  -8   8   6 0.36000 0.67000   1
  -8   8   6 1.54000 0.38000   1
  -5  12  -2 3.72000 0.66000   1
  -5  12  -2 3.64000 0.62000   1
  10   2  -3 5.87000 0.79000   1
 -10  -2   3 6.02000 0.78000   1
  10   2  -3 7.59000 1.27000   1
  10   2  -3 3.78000 1.18000   1
   3 -12   6 2.07000 0.39000   1
  -3  12  -6 2.85000 0.96000   1
  -3  12  -6 2.36000 0.59000   1
  10  -4  -7 7.31000 1.13000   1
 -10   4   7 6.69000 0.78000   1
   1   6   8 18.1500 1.57000   1
   1   6   8 15.1000 1.62000   1
  -1  -6  -8 18.0400 1.83000   1
  -1  -6  -8 16.6800 1.50000   1
 -10  -2   7 8.00000 1.33000   1
  10   2  -7 8.88000 1.55000   1
  10   2  -7 9.85000 1.40000   1
   0  12  -7 7.49000 1.16000   1
   0 -12   7 6.01000 0.86000   1
   0  12  -7 4.48000 1.26000   1
  -6   2  -8 11.8100 1.43000   1
   6  -2   8 11.5900 1.29000   1
   7   8  -6 8.84000 1.72000   1
  -7  -8   6 9.64000 1.69000   1
   7  -8  -7 8.00000 1.30000   1
  -7   8   7 10.7900 1.34000   1
  -7   8   7 10.2600 0.79000   1
   4   5 -13 0.04000 0.58000   1
   4   5 -13 0.42000 0.74000   1
  -4  -5  13 0.26000 0.84000   1
   1   4 -13 2.12000 0.85000   1
   1   4 -13 1.75000 0.82000   1
  -1  -4  13 2.85000 0.97000   1
   7   0   6 0.00000 0.66000   1
  -7   0  -6 0.96000 0.67000   1
  -7  10  -4 16.8300 1.09000   1
  -7  10  -4 19.3300 1.50000   1
  -5  12  -1 8.87000 0.82000   1
  -5  12  -1 6.58000 0.93000   1
  -3   3 -11 4.11000 0.61000   1
   3  -3  11 6.20000 1.08000   1
  -3   3 -11 4.94000 1.18000   1
   1   8 -12 4.14000 0.63000   1
   1   8 -12 1.43000 0.99000   1
   1   8 -12 0.98000 0.84000   1
  -1  -8  12 0.40000 0.91000   1
   7   8  -5 1.35000 1.10000   1
   7   8  -5 0.55000 0.82000   1
   9   2 -10 2.18000 0.99000   1
   9   2 -10 0.64000 0.41000   1
  -9  -2  10 0.25000 0.90000   1
   5   1   8 2.50000 0.93000   1
  -5  -1  -8 1.94000 0.46000   1
  -5  -1  -8 1.45000 0.94000   1
   5   1   8 1.07000 0.44000   1
   1 -11   9 5.19000 0.71000   1
  -1  11  -9 4.03000 0.79000   1
  -1  11  -9 2.97000 1.07000   1
 -10  -1   8 1.04000 0.86000   1
  10   1  -8 3.01000 0.88000   1
   5  10  -5 0.39000 0.88000   1
   5  10  -5 -0.1900 0.70000   1
   2  -8  11 8.70000 0.96000   1
  -2   8 -11 8.99000 0.91000   1
  -2   8 -11 10.6500 1.48000   1
   6   9  -7 1.55000 1.04000   1
  -6  -9   7 0.24000 1.07000   1
   6   9  -4 5.86000 1.36000   1
   6   9  -4 3.91000 1.11000   1
   4   1   9 12.6100 1.60000   1
  -4  -1  -9 7.93000 1.54000   1
  -4  -1  -9 12.6800 1.03000   1
   4   1   9 13.3500 0.90000   1
   4  10  -1 0.79000 0.96000   1
   4  10  -1 0.55000 0.66000   1
  -1  -3  13 27.2900 2.32000   1
   1   3 -13 26.7900 2.13000   1
   1   3 -13 27.6300 2.22000   1
  10  -3   1 7.57000 0.82000   1
 -10   3  -1 6.50000 0.90000   1
   2 -10  -5 0.65000 0.81000   1
  -2  10   5 -0.0500 0.50000   1
  -2  10   5 2.19000 0.76000   1
  10  -4   1 13.4800 1.11000   1
 -10   4  -1 14.5400 1.10000   1
  -1   9   6 4.98000 0.91000   1
  -1   9   6 3.37000 1.15000   1
   1  -9  -6 4.05000 0.88000   1
   1  -9  -6 4.01000 1.09000   1
  -5 -10   6 3.73000 1.18000   1
   5  10  -6 0.46000 1.07000   1
  -9   1  -3 9.32000 0.99000   1
   9  -1   3 4.24000 1.02000   1
   9  -1   3 5.84000 0.59000   1
   1   8   6 9.08000 1.22000   1
  -1  -8  -6 10.8100 1.32000   1
  -1  -8  -6 10.4700 1.35000   1
   1   8   6 9.46000 1.42000   1
   9   5  -6 3.71000 1.25000   1
  -9  -5   6 3.30000 1.13000   1
   9   5  -6 2.81000 0.95000   1
   3 -11   8 -0.1900 0.36000   1
  -3  11  -8 0.70000 0.72000   1
  -3  11  -8 0.28000 0.38000   1
  -5  -1  13 36.8600 2.77000   1
   5   1 -13 34.7400 2.08000   1
   5   1 -13 38.9200 3.06000   1
   9   5  -5 -0.2600 0.73000   1
   9   5  -5 0.78000 1.02000   1
   9   5  -5 2.16000 0.92000   1
  -4  12  -5 0.49000 0.75000   1
  -4  12  -5 0.44000 0.46000   1
  -3  12   1 0.49000 0.34000   1
  -3  12   1 0.04000 0.81000   1
   3 -12  -1 0.40000 0.90000   1
  -8  -5  10 4.39000 1.06000   1
   8   5 -10 7.21000 1.50000   1
   8   5 -10 2.72000 1.39000   1
   9  -7  -6 -0.3600 0.67000   1
  -9   7   6 0.51000 0.33000   1
   4  -7  10 -0.1100 0.46000   1
  -4   7 -10 -0.2600 0.35000   1
  -4   7 -10 2.20000 0.77000   1
   3  11  -2 0.95000 0.77000   1
   3  11  -2 1.07000 0.95000   1
   0 -10  -4 13.5500 1.63000   1
   0  10   4 14.7100 1.26000   1
   0  10   4 12.2700 1.70000   1
  -8   7  -5 16.5700 1.53000   1
   8  -7   5 13.5700 0.91000   1
  -3   6 -11 7.67000 0.63000   1
  -3   6 -11 7.44000 1.38000   1
   3  -6  11 4.67000 0.90000   1
  -2   0 -11 8.03000 0.77000   1
   2   0  11 6.59000 0.73000   1
   2   0  11 6.52000 1.28000   1
  -2   0 -11 8.24000 1.32000   1
 -10   6   0 3.14000 0.46000   1
 -10   6   0 2.37000 0.46000   1
   7  -3   7 4.45000 0.83000   1
  -7   3  -7 5.27000 0.93000   1
   5   4 -13 0.77000 0.53000   1
  -5  -4  13 0.97000 0.90000   1
   5   4 -13 -0.3600 0.88000   1
   4  10  -9 3.89000 1.22000   1
  -4 -10   9 5.18000 1.07000   1
   2  -2 -12 5.42000 1.10000   1
  -2   2  12 4.55000 1.06000   1
   2  -2 -12 4.51000 0.88000   1
  -2   2  12 4.98000 0.86000   1
  -6   7  -8 -0.2700 1.02000   1
   6  -7   8 6.27000 0.75000   1
  -8  10   0 0.94000 0.44000   1
  -8  10   0 0.15000 0.33000   1
   8 -10   0 0.75000 0.49000   1
   9   2   1 25.8600 1.81000   1
  -9  -2  -1 22.3200 1.82000   1
   9   2   1 21.8200 1.44000   1
   9   2   1 24.1700 2.17000   1
  -5  11  -6 0.51000 0.39000   1
  -5  11  -6 1.93000 0.66000   1
  -5  12  -3 9.34000 0.96000   1
  -5  12  -3 12.0300 1.16000   1
   1  12  -2 -0.0200 0.49000   1
   1  12  -2 0.95000 0.81000   1
  -6  -7  11 0.13000 0.87000   1
   6   7 -11 0.91000 0.85000   1
   6   7 -11 -0.5800 0.62000   1
   6   7 -11 -0.1600 0.89000   1
   6  -4 -11 6.61000 1.24000   1
  -6   4  11 6.63000 0.88000   1
   2   1 -13 4.59000 0.85000   1
   2   1 -13 9.20000 1.16000   1
  -2  -1  13 4.75000 1.19000   1
  -6  10  -6 30.0200 1.71000   1
  -6  10  -6 32.2800 2.49000   1
   4   8   3 1.13000 0.79000   1
   4   8   3 2.34000 0.82000   1
  -4  -8  -3 0.73000 0.89000   1
   8   6  -2 1.01000 0.87000   1
   8   6  -2 2.65000 0.93000   1
  -8  -6   2 3.08000 0.94000   1
  -7  -7   1 28.2100 2.45000   1
   7   7  -1 25.4300 2.42000   1
   7   7  -1 32.0600 2.73000   1
   2  11   0 -0.2100 0.85000   1
   2  11   0 0.00000 0.52000   1
  -1   9 -11 0.27000 0.52000   1
  -1   9 -11 0.60000 0.59000   1
  -1   9 -11 0.76000 0.89000   1
   1  -9  11 0.52000 0.56000   1
   6  -2 -12 9.05000 1.49000   1
  -6   2  12 7.76000 1.09000   1
  -1  -5  13 8.98000 1.36000   1
   1   5 -13 10.0300 1.39000   1
   1   5 -13 8.20000 1.11000   1
  -8  10   1 15.4500 1.16000   1
   8 -10  -1 15.4700 1.33000   1
  -8  10   1 14.3600 0.90000   1
   4  -7  -9 17.7400 1.90000   1
   4  -7  -9 16.6500 1.27000   1
  -4   7   9 19.4300 1.54000   1
  -4   7   9 20.2800 1.93000   1
  -7  -8   7 10.2700 1.68000   1
   7   8  -7 10.4300 1.56000   1
  -5  -8  11 1.13000 1.01000   1
   5   8 -11 0.24000 0.94000   1
   5   8 -11 1.43000 1.04000   1
   5   8 -11 1.14000 0.74000   1
  -7   6  -7 20.4300 1.96000   1
   7  -6   7 22.0700 1.44000   1
  -5  -7  -3 19.4500 2.14000   1
   5   7   3 19.7300 1.89000   1
   5   7   3 21.0200 1.99000   1
   3   8 -12 16.3700 1.95000   1
   3   8 -12 15.5400 1.79000   1
   3   8 -12 15.5100 1.54000   1
  -3  -8  12 16.5100 1.87000   1
  -4   8   8 8.57000 0.85000   1
   4  -8  -8 11.0900 1.44000   1
  -4   8   8 10.2500 1.41000   1
  -8   4  10 7.86000 0.97000   1
   8  -4 -10 7.91000 1.40000   1
   6  -9   7 7.37000 0.62000   1
  -6   9  -7 6.94000 1.03000   1
  -3 -10  10 6.96000 1.18000   1
   3  10 -10 7.59000 1.20000   1
   3  10 -10 8.51000 1.45000   1
   9  -4  -9 2.40000 1.18000   1
  -9   4   9 2.33000 0.70000   1
   8  -1   5 23.2900 1.97000   1
  -8   1  -5 21.6600 1.95000   1
 -10   6   5 39.4600 2.19000   1
  10  -6  -5 43.0700 2.76000   1
   2 -12   7 0.75000 0.47000   1
  -2  12  -7 0.33000 0.74000   1
  -2  12  -7 1.00000 0.52000   1
  -7   5  10 1.69000 0.70000   1
   7  -5 -10 3.13000 1.09000   1
   2 -12  -1 2.05000 0.98000   1
  -2  12   1 0.78000 0.41000   1
  -2  12   1 0.49000 0.73000   1
   5  10  -4 2.89000 0.86000   1
   5  10  -4 0.95000 1.00000   1
   9  -2 -10 7.79000 1.51000   1
  -9   2  10 7.17000 1.11000   1
  -9  -3   0 15.5400 1.59000   1
   9   3   0 13.5900 1.38000   1
   9   3   0 14.0600 1.65000   1
   4 -12  -1 -0.3600 0.86000   1
  -4  12   1 1.35000 0.75000   1
  -4  12   1 0.14000 0.32000   1
   8   5   0 15.4400 1.85000   1
  -8  -5   0 18.6600 1.78000   1
   8   5   0 17.5900 1.81000   1
  -8   2  11 26.9600 2.01000   1
   8  -2 -11 26.6000 2.64000   1
   7   8  -4 15.4600 1.74000   1
   7   8  -4 17.0100 2.07000   1
   3  10   1 14.6700 1.43000   1
   3  10   1 15.3100 1.82000   1
  -5  12   0 38.2200 2.29000   1
  -5  12   0 36.0900 2.75000   1
   5 -12   0 36.3100 2.82000   1
   8   1   4 0.12000 0.96000   1
   8   1   4 3.41000 0.55000   1
  -8  -1  -4 0.47000 0.90000   1
  10  -2   1 0.65000 0.51000   1
 -10   2  -1 -0.0900 0.57000   1
  10   1  -1 0.04000 0.53000   1
  10   1  -1 0.50000 0.39000   1
  10   1  -1 -0.3300 0.69000   1
 -10  -1   1 -0.3900 0.48000   1
   2   6 -13 17.8600 1.64000   1
  -2  -6  13 15.2900 1.87000   1
   2   6 -13 17.8800 1.89000   1
  -5   7   9 1.35000 0.83000   1
  -5   7   9 1.82000 0.53000   1
   5  -7  -9 1.03000 0.95000   1
  -2   4  11 6.02000 1.12000   1
  -2   4  11 6.10000 1.01000   1
   2  -4 -11 7.42000 1.21000   1
   2  -4 -11 7.83000 0.90000   1
   9   5  -7 -0.2100 1.14000   1
  -9  -5   7 2.23000 0.84000   1
   9   5  -7 1.50000 1.05000   1
  10  -5   1 0.99000 0.45000   1
 -10   5  -1 2.06000 0.52000   1
  -3  -6  13 3.57000 1.08000   1
   3   6 -13 1.41000 0.64000   1
   3   6 -13 7.26000 0.97000   1
   3   6 -13 2.23000 0.92000   1
   4   0 -13 11.7300 0.99000   1
   4   0 -13 13.3000 1.64000   1
  -4   0  13 12.8200 1.55000   1
   8 -10   1 51.8600 3.04000   1
  -8  10  -1 43.2000 2.51000   1
  -8  10  -1 43.4800 2.69000   1
  -3 -11   8 10.9300 1.38000   1
   3  11  -8 10.8600 1.40000   1
   9   5  -4 6.11000 1.23000   1
   9   5  -4 3.20000 1.15000   1
  -2  -4  -9 5.06000 1.02000   1
   2   4   9 4.93000 0.90000   1
   2   4   9 6.56000 1.12000   1
  -2  -4  -9 5.67000 0.81000   1
  -7  11  -1 4.65000 0.60000   1
  -7  11  -1 4.81000 0.60000   1
   5  10  -7 8.80000 1.16000   1
  -5 -10   7 1.76000 1.12000   1
   7 -11   0 7.18000 0.99000   1
  -7  11   0 6.39000 0.76000   1
  -7  11   0 5.57000 0.58000   1
   1  -5 -10 0.84000 0.66000   1
  -1   5  10 1.81000 0.68000   1
   1  -5 -10 0.38000 0.70000   1
  -1   5  10 1.47000 0.69000   1
   7   2   5 26.5400 2.28000   1
  -7  -2  -5 30.7200 2.33000   1
   7   2   5 28.5600 1.83000   1
   8   6  -9 7.86000 1.67000   1
   8   6  -9 11.1900 1.79000   1
  -8  -6   9 8.59000 1.63000   1
  -3   9 -10 0.89000 0.40000   1
   3  -9  10 0.34000 0.46000   1
  -3   9 -10 0.69000 0.60000   1
  -3   9 -10 0.46000 0.81000   1
  10  -3  -8 4.53000 1.19000   1
 -10   3   8 5.58000 0.78000   1
   5  -8  -8 14.4700 1.87000   1
  -5   8   8 13.7000 1.79000   1
  -5   8   8 17.1700 1.25000   1
   9   1   2 8.43000 0.92000   1
   9   1   2 7.99000 1.32000   1
  -9  -1  -2 9.35000 1.13000   1
   1   2 -13 1.35000 0.84000   1
   1   2 -13 2.61000 0.68000   1
  -1  -2  13 0.05000 0.90000   1
   7  -1 -12 1.29000 0.92000   1
  -7   1  12 -0.4100 0.62000   1
  -1  11   3 2.29000 1.04000   1
   1 -11  -3 2.87000 1.03000   1
  -1  11   3 2.57000 0.69000   1
   7   4 -12 7.03000 0.79000   1
   7   4 -12 9.17000 1.59000   1
   7   4 -12 9.69000 1.47000   1
  -7  -4  12 11.2300 1.49000   1
  -9  -4   9 -0.4300 0.67000   1
   9   4  -9 1.61000 0.98000   1
   9   4  -9 0.05000 0.97000   1
  -7  10   4 5.82000 0.66000   1
  -7  10   4 8.97000 1.14000   1
   7 -10  -4 5.66000 1.11000   1
   2  11  -9 4.71000 1.03000   1
   2  11  -9 7.79000 1.40000   1
  -2 -11   9 4.06000 1.13000   1
   6   8 -10 39.7600 3.26000   1
   6   8 -10 41.2200 3.61000   1
  -6  -8  10 35.5000 3.23000   1
   1  -7  12 5.90000 0.86000   1
  -1   7 -12 4.09000 1.14000   1
  -1   7 -12 1.74000 0.74000   1
 -10   0   0 -0.1200 0.56000   1
  10   0   0 1.15000 0.49000   1
  10   0   0 1.11000 0.66000   1
   1  12  -7 6.82000 1.14000   1
  -1 -12   7 5.15000 0.87000   1
   4   3   8 4.46000 0.59000   1
  -4  -3  -8 2.68000 1.15000   1
  -4  -3  -8 2.73000 0.55000   1
   4   3   8 6.93000 1.13000   1
   6   1   7 0.03000 0.33000   1
  -6  -1  -7 -1.1100 0.69000   1
   6   1   7 0.65000 0.65000   1
  -9   7  -3 0.26000 0.51000   1
   2   9   4 0.30000 0.93000   1
  -2  -9  -4 1.39000 0.84000   1
  -2  -9  -4 1.88000 0.82000   1
   2   9   4 0.72000 0.78000   1
  -9   8  -2 9.15000 0.90000   1
  -9   8  -2 8.23000 0.76000   1
   1  -1  12 7.78000 1.19000   1
  -1   1 -12 5.29000 0.92000   1
  -1   1 -12 7.84000 1.30000   1
   1  -1  12 6.10000 0.73000   1
   3   0 -13 3.12000 0.70000   1
  -3   0  13 4.69000 0.86000   1
   3   0 -13 5.57000 1.13000   1
  -3   8   8 11.8200 1.13000   1
  -3   8   8 15.6300 1.71000   1
   3  -8  -8 14.8300 1.19000   1
   3  -8  -8 15.9200 1.52000   1
  -1  -5  -9 17.6500 1.45000   1
  -1  -5  -9 14.2500 1.50000   1
   1   5   9 13.9600 1.34000   1
   1   5   9 16.4300 1.57000   1
 -10   7   2 16.3800 1.02000   1
  10  -7  -2 15.7700 1.06000   1
  -3   7   9 6.34000 0.88000   1
  -3   7   9 10.5400 1.17000   1
   3  -7  -9 6.46000 0.77000   1
   3  -7  -9 6.95000 1.29000   1
   0   8 -12 5.98000 1.31000   1
   0   8 -12 5.16000 0.65000   1
   0   8 -12 4.72000 1.05000   1
   0  -8  12 7.36000 1.10000   1
   7   6   1 18.7900 1.84000   1
   7   6   1 19.2500 2.05000   1
  -7  -6  -1 19.7900 1.87000   1
   3   1  10 12.3700 0.95000   1
   3   1  10 12.4000 1.51000   1
  -3  -1 -10 11.0700 0.94000   1
  -3  -1 -10 10.3000 1.55000   1
   6   5   4 4.61000 0.91000   1
   6   5   4 4.85000 1.01000   1
  -6  -5  -4 3.16000 1.08000   1
  -3   2 -11 5.64000 1.30000   1
   3  -2  11 6.26000 1.19000   1
  -3   2 -11 6.24000 0.72000   1
  -5   1  -9 1.42000 0.38000   1
  -5   1  -9 0.85000 0.97000   1
   5  -1   9 1.92000 0.87000   1
   8   4 -11 0.11000 0.56000   1
   8   4 -11 0.49000 0.94000   1
  -8  -4  11 1.72000 0.92000   1
   8   4 -11 0.02000 0.87000   1
   5   7 -12 -0.8100 0.72000   1
   5   7 -12 1.00000 0.81000   1
   5   7 -12 1.65000 0.98000   1
  -5  -7  12 0.49000 0.96000   1
   6 -10  -5 12.0000 1.58000   1
  -6  10   5 9.47000 0.75000   1
  -6  10   5 12.7300 1.42000   1
   8 -10  -2 3.07000 1.06000   1
  -8  10   2 6.16000 0.70000   1
  -8  10   2 5.67000 0.56000   1
   5   3   7 10.0500 1.43000   1
  -5  -3  -7 7.20000 1.40000   1
  -5  -3  -7 10.6400 0.94000   1
   5   3   7 9.50000 1.01000   1
 -10  -3   5 7.21000 1.29000   1
  10   3  -5 6.83000 1.08000   1
  10   3  -5 8.13000 1.33000   1
   6   9  -8 7.56000 1.51000   1
  -6  -9   8 9.89000 1.64000   1
  -4   6  10 11.1600 1.11000   1
  -4   6  10 11.0200 1.52000   1
   4  -6 -10 12.9600 0.90000   1
   4  -6 -10 14.9000 1.61000   1
   6   9  -3 9.41000 1.68000   1
   6   9  -3 9.56000 1.30000   1
   2  12  -5 7.15000 1.10000   1
  -2 -12   5 0.36000 0.78000   1
  10  -7  -3 15.2400 1.22000   1
  -7  -6  11 1.81000 1.06000   1
   7   6 -11 3.59000 1.10000   1
   7   6 -11 0.15000 1.18000   1
   7   6 -11 1.33000 0.65000   1
  10   2  -2 10.4400 1.39000   1
  10   2  -2 10.5800 1.11000   1
 -10  -2   2 10.8500 1.07000   1
  10   2  -2 10.1800 1.42000   1
  -4   9   7 5.06000 0.64000   1
  -4   9   7 3.52000 1.15000   1
   4  -9  -7 4.61000 1.20000   1
   5   0 -13 4.84000 0.68000   1
   5   0 -13 5.08000 1.27000   1
  -5   0  13 6.72000 1.14000   1
  -7  11  -2 5.58000 0.64000   1
  -7  11  -2 4.08000 0.56000   1
  10   3  -6 23.1200 2.39000   1
 -10  -3   6 28.2200 2.41000   1
  10   3  -6 21.2300 2.13000   1
   2 -10  10 7.51000 0.84000   1
  -2  10 -10 8.31000 0.86000   1
  -2  10 -10 4.87000 1.28000   1
  -6  -4  -5 16.2200 1.61000   1
   6   4   5 15.4900 1.64000   1
   6   4   5 14.2200 1.20000   1
   3   9   3 3.22000 0.78000   1
  -3  -9  -3 2.24000 1.04000   1
   3   9   3 1.23000 1.02000   1
  -7   9   6 7.93000 0.62000   1
   7  -9  -6 11.0600 1.47000   1
  -7   9   6 6.20000 1.15000   1
   5   9 -10 23.7600 2.28000   1
  -5  -9  10 22.2700 2.39000   1
   9  -4   4 8.46000 0.83000   1
  -9   4  -4 7.36000 1.12000   1
   6   6 -12 6.38000 0.97000   1
  -6  -6  12 5.86000 1.53000   1
   6   6 -12 10.7200 1.50000   1
   6   6 -12 9.14000 1.25000   1
  -5  12  -4 1.47000 0.63000   1
  -5  12  -4 -0.4400 0.37000   1
 -10   7   1 4.42000 0.61000   1
 -10   7   1 4.50000 0.49000   1
  10  -7  -1 3.89000 0.58000   1
  -7  11   1 4.70000 0.53000   1
   7 -11  -1 5.75000 0.95000   1
  -7  11   1 4.50000 0.71000   1
   9   3 -10 9.43000 1.42000   1
   9   3 -10 12.1700 1.62000   1
  -9  -3  10 8.76000 1.57000   1
 -10  -2   8 31.3900 2.80000   1
  10   2  -8 31.3700 2.95000   1
  10   2  -8 30.2400 2.68000   1
  -9   9   1 0.17000 0.36000   1
   9  -9  -1 0.17000 0.47000   1
  -9   9   1 0.21000 0.34000   1
   2  12  -4 6.53000 1.27000   1
   2  12  -4 8.35000 0.96000   1
   7  -2   7 40.5000 2.97000   1
  -7   2  -7 39.9100 3.04000   1
   0  12   0 16.9200 1.70000   1
   0  12   0 13.7300 1.14000   1
   6   2 -13 1.13000 0.39000   1
   6   2 -13 0.00000 0.92000   1
  -6  -2  13 1.66000 0.87000   1
  -5   6  10 5.55000 0.89000   1
  -5   6  10 6.78000 1.31000   1
   5  -6 -10 7.44000 1.20000   1
   5  -6 -10 5.84000 0.64000   1
  -1  -9  -5 1.31000 0.87000   1
  -1  -9  -5 0.02000 0.87000   1
   1   9   5 0.67000 0.97000   1
   1   9   5 2.01000 0.76000   1
  -8  -7   6 32.2100 3.04000   1
   8   7  -6 31.6600 3.14000   1
   7   7 -10 10.0500 1.49000   1
  -7  -7  10 7.59000 1.50000   1
   7   7 -10 7.50000 1.51000   1
   2 -11   9 0.44000 0.43000   1
  -2  11  -9 1.21000 0.85000   1
  -2  11  -9 1.69000 0.50000   1
  -4   1 -10 15.5100 1.71000   1
  -4   1 -10 12.2800 0.92000   1
   4  -1  10 16.4300 1.70000   1
   5   5 -13 6.10000 0.92000   1
   5   5 -13 8.97000 1.53000   1
  -5  -5  13 7.46000 1.45000   1
   1   6 -13 11.0100 1.41000   1
  -1  -6  13 13.3200 1.63000   1
   1   6 -13 14.1600 1.49000   1
   3  -7  11 8.32000 0.91000   1
  -3   7 -11 8.20000 1.42000   1
  -3   7 -11 7.14000 0.83000   1
  -7  -8   8 7.72000 1.58000   1
   7   8  -8 7.86000 1.58000   1
  -3  -3  -9 8.42000 0.88000   1
  -3  -3  -9 9.49000 1.28000   1
   3   3   9 8.53000 1.27000   1
   3   3   9 7.63000 0.99000   1
   6 -11  -3 0.55000 1.01000   1
  -6  11   3 2.51000 0.68000   1
  -6  11   3 0.75000 0.41000   1
   8   7  -5 0.77000 1.11000   1
   8   7  -5 4.12000 1.09000   1
  -9   5  -4 1.12000 0.69000   1
   9  -5   4 0.76000 0.53000   1
   4   6 -13 15.1800 1.52000   1
  -4  -6  13 17.7700 1.89000   1
   4   6 -13 15.0500 1.83000   1
   4   6 -13 14.7200 1.68000   1
   4  -3 -12 2.71000 0.65000   1
  -4   3  12 6.06000 0.99000   1
   4  -3 -12 3.32000 1.11000   1
  -6  -6  -3 4.64000 1.06000   1
   6   6   3 4.10000 1.10000   1
   6   6   3 2.36000 0.82000   1
  -6  -3  13 -1.1200 0.80000   1
   6   3 -13 0.60000 0.75000   1
   6   3 -13 0.89000 0.54000   1
   6  -1   8 2.96000 0.88000   1
  -6   1  -8 5.99000 1.00000   1
  -5   8  -9 0.37000 0.38000   1
   5  -8   9 0.82000 0.58000   1
  -5   8  -9 2.98000 0.84000   1
   9  -9   0 17.4500 1.18000   1
  -9   9   0 16.4600 1.08000   1
  -9   9   0 19.0700 1.21000   1
   9  -9  -2 4.22000 0.77000   1
  -9   9   2 4.22000 0.59000   1
  -9   9   2 5.27000 0.55000   1
   4   9 -11 5.62000 0.96000   1
  -4  -9  11 5.21000 1.31000   1
   4   9 -11 2.01000 1.21000   1
   4   9 -11 3.46000 1.15000   1
   5  10  -3 19.6800 1.80000   1
   5  10  -3 17.5700 2.09000   1
   9  -8  -5 0.78000 0.79000   1
  -9   8   5 2.84000 0.69000   1
 -10  -3   4 14.3800 1.30000   1
  10   3  -4 14.2800 1.46000   1
  10   3  -4 19.0800 1.85000   1
  10   3  -4 15.9100 1.95000   1
   2  12  -6 10.4500 1.46000   1
  -2 -12   6 10.9600 1.25000   1
  -5   9   7 9.34000 1.46000   1
   5  -9  -7 13.2100 1.63000   1
  -5   9   7 12.8800 0.98000   1
  -8   9   5 4.10000 0.86000   1
   8  -9  -5 3.13000 0.94000   1
  -9   3  -4 24.4300 2.00000   1
   9  -3   4 27.7100 1.91000   1
   4  11  -5 16.7000 1.88000   1
  -9  -4   1 23.3000 2.10000   1
   9   4  -1 25.4100 2.17000   1
   9   4  -1 26.7100 2.11000   1
  -8  10  -2 14.4400 1.05000   1
  -8  10  -2 15.2900 1.12000   1
  -7   7  -7 0.94000 0.69000   1
   7  -7   7 0.70000 0.37000   1
 -10   0   9 20.1600 1.81000   1
  10   0  -9 16.3100 1.81000   1
   5   9   0 22.8300 2.01000   1
   5   9   0 16.9100 1.76000   1
   0  -7  -8 0.33000 0.72000   1
   0   7   8 0.33000 0.80000   1
   0   7   8 1.39000 0.73000   1
   0  -7  -8 -0.1900 0.80000   1
  -2   4 -12 1.14000 0.54000   1
  -2   4 -12 0.84000 0.90000   1
   2  -4  12 0.06000 0.72000   1
  -4  11   4 1.47000 0.76000   1
  -4  11   4 0.29000 0.31000   1
   4 -11  -4 1.08000 0.92000   1
   3  -9  -7 6.60000 1.22000   1
  -3   9   7 7.41000 0.87000   1
  -3   9   7 6.09000 1.25000   1
  -6  11  -5 1.63000 0.45000   1
  -6  11  -5 3.15000 0.81000   1
   6   1 -13 5.13000 0.62000   1
   6   1 -13 8.09000 1.35000   1
  -6  -1  13 7.90000 1.29000   1
  10  -1  -9 9.61000 1.39000   1
 -10   1   9 9.59000 1.37000   1
  -1  12   1 17.3700 1.83000   1
  -1  12   1 17.5800 1.26000   1
   6  -7  -9 10.5700 1.52000   1
  -6   7   9 7.57000 1.37000   1
  -6   7   9 7.00000 0.77000   1
   4  11  -6 0.62000 1.04000   1
  -4 -11   6 1.83000 0.91000   1
   2  -5  12 6.36000 1.08000   1
  -2   5 -12 4.77000 1.27000   1
  -2   5 -12 5.18000 0.62000   1
  -3  11   4 16.0100 1.09000   1
  -3  11   4 16.2000 1.52000   1
   3 -11  -4 19.4300 1.82000   1
   9   5  -8 0.06000 0.98000   1
  -9  -5   8 -0.5400 0.81000   1
   9   5  -8 0.00000 0.85000   1
   7   8  -3 26.3400 2.72000   1
   7   8  -3 26.2000 2.28000   1
  10  -1   1 24.8800 1.74000   1
  10  -1   1 21.2900 1.34000   1
 -10   1  -1 19.5600 1.66000   1
  -3   6  10 6.22000 0.91000   1
   3  -6 -10 7.15000 1.13000   1
   3  -6 -10 4.35000 0.76000   1
  -3   6  10 3.74000 1.08000   1
   0   3  11 18.0900 1.42000   1
   0   3  11 20.0900 1.81000   1
   0  -3 -11 19.4300 1.65000   1
   0  -3 -11 19.4400 1.57000   1
   1   2  11 7.42000 0.82000   1
   1   2  11 7.59000 1.28000   1
  -1  -2 -11 6.61000 0.90000   1
  -1  -2 -11 6.90000 1.24000   1
  -9  -5   3 8.58000 1.17000   1
   9   5  -3 7.53000 1.21000   1
   9   5  -3 7.20000 1.26000   1
  -5   3  12 1.36000 0.77000   1
   5  -3 -12 1.89000 0.92000   1
   5  -3 -12 0.81000 0.41000   1
   6   8   0 14.7100 1.61000   1
   6   8   0 13.0000 1.67000   1
  -6  -8   0 14.8600 1.65000   1
  -8  -7   7 11.9700 1.87000   1
   8   7  -7 13.1000 1.93000   1
   0   8   7 9.31000 1.19000   1
   0  -8  -7 10.0700 1.40000   1
   0   8   7 6.95000 1.32000   1
   0  -8  -7 6.43000 1.28000   1
   1  12  -1 5.59000 0.88000   1
   1  12  -1 4.71000 1.13000   1
  -5  12   1 -1.1400 0.56000   1
  -5  12   1 0.22000 0.39000   1
   5 -12  -1 1.74000 0.83000   1
 -10   6  -1 0.67000 0.38000   1
 -10   6  -1 -0.4000 0.39000   1
 -11   2   4 14.5700 0.99000   1
  11  -2  -4 17.4200 1.51000   1
 -11   2   4 15.3100 1.24000   1
  -1  10   5 2.82000 0.68000   1
   1 -10  -5 5.88000 1.04000   1
  -1  10   5 1.44000 1.07000   1
  -6   8   8 4.36000 0.58000   1
  -6   8   8 5.93000 1.00000   1
   6  -8  -8 4.18000 1.21000   1
  -5 -10   8 32.9700 2.99000   1
   5  10  -8 34.6200 3.01000   1
  -4  -8  12 0.71000 0.99000   1
   4   8 -12 0.45000 0.93000   1
   4   8 -12 1.04000 0.83000   1
   4   8 -12 -0.2000 0.85000   1
 -10   5   7 1.32000 0.45000   1
  10  -5  -7 1.58000 0.79000   1
   0  12  -8 0.73000 0.82000   1
   0  12  -8 1.15000 0.79000   1
   0 -12   8 0.46000 0.61000   1
   0   4 -13 7.66000 1.41000   1
   0   4 -13 9.72000 1.04000   1
   0  -4  13 8.31000 1.34000   1
  10   3  -7 6.52000 1.21000   1
  10   3  -7 9.92000 1.64000   1
 -10  -3   7 9.14000 1.35000   1
  -8   9  -4 6.42000 0.86000   1
  -4   8 -10 1.55000 0.67000   1
  -4   8 -10 0.55000 0.36000   1
   4  -8  10 -0.4600 0.46000   1
  10  -7  -4 0.32000 0.53000   1
  -2   0  13 2.70000 1.02000   1
   2   0 -13 1.00000 0.86000   1
   2   0 -13 7.40000 1.09000   1
   2  12  -3 0.48000 0.73000   1
   2  12  -3 1.00000 0.70000   1
  -4  12  -6 37.7900 2.82000   1
  -4  12  -6 37.7700 2.25000   1
   9   0   3 1.79000 0.46000   1
   9   0   3 3.18000 0.78000   1
  -9   0  -3 0.85000 0.82000   1
  11  -3  -4 0.18000 0.61000   1
 -11   3   4 0.91000 0.47000   1
 -11   3   4 0.60000 0.40000   1
   8  -4   6 9.90000 1.00000   1
  -8   4  -6 12.4400 1.28000   1
   3  11  -1 1.89000 0.90000   1
   3  11  -1 1.24000 0.76000   1
  -1  -1  13 1.47000 1.04000   1
   1   1 -13 4.16000 0.95000   1
   1   1 -13 4.39000 0.86000   1
   4  11  -4 0.24000 0.77000   1
   4  11  -4 1.53000 1.00000   1
   1 -12   8 0.48000 0.50000   1
  -1  12  -8 3.72000 0.96000   1
  -1  12  -8 1.15000 0.72000   1
  -3  12  -7 22.0800 1.56000   1
  -3  12  -7 26.0400 2.07000   1
   3 -12   7 21.0700 1.29000   1
   6  -8   8 1.66000 0.42000   1
  -6   8  -8 1.44000 0.88000   1
 -11   2   5 0.73000 0.42000   1
 -11   2   5 0.55000 0.60000   1
  11  -2  -5 1.58000 0.61000   1
   8  -5   6 11.2800 1.18000   1
  -8   5  -6 11.1900 1.36000   1
  -3   3  12 11.6000 1.35000   1
  -3   3  12 9.84000 1.26000   1
   3  -3 -12 8.41000 1.36000   1
   3  -3 -12 6.51000 1.02000   1
   0   1  12 17.6500 1.82000   1
   0   1  12 15.7400 1.22000   1
   0  -1 -12 15.8100 1.55000   1
   0  -1 -12 18.4100 1.76000   1
   1  10 -11 4.17000 0.97000   1
   1  10 -11 2.38000 1.16000   1
  -1 -10  11 5.08000 1.07000   1
   9  -3 -10 0.52000 0.93000   1
  -9   3  10 1.30000 0.68000   1
   2  -3  12 6.91000 0.60000   1
  -2   3 -12 8.19000 1.24000   1
  -2   3 -12 7.91000 0.78000   1
   2  -3  12 11.0500 1.32000   1
  -7   9  -6 12.1800 1.38000   1
 -10   7   0 6.82000 0.68000   1
 -10   7   0 6.13000 0.65000   1
  10   1  -9 9.82000 1.64000   1
 -10  -1   9 13.3800 1.60000   1
  11  -3  -3 18.5600 1.16000   1
 -11   3   3 16.4000 1.28000   1
 -11   3   3 18.7600 1.22000   1
   8   7  -4 48.2400 4.16000   1
   8   7  -4 44.7900 3.59000   1
  -8   8  -5 2.65000 0.71000   1
   5   8   2 6.63000 1.12000   1
  -5  -8  -2 2.99000 1.27000   1
   5   8   2 6.39000 1.05000   1
   0  -5  13 2.34000 0.92000   1
   0   5 -13 0.30000 0.63000   1
   0   5 -13 2.54000 1.04000   1
 -11   2   3 17.1400 1.33000   1
 -11   2   3 12.7200 0.94000   1
  11  -2  -3 17.1600 1.25000   1
   0   3 -13 0.19000 0.78000   1
   0  -3  13 -0.1500 0.79000   1
   0   3 -13 0.45000 0.54000   1
 -10   6   6 14.4100 1.05000   1
  10  -6  -6 18.0900 1.69000   1
   0   6   9 9.22000 1.28000   1
   0  -6  -9 9.24000 1.29000   1
   0  -6  -9 8.53000 1.34000   1
   0   6   9 8.36000 1.22000   1
   1  -2 -12 41.3500 2.74000   1
  -1   2  12 36.8400 2.52000   1
  -1   2  12 37.3100 2.84000   1
   1  -2 -12 34.3600 2.71000   1
  -7   4  11 7.07000 1.04000   1
   7  -4 -11 8.03000 1.49000   1
   6   3   6 7.14000 0.90000   1
  -6  -3  -6 8.97000 1.42000   1
   6   3   6 8.40000 1.34000   1
   2  -8  -8 -0.2800 0.73000   1
  -2   8   8 0.17000 0.51000   1
   2  -8  -8 -0.0400 0.53000   1
  -2   8   8 0.51000 0.73000   1
  11  -1  -4 14.9400 1.34000   1
 -11   1   4 12.8400 1.20000   1
 -11   1   4 9.87000 0.94000   1
  -8   7   8 10.8400 0.80000   1
   8  -7  -8 11.9000 1.58000   1
   9  -6   4 2.35000 0.48000   1
  -9   6  -4 1.41000 0.70000   1
  11  -1  -5 3.42000 0.72000   1
 -11   1   5 2.01000 0.46000   1
 -11   1   5 2.90000 0.68000   1
  -7  10  -5 24.2800 1.98000   1
   8 -10  -3 8.73000 1.13000   1
  -8  10   3 8.81000 0.79000   1
  -8  10   3 7.96000 0.92000   1
 -10   4   8 -0.2200 0.45000   1
  10  -4  -8 1.21000 0.83000   1
  -7  11  -3 24.2100 1.37000   1
  -7  11  -3 21.1400 1.55000   1
  10  -2  -9 0.57000 0.98000   1
 -10   2   9 1.16000 0.75000   1
   6   4 -13 2.23000 0.57000   1
  -6  -4  13 2.18000 0.95000   1
   6   4 -13 0.21000 0.85000   1
   6  -6 -10 4.37000 1.26000   1
  -6   6  10 4.68000 0.72000   1
  -6   6  10 3.38000 1.18000   1
   2  -7  -9 0.30000 0.87000   1
  -2   7   9 1.06000 0.58000   1
   2  -7  -9 0.11000 0.61000   1
  -2   7   9 1.16000 0.84000   1
   5 -11  -4 1.96000 1.08000   1
  -5  11   4 4.06000 0.86000   1
  -5  11   4 0.98000 0.36000   1
  -7  11   2 2.98000 0.45000   1
  -7  11   2 5.33000 0.75000   1
   7 -11  -2 1.41000 0.97000   1
  -3  12   2 9.89000 0.78000   1
   3 -12  -2 11.7900 1.66000   1
  -3  12   2 10.3800 1.42000   1
 -11   3   5 7.87000 0.84000   1
  11  -3  -5 7.47000 0.99000   1
   2 -13   3 8.72000 0.81000   1
  -2  13  -3 10.7000 1.35000   1
  -2   6 -12 10.3500 1.09000   1
  -2   6 -12 11.9900 1.41000   1
   2  -6  12 9.96000 1.35000   1
  -9   9  -1 0.24000 0.31000   1
  -9   9  -1 -0.1500 0.34000   1
  -9   9   3 23.4200 1.52000   1
   9  -9  -3 26.8500 1.90000   1
  -4 -11   7 4.82000 1.24000   1
   4  11  -7 4.69000 1.24000   1
   2   7 -13 1.47000 0.64000   1
  -2  -7  13 1.53000 0.93000   1
   2   7 -13 0.53000 0.95000   1
   8  -6  -9 5.98000 1.28000   1
  -8   6   9 5.40000 0.69000   1
   7  -2 -12 1.79000 1.15000   1
  -7   2  12 2.19000 0.86000   1
  -8  -1  12 2.54000 1.01000   1
   8   1 -12 0.80000 1.09000   1
   2 -13   4 11.3300 0.89000   1
  -2  13  -4 11.3400 1.20000   1
  -8  -6   1 11.3800 1.28000   1
   8   6  -1 8.83000 1.47000   1
   8   6  -1 12.5200 1.43000   1
   0  10 -11 28.3900 2.59000   1
   0 -10  11 28.9600 2.06000   1
   0  10 -11 28.6100 1.99000   1
   0  10 -11 29.5500 2.67000   1
  -6  12  -1 10.4200 0.90000   1
  -6  12  -1 9.93000 1.03000   1
   7   5 -12 12.7600 1.89000   1
  -7  -5  12 9.81000 1.53000   1
   7   5 -12 12.6700 1.65000   1
   7   5 -12 12.3200 1.12000   1
   4  10   0 6.07000 1.43000   1
   4  10   0 7.57000 1.08000   1
  -2 -10  11 2.44000 0.91000   1
   2  10 -11 1.08000 0.88000   1
   2  10 -11 0.09000 0.93000   1
   9  -2   4 8.24000 1.10000   1
  -9   2  -4 5.77000 1.13000   1
  -8   3  -6 3.27000 0.85000   1
   8  -3   6 1.82000 0.67000   1
   8  -3 -11 9.08000 1.57000   1
  -8   3  11 7.38000 0.97000   1
  -9   6   8 0.03000 0.35000   1
   9  -6  -8 0.37000 0.85000   1
   4  -1 -13 51.1500 3.91000   1
   4  -1 -13 47.4000 2.83000   1
  -4   1  13 44.1500 3.34000   1
  -4  -9  -2 0.51000 1.07000   1
   4   9   2 3.28000 0.94000   1
   4   9   2 2.67000 1.04000   1
   8   0   5 3.63000 0.93000   1
  -8   0  -5 4.43000 0.99000   1
  -2 -12   7 9.13000 1.25000   1
   2  12  -7 12.4500 1.44000   1
  -7  -1  -6 0.23000 0.85000   1
   7   1   6 2.76000 0.93000   1
 -10  -3   3 18.8400 1.56000   1
  10   3  -3 24.2000 2.06000   1
  10   3  -3 20.5700 1.57000   1
  10   3  -3 18.9600 2.07000   1
  -4  12   2 3.81000 0.58000   1
  -4  12   2 5.71000 1.08000   1
   4 -12  -2 6.42000 1.26000   1
  10  -4   2 0.37000 0.41000   1
 -10   4  -2 0.71000 0.56000   1
  -1 -12   8 40.8800 2.79000   1
   1  12  -8 34.0200 2.96000   1
   1  12  -8 40.4800 3.61000   1
   2  -9  11 2.31000 0.72000   1
  -2   9 -11 4.48000 0.74000   1
  -2   9 -11 3.62000 0.52000   1
  -2   9 -11 3.73000 1.11000   1
  -6  12  -2 58.2500 3.63000   1
  -6  12  -2 56.3800 3.41000   1
   1  11   2 3.56000 0.73000   1
   1  11   2 0.81000 1.00000   1
   6   0 -13 26.2500 2.54000   1
   6   0 -13 25.8000 1.52000   1
  -6   0  13 27.3400 2.29000   1
   3   7 -13 12.2600 1.49000   1
   3   7 -13 15.3100 1.51000   1
   3   7 -13 13.2300 1.75000   1
  -3  -7  13 13.7800 1.53000   1
   4  -5 -11 5.04000 1.19000   1
  -4   5  11 1.90000 1.18000   1
  -4   5  11 6.39000 0.85000   1
   4  -5 -11 7.50000 0.83000   1
   8   2 -12 4.08000 1.35000   1
  -8  -2  12 5.12000 1.13000   1
   8   2 -12 3.10000 0.49000   1
  -2  11   4 1.15000 0.89000   1
  -2  11   4 0.73000 0.45000   1
   2 -11  -4 -0.3500 0.78000   1
  -1  13  -4 26.4100 2.27000   1
   1 -13   4 24.4500 1.77000   1
   3  -1  11 11.8800 1.43000   1
  -3   1 -11 11.6200 0.89000   1
  -3   1 -11 14.5600 1.79000   1
  -3 -11   9 12.4700 1.60000   1
   3  11  -9 11.9200 1.67000   1
  -8   6  -6 1.55000 0.85000   1
   8  -6   6 3.01000 0.47000   1
 -11   4   3 5.10000 0.52000   1
  11  -4  -3 6.14000 0.73000   1
 -11   4   3 6.20000 0.68000   1
 -11   4   4 -0.4300 0.35000   1
  11  -4  -4 0.32000 0.42000   1
   9   1 -11 15.1700 1.96000   1
  -9  -1  11 17.0900 1.68000   1
   0 -11  10 4.43000 0.83000   1
   0  11 -10 5.13000 0.85000   1
   0  11 -10 5.43000 1.31000   1
   4  10 -10 3.35000 1.02000   1
   4  10 -10 4.75000 1.25000   1
  -4 -10  10 6.55000 1.32000   1
  10  -3   2 3.12000 0.61000   1
 -10   3  -2 3.06000 0.66000   1
  -9   0  11 6.45000 1.16000   1
   9   0 -11 9.05000 1.55000   1
   0   9   6 2.88000 1.07000   1
   0  -9  -6 2.82000 1.03000   1
   0   9   6 2.99000 0.91000   1
   0  -9  -6 4.93000 0.88000   1
   1  11 -10 3.68000 0.82000   1
  -1 -11  10 2.55000 0.82000   1
   1  11 -10 2.64000 1.22000   1
   1   4  10 2.30000 0.71000   1
   1   4  10 3.31000 0.95000   1
  -1  -4 -10 2.28000 0.81000   1
  -1  -4 -10 3.11000 0.73000   1
  -6   9   7 10.4700 0.91000   1
   6  -9  -7 11.8700 1.68000   1
  -6   9   7 12.6900 1.39000   1
   5 -10   8 1.15000 0.38000   1
  -5  10  -8 1.95000 0.86000   1
  -8  -7   8 4.29000 1.29000   1
   8   7  -8 8.03000 1.56000   1
   8   7  -8 8.12000 1.34000   1
  -3  13  -3 21.3800 1.79000   1
  -3  13  -3 19.3500 1.83000   1
  -1   4  11 5.11000 0.97000   1
   1  -4 -11 7.98000 1.21000   1
   1  -4 -11 9.37000 1.00000   1
  -1   4  11 7.49000 1.16000   1
  -4  10   6 0.72000 0.40000   1
   4 -10  -6 0.26000 0.95000   1
  -4  10   6 2.14000 0.89000   1
   5  -5 -11 8.57000 1.32000   1
   5  -5 -11 5.73000 0.61000   1
  -5   5  11 7.06000 1.29000   1
  -5   5  11 6.75000 1.02000   1
   6   9  -9 14.5100 1.91000   1
  -6  -9   9 14.8000 1.71000   1
   1  -8  12 6.33000 1.07000   1
  -1   8 -12 8.46000 0.98000   1
  -1   8 -12 6.96000 1.46000   1
 -11   1   3 0.64000 0.39000   1
  11  -1  -3 -0.5500 0.51000   1
 -11   1   3 0.41000 0.55000   1
   6   9  -2 -0.1700 0.59000   1
   6   9  -2 0.24000 0.72000   1
  -5  12  -5 42.1800 3.02000   1
  -5  12  -5 39.2300 2.34000   1
  -1  13  -3 8.03000 1.22000   1
   1 -13   3 6.21000 0.93000   1
  -9   7   7 0.53000 0.38000   1
   9  -7  -7 0.44000 0.83000   1
  11  -2  -6 31.6900 2.27000   1
 -11   2   6 26.4500 1.90000   1
  -2  -1 -11 1.45000 0.88000   1
  -2  -1 -11 0.29000 0.49000   1
   2   1  11 0.16000 0.53000   1
   2   1  11 6.87000 1.00000   1
  -2  13  -2 15.7900 1.60000   1
   2 -13   2 11.7600 1.02000   1
   6   7   2 2.38000 0.98000   1
  -6  -7  -2 2.34000 0.92000   1
   6   7   2 1.95000 0.92000   1
   8   0 -12 16.6500 1.95000   1
  -8   0  12 11.0800 1.57000   1
  -6   3  12 14.5300 1.55000   1
   6  -3 -12 17.9100 1.88000   1
  -4  10  -9 5.43000 0.86000   1
   4 -10   9 0.72000 0.38000   1
 -11   3   2 3.64000 0.61000   1
 -11   3   2 3.10000 0.77000   1
   8   4   2 7.88000 1.06000   1
   8   4   2 11.9100 1.52000   1
  -8  -4  -2 12.0200 1.20000   1
   8   3   3 14.5200 1.20000   1
   8   3   3 12.8500 1.69000   1
  -8  -3  -3 16.1300 1.59000   1
  -4  11  -8 9.83000 1.34000   1
  -4  11  -8 7.94000 0.74000   1
   4 -11   8 6.50000 0.63000   1
 -11   1   6 2.56000 0.92000   1
  11  -1  -6 4.28000 0.84000   1
  -2  -9  12 11.7100 1.66000   1
   2   9 -12 12.9300 1.79000   1
   2   9 -12 12.3000 1.50000   1
   2   9 -12 16.1900 1.54000   1
   1   9 -12 1.02000 1.01000   1
   1   9 -12 2.05000 0.65000   1
  -1  -9  12 2.13000 0.96000   1
   1   9 -12 2.28000 1.09000   1
   8  -8  -7 13.6500 1.67000   1
  -8   8   7 14.1200 1.48000   1
  -8   8   7 12.5300 0.91000   1
  -6  12   0 19.3300 1.29000   1
  -6  12   0 20.6800 1.67000   1
   6 -12   0 19.1000 1.95000   1
 -10  -1   0 12.7500 1.40000   1
  10   1   0 14.5000 1.66000   1
  10   1   0 17.7700 1.61000   1
   5  -1 -13 0.85000 0.35000   1
  -5   1  13 0.19000 0.82000   1
   5  -1 -13 1.44000 0.92000   1
  -1   0 -12 18.5500 1.42000   1
   1   0  12 20.4400 1.99000   1
  -1   0 -12 20.7600 1.97000   1
   1   0  12 18.1000 1.25000   1
   2  -9  -7 11.4900 1.16000   1
  -2   9   7 9.01000 1.02000   1
   2  -9  -7 12.2800 1.50000   1
  -2   9   7 10.1900 1.33000   1
   2   3  10 5.38000 0.79000   1
   2   3  10 7.06000 1.26000   1
  -2  -3 -10 6.05000 1.11000   1
  -2  -3 -10 5.81000 0.78000   1
   3  -1 -13 2.87000 0.91000   1
   3  -1 -13 0.60000 0.54000   1
  -3   1  13 -0.3600 0.66000   1
   7  -1   7 25.0600 2.12000   1
  -7   1  -7 21.3300 1.95000   1
   8   6 -10 3.10000 1.32000   1
  -8  -6  10 2.67000 1.19000   1
   8   6 -10 3.62000 1.36000   1
   7   7   0 16.7400 1.77000   1
   7   7   0 14.5100 1.70000   1
  -7  -7   0 10.9400 1.53000   1
  -9   8  -3 1.36000 0.58000   1
  -2  12  -8 18.6000 1.50000   1
  -2  12  -8 20.0300 1.87000   1
   2 -12   8 18.6000 1.35000   1
 -10   5  -2 13.2800 1.11000   1
  10  -5   2 11.1200 0.92000   1
  -3  13  -2 0.09000 0.72000   1
  -2  12   2 35.1500 2.69000   1
   2 -12  -2 37.9500 3.15000   1
  -2  12   2 32.4200 2.18000   1
  -9   5   9 0.66000 0.46000   1
   9  -5  -9 -0.1100 0.92000   1
   4  11  -3 1.59000 1.00000   1
   4  11  -3 0.57000 0.82000   1
  -1  -7  13 11.3000 1.36000   1
   1   7 -13 15.0200 1.84000   1
   1   7 -13 12.5500 1.36000   1
   0  -6  13 2.61000 0.95000   1
   0   6 -13 4.18000 1.07000   1
   0   6 -13 1.77000 0.78000   1
  -7  -8   9 2.46000 1.32000   1
   7   8  -9 3.87000 1.26000   1
   0 -11  -3 2.48000 1.08000   1
   0  11   3 5.69000 0.82000   1
   0  11   3 1.86000 1.00000   1
   2  11   1 0.76000 1.00000   1
   2  11   1 2.79000 0.81000   1
   1 -13   5 5.98000 0.67000   1
  -1  13  -5 6.11000 1.15000   1
   0  -2  13 11.4200 1.50000   1
   0   2 -13 11.4100 1.31000   1
   0   2 -13 9.46000 1.42000   1
 -11   2   2 7.88000 0.75000   1
  -5  11  -7 7.35000 0.60000   1
  -5  11  -7 11.4800 1.30000   1
  -3  13  -4 1.32000 0.70000   1
  -3  13  -4 1.29000 0.89000   1
 -10  -3   8 21.3600 2.16000   1
  10   3  -8 20.2000 2.36000   1
  10   3  -8 21.6200 2.01000   1
   8   5 -11 10.2200 1.07000   1
   8   5 -11 11.5700 1.63000   1
   8   5 -11 11.0800 1.67000   1
  -8  -5  11 13.1300 1.70000   1
  -2  13  -5 3.92000 1.03000   1
   2 -13   5 4.67000 0.60000   1
  -2  13  -5 3.64000 0.86000   1
  10   2  -1 29.6000 2.56000   1
  10   2  -1 32.3200 2.10000   1
  10   2  -1 32.1700 2.44000   1
 -10  -2   1 30.1500 2.32000   1
 -11   0   5 7.01000 1.07000   1
 -11   0   5 7.55000 0.79000   1
  11   0  -5 9.93000 1.01000   1
  -8  10  -3 2.11000 0.70000   1
  -8  10  -3 3.85000 0.50000   1
  -9  -4  10 38.8100 2.90000   1
   9   4 -10 32.8900 3.23000   1
   9   4 -10 35.7300 3.32000   1
   5  10  -2 -0.1100 0.83000   1
   5  10  -2 1.93000 1.02000   1
   5   6 -13 1.74000 1.04000   1
  -5  -6  13 2.25000 1.11000   1
   5   6 -13 1.62000 0.72000   1
   5   6 -13 0.73000 1.00000   1
   2  -2  12 14.8100 0.94000   1
  -2   2 -12 15.1000 1.13000   1
  -2   2 -12 12.6700 1.62000   1
   2  -2  12 17.0600 1.70000   1
   3 -10  -6 4.59000 1.00000   1
  -3  10   6 -0.1500 0.95000   1
  -3  10   6 1.15000 0.51000   1
  -5  -2  -8 0.54000 0.46000   1
   5   2   8 0.92000 0.90000   1
   5   2   8 0.92000 0.46000   1
  -5  -2  -8 1.14000 0.86000   1
  -2   6  10 2.16000 0.97000   1
  -2   6  10 4.11000 0.77000   1
   2  -6 -10 2.32000 1.01000   1
   2  -6 -10 3.24000 0.73000   1
   2  12  -2 6.99000 1.33000   1
   2  12  -2 6.49000 0.91000   1
   2  10   3 0.58000 0.71000   1
  -2 -10  -3 -0.6400 0.63000   1
   2  10   3 -0.7000 0.80000   1
  -5  10   6 10.3400 0.74000   1
   5 -10  -6 9.40000 1.58000   1
  -5  10   6 8.40000 1.36000   1
  10   2  -9 17.5900 1.74000   1
  10   2  -9 16.2700 2.04000   1
 -10  -2   9 15.1300 1.63000   1
   3   7   6 7.34000 1.21000   1
   3   7   6 7.54000 1.20000   1
  -3  -7  -6 6.95000 1.02000   1
  -3  -7  -6 8.48000 1.42000   1
   4   2   9 1.86000 1.10000   1
   4   2   9 4.58000 0.62000   1
  -4  -2  -9 3.45000 0.68000   1
  -4  -2  -9 1.35000 1.06000   1
 -11   4   2 5.63000 0.67000   1
 -11   4   2 6.27000 0.65000   1
  -3   8 -11 1.68000 0.99000   1
   3  -8  11 0.48000 0.59000   1
  -3   8 -11 1.45000 0.55000   1
   3   6   7 6.95000 1.12000   1
   3   6   7 5.93000 1.21000   1
  -3  -6  -7 10.6900 1.44000   1
  -3  -6  -7 7.58000 0.95000   1
  -5   0  -9 7.80000 1.36000   1
  -5   0  -9 6.55000 0.68000   1
   5   0   9 9.61000 1.31000   1
  -9  -2  11 2.79000 1.12000   1
   9   2 -11 3.46000 1.28000   1
   4   6   6 4.94000 1.00000   1
  -4  -6  -6 2.56000 0.76000   1
  -4  -6  -6 4.86000 1.04000   1
   4   6   6 8.60000 1.14000   1
  11  -4  -5 5.18000 1.00000   1
 -11   4   5 3.05000 0.61000   1
 -11   0   4 0.05000 0.72000   1
 -11   0   4 0.38000 0.36000   1
  11   0  -4 0.48000 0.69000   1
  11   0  -4 -0.1300 0.61000   1
  -6  12  -3 0.56000 0.37000   1
  -6  12  -3 -0.7100 0.45000   1
 -10   7   5 10.9600 0.84000   1
  10  -7  -5 13.3100 1.25000   1
  11  -3  -6 16.0700 1.67000   1
 -11   3   6 14.5500 1.25000   1
   3  -5 -11 1.45000 0.83000   1
  -3   5  11 -0.3800 0.63000   1
   3  -5 -11 0.76000 0.50000   1
  -3   5  11 1.45000 0.72000   1
  -8   5  10 3.40000 0.67000   1
   8  -5 -10 5.09000 1.21000   1
   9  -1 -11 1.87000 1.09000   1
  -9   1  11 1.00000 0.71000   1
  -7  10   5 6.38000 1.17000   1
   7 -10  -5 8.22000 1.34000   1
   8   7  -3 2.05000 1.07000   1
   8   7  -3 1.98000 1.17000   1
  -1 -10  -4 12.1400 1.30000   1
   1  10   4 11.4200 1.60000   1
  -1 -10  -4 12.7100 1.54000   1
   1  10   4 16.0000 1.46000   1
  -9  -5   9 7.75000 1.55000   1
   9   5  -9 8.96000 1.74000   1
   9   5  -9 11.2300 1.67000   1
  -8  -3  12 13.4600 1.76000   1
   8   3 -12 16.8600 1.96000   1
   8   3 -12 13.9300 0.96000   1
   7  -8   7 0.88000 0.40000   1
  -7   8  -7 0.62000 0.65000   1
  -5   5 -10 10.0700 1.34000   1
   5  -5  10 7.69000 1.20000   1
  -9  -5   2 14.8700 1.44000   1
   9   5  -2 14.6400 1.84000   1
   9   5  -2 11.4700 1.69000   1
  -2   3  12 5.47000 0.94000   1
  -2   3  12 6.43000 0.94000   1
   2  -3 -12 6.94000 0.86000   1
   2  -3 -12 8.42000 1.20000   1
   7   8  -2 14.1000 1.67000   1
   7   8  -2 14.8000 1.85000   1
  10   0   1 12.4400 1.11000   1
  10   0   1 12.0300 1.23000   1
 -10   0  -1 9.64000 1.15000   1
  10  -2   2 47.5100 3.13000   1
 -10   2  -2 47.2100 3.13000   1
  -1  13  -2 53.0900 3.81000   1
  -1  13  -2 50.4700 2.95000   1
  -9  -3  -1 2.04000 0.78000   1
   9   3   1 -0.0200 0.74000   1
   9   3   1 0.32000 0.56000   1
  -1  11 -10 3.67000 0.93000   1
   1 -11  10 5.92000 0.79000   1
  -1  11 -10 6.63000 1.30000   1
  -5   4 -10 4.86000 1.31000   1
   5  -4  10 5.87000 1.09000   1
 -11   0   6 0.83000 0.69000   1
  11   0  -6 1.24000 0.66000   1
 -10   3   9 0.62000 0.56000   1
  10  -3  -9 -0.1100 0.92000   1
 -10   7  -1 5.53000 0.63000   1
 -10   7  -1 3.79000 0.48000   1
  -6  10  -7 0.64000 0.80000   1
   4   7   5 6.91000 1.11000   1
  -4  -7  -5 7.63000 1.19000   1
   4   7   5 5.15000 1.18000   1
  -3  11  -9 1.12000 0.50000   1
  -3  11  -9 -0.8700 0.83000   1
   3 -11   9 0.74000 0.47000   1
   5  10  -9 29.4400 2.49000   1
  -5 -10   9 27.6400 2.85000   1
   5 -12  -2 10.6000 1.63000   1
  -5  12   2 10.9800 1.39000   1
   9   2   2 1.10000 0.96000   1
  -9  -2  -2 2.04000 0.71000   1
   9   2   2 0.54000 0.71000   1
   2  11 -10 1.76000 0.81000   1
   2  11 -10 2.10000 1.13000   1
  -2 -11  10 2.50000 0.98000   1
   0   5  10 9.04000 1.30000   1
   0  -5 -10 10.6700 1.22000   1
   0  -5 -10 13.9400 1.44000   1
   0   5  10 9.12000 1.17000   1
   8  -2   6 36.6200 2.57000   1
  -8   2  -6 37.3200 2.76000   1
  -7   7   9 2.15000 0.62000   1
  -7   7   9 1.33000 0.89000   1
   7  -7  -9 2.87000 1.10000   1
   7   4   4 31.5600 2.13000   1
   7   4   4 29.2500 2.58000   1
  -7  -4  -4 30.0100 2.35000   1
  -6   5  -9 3.16000 1.05000   1
   6  -5   9 4.25000 0.76000   1
  -4 -11   8 -0.8100 0.95000   1
   4  11  -8 2.07000 0.92000   1
   2  -7  12 2.57000 0.87000   1
  -2   7 -12 3.39000 1.14000   1
  -2   7 -12 4.28000 0.61000   1
   4   0  10 0.41000 0.78000   1
  -4   0 -10 -0.0500 0.40000   1
  -4   0 -10 1.06000 0.83000   1
  -8  -5  -1 1.40000 0.83000   1
   8   5   1 0.06000 0.77000   1
   8   5   1 0.25000 0.89000   1
   8   2   4 15.7900 1.77000   1
  -8  -2  -4 12.1800 1.57000   1
   8   2   4 15.6900 1.30000   1
  -4  -7  13 21.5600 2.32000   1
   4   7 -13 21.5200 1.93000   1
   4   7 -13 22.7300 2.16000   1
   4   7 -13 26.0900 2.23000   1
   0  13  -4 0.68000 0.89000   1
   0 -13   4 1.10000 0.58000   1
  -9   7  -4 8.16000 1.01000   1
   7   5   3 15.3700 1.70000   1
  -7  -5  -3 16.9000 1.69000   1
   7   5   3 13.6400 1.35000   1
  -1  10 -11 27.8100 2.42000   1
  -1  10 -11 20.5500 1.45000   1
   1 -10  11 23.5300 1.76000   1
  -1  10 -11 25.5800 2.15000   1
   6   5 -13 3.63000 0.80000   1
   6   5 -13 7.10000 1.25000   1
   6   5 -13 7.41000 1.29000   1
  -6  -5  13 3.77000 1.18000   1
  -3  -9  12 2.75000 1.05000   1
   3   9 -12 2.90000 1.06000   1
   3   9 -12 0.42000 0.79000   1
   3   9 -12 2.14000 1.04000   1
   6  -4   9 0.50000 0.72000   1
  -6   4  -9 1.47000 0.83000   1
   0  -9  12 3.61000 1.05000   1
   0   9 -12 5.81000 1.12000   1
   0   9 -12 4.57000 0.70000   1
   0   9 -12 7.24000 1.29000   1
   0  12   1 0.88000 0.55000   1
   0  12   1 0.99000 0.91000   1
   6   8 -11 11.6400 1.66000   1
   6   8 -11 8.79000 1.56000   1
   6   8 -11 9.00000 1.48000   1
  -6  -8  11 14.5000 1.88000   1
   4   5   7 2.56000 0.71000   1
  -4  -5  -7 4.18000 0.70000   1
   4   5   7 3.93000 1.01000   1
  -4  -5  -7 3.69000 1.09000   1
   3  10 -11 12.4400 1.68000   1
   3  10 -11 13.4300 1.59000   1
  -3 -10  11 10.6500 1.65000   1
  -6   5  11 2.53000 0.71000   1
   6  -5 -11 3.09000 1.02000   1
  -3  13  -1 8.08000 1.10000   1
  -9   9  -2 10.8200 0.79000   1
  -9   9  -2 11.6800 0.99000   1
  -9   9   4 0.77000 0.53000   1
   9  -9  -4 0.79000 0.69000   1
   6   0   8 -0.1900 0.82000   1
  -6   0  -8 1.21000 0.86000   1
  -2  -7  -7 1.15000 0.87000   1
   2   7   7 1.56000 0.72000   1
   2   7   7 0.05000 0.74000   1
  -2  -7  -7 -0.7400 0.60000   1
 -10   8   2 1.06000 0.33000   1
 -10   8   2 0.18000 0.40000   1
  10  -8  -2 0.87000 0.58000   1
   7  -8  -8 1.45000 1.05000   1
  -7   8   8 2.01000 0.54000   1
  -7   8   8 0.99000 0.76000   1
 -11   5   3 0.75000 0.41000   1
  11  -5  -3 1.06000 0.49000   1
 -11   5   3 0.30000 0.42000   1
  -8   1  12 14.0200 1.66000   1
   8  -1 -12 14.5000 2.03000   1
   0 -13   5 38.8400 2.71000   1
   0  13  -5 34.4500 2.87000   1
  -2  13  -1 19.7100 1.82000   1
  -2  13  -1 17.2200 1.18000   1
   9   6  -6 1.64000 1.16000   1
  -9  -6   6 3.63000 1.12000   1
   9   6  -6 2.95000 1.25000   1
   1   0 -13 8.26000 1.12000   1
   1   0 -13 9.01000 1.13000   1
  -1   0  13 8.58000 1.29000   1
  -3  10 -10 -0.6400 0.77000   1
   3 -10  10 0.13000 0.36000   1
  -3  10 -10 1.07000 0.61000   1
  -3  10 -10 -0.3500 0.33000   1
   9  -8  -6 -0.2600 0.73000   1
  -9   8   6 0.31000 0.39000   1
  -9   8   6 3.24000 0.68000   1
 -11   1   2 19.4000 1.41000   1
  11  -1  -2 20.3300 1.59000   1
  -6  12   1 9.33000 1.14000   1
  -6  12   1 10.2400 0.86000   1
   6 -12  -1 11.0500 1.33000   1
   6 -11  -4 30.8200 2.82000   1
  -6  11   4 27.2900 2.44000   1
   7   2 -13 18.7400 1.27000   1
   7   2 -13 20.7700 2.29000   1
  -7  -2  13 23.6600 2.08000   1
   5  -6  10 16.1400 1.42000   1
  -5   6 -10 18.3500 1.82000   1
  -8   7  -6 -0.7000 0.70000   1
   8  -7   6 0.29000 0.28000   1
   1  12   0 4.73000 0.88000   1
   1  12   0 3.97000 1.23000   1
   3  10   2 -0.0100 0.74000   1
   3  10   2 0.56000 0.72000   1
   5  -9   9 11.5000 0.97000   1
  -5   9  -9 8.39000 1.35000   1
  -5   9  -9 7.76000 0.76000   1
 -10   8   1 0.66000 0.34000   1
 -10   8   1 0.41000 0.34000   1
  10  -8  -1 0.43000 0.47000   1
  -6  -7  12 24.7900 2.63000   1
   6   7 -12 25.4900 2.05000   1
   6   7 -12 25.2000 2.38000   1
   6   7 -12 24.8900 2.43000   1
  -4  13  -2 30.7000 2.52000   1
  -4  13  -2 36.9200 2.43000   1
  10  -6   2 5.65000 0.56000   1
 -10   6  -2 6.42000 0.77000   1
  -3  -8  -5 15.1900 1.58000   1
   3   8   5 13.6900 1.65000   1
  -3  -8  -5 14.2200 1.55000   1
   3   8   5 14.5600 1.47000   1
  -4  13  -3 5.37000 0.95000   1
  -4  13  -3 6.63000 1.02000   1
  11   0  -3 7.08000 1.32000   1
  11   0  -3 7.03000 1.21000   1
  11   0  -3 11.0100 1.05000   1
 -11   0   3 8.30000 0.85000   1
  -7  11  -4 -0.0900 0.33000   1
  -7  11  -4 0.48000 0.50000   1
  -3  13  -5 30.2700 2.17000   1
  -3  13  -5 28.7700 2.39000   1
   9  -1   4 1.23000 0.75000   1
  -9   1  -4 0.36000 0.72000   1
  11  -5  -4 5.70000 0.71000   1
 -11   5   4 5.32000 0.67000   1
  10   4  -6 6.99000 1.14000   1
 -10  -4   6 4.57000 1.16000   1
  10   4  -6 6.68000 1.31000   1
  11  -1  -7 0.52000 0.72000   1
 -11   1   7 2.57000 0.76000   1
   9   6  -5 20.1000 2.36000   1
   9   6  -5 22.3400 2.17000   1
  -6  -2  -7 0.58000 0.95000   1
   6   2   7 0.67000 0.89000   1
   6   2   7 1.10000 0.45000   1
   1 -13   6 -0.0800 0.41000   1
  -1  13  -6 1.96000 0.87000   1
  -1  13  -6 -0.1800 0.75000   1
   7 -11  -3 2.77000 1.03000   1
  -7  11   3 4.95000 0.92000   1
  -7  11   3 5.47000 0.58000   1
   3   5   8 6.38000 1.12000   1
   3   5   8 5.61000 0.83000   1
  -3  -5  -8 4.03000 0.89000   1
  -3  -5  -8 6.77000 1.15000   1
   0  13  -3 12.5500 1.19000   1
   0  13  -3 18.2800 1.84000   1
  -7  -1  13 0.88000 0.93000   1
   7   1 -13 3.48000 1.17000   1
  10   4  -5 1.20000 0.79000   1
  10   4  -5 2.81000 1.02000   1
 -10  -4   5 2.62000 0.99000   1
  -2 -12   8 0.26000 0.70000   1
   2  12  -8 1.67000 0.93000   1
   6  -6   9 0.97000 0.57000   1
  -6   6  -9 0.81000 0.70000   1
  10   3  -2 4.00000 0.71000   1
 -10  -3   2 6.41000 0.88000   1
  10   3  -2 6.12000 1.03000   1
  10   3  -2 5.68000 1.14000   1
   2   6   8 8.86000 1.32000   1
   2   6   8 9.23000 1.13000   1
  -2  -6  -8 10.5800 1.31000   1
  -2  -6  -8 9.84000 1.25000   1
  -6   1  13 9.40000 1.35000   1
   6  -1 -13 9.48000 1.38000   1
  11  -2  -7 -0.5200 0.63000   1
 -11   2   7 0.55000 0.54000   1
  -4   5 -11 10.0700 1.40000   1
  -4   5 -11 6.27000 0.67000   1
   4  -5  11 8.47000 1.22000   1
  -8  10   4 0.84000 0.65000   1
   8 -10  -4 -0.7500 0.78000   1
   5   8 -12 7.72000 1.52000   1
  -5  -8  12 12.1600 1.66000   1
   5   8 -12 8.46000 1.42000   1
   5   8 -12 6.20000 1.57000   1
  11  -3  -1 10.0700 0.89000   1
 -11   3   1 8.30000 0.81000   1
  -3  -2 -10 2.82000 1.01000   1
   3   2  10 1.75000 0.99000   1
  -3  -2 -10 1.53000 0.51000   1
   3   2  10 1.42000 0.57000   1
 -11   5   2 6.50000 0.69000   1
 -11   5   2 7.15000 0.64000   1
  -7   6  10 13.9700 1.32000   1
   7  -6 -10 16.8000 1.91000   1
   5   6   5 3.98000 0.87000   1
   5   6   5 7.29000 1.15000   1
  -5  -6  -5 3.33000 1.29000   1
  -6  11  -6 21.4000 1.30000   1
  -6  11  -6 24.5600 2.04000   1
  -3 -12   5 19.2700 1.80000   1
   3  12  -5 18.2100 2.02000   1
  10  -8  -3 -0.6300 0.43000   1
 -10   8   3 0.67000 0.42000   1
  -9  -4   0 22.1900 2.03000   1
   9   4   0 23.2300 2.15000   1
   9   4   0 22.1500 1.83000   1
  -2   1  13 13.5800 1.45000   1
   2  -1 -13 9.23000 1.35000   1
   2  -1 -13 7.94000 1.03000   1
  -5   3 -10 5.62000 1.39000   1
   5  -3  10 7.15000 1.05000   1
   9   6  -7 5.61000 1.35000   1
  -9  -6   7 7.49000 1.39000   1
   9   6  -7 7.60000 1.45000   1
  -2  -8  -6 8.16000 1.18000   1
   2   8   6 7.45000 1.16000   1
   2   8   6 6.21000 1.15000   1
  -2  -8  -6 5.08000 1.35000   1
  -4   4 -11 11.9000 0.91000   1
  -4   4 -11 15.1100 1.87000   1
   4  -4  11 14.7500 1.58000   1
   7   7 -11 14.5300 1.35000   1
   7   7 -11 14.6300 1.89000   1
   7   7 -11 12.8600 1.90000   1
  -7  -7  11 14.8400 2.10000   1
   5   9 -11 0.59000 0.92000   1
   5   9 -11 0.10000 0.77000   1
  -5  -9  11 -0.2300 1.03000   1
   5   9 -11 3.74000 1.04000   1
  -9   4  10 6.09000 0.89000   1
   9  -4 -10 4.50000 1.36000   1
  -7  -3  13 17.4200 1.91000   1
   7   3 -13 17.0000 2.12000   1
   7   3 -13 14.7300 1.06000   1
  -8  -7   9 8.31000 1.57000   1
   8   7  -9 5.58000 1.57000   1
   8   7  -9 8.43000 1.56000   1
   7   3   5 19.7200 1.54000   1
   7   3   5 16.8100 1.85000   1
  -7  -3  -5 28.7500 2.26000   1
  -8   9   6 3.64000 0.45000   1
  -8   9   6 4.03000 0.96000   1
   8  -9  -6 4.01000 1.17000   1
  -2  13  -6 18.4900 1.75000   1
  -2  13  -6 20.6000 2.21000   1
   2 -13   6 21.3300 1.39000   1
 -11   4   1 4.21000 0.67000   1
 -11   4   1 3.14000 0.64000   1
  -4   9 -10 39.8300 2.34000   1
  -4   9 -10 44.0700 3.02000   1
   4  -9  10 36.8000 2.37000   1
   5   5   6 1.72000 0.80000   1
  -5  -5  -6 2.13000 0.91000   1
   5   5   6 0.25000 0.62000   1
  -3 -12   6 0.99000 0.90000   1
   3  12  -6 0.13000 0.88000   1
  -4  12  -7 5.38000 1.06000   1
  -4  12  -7 3.67000 0.55000   1
   9   3 -11 1.06000 0.44000   1
   9   3 -11 0.28000 1.14000   1
   9   3 -11 0.88000 1.07000   1
  -9  -3  11 1.50000 1.02000   1
 -11   4   6 0.93000 0.47000   1
  11  -4  -6 0.79000 0.67000   1
   3   3 -14 2.28000 0.84000   1
   3   3 -14 4.01000 0.94000   1
  -3  -3  14 0.58000 0.80000   1
  -1  11   4 4.47000 1.12000   1
   1 -11  -4 3.15000 1.08000   1
   2 -10  -6 8.39000 1.40000   1
  -2  10   6 8.92000 0.93000   1
  -2  10   6 10.0600 1.47000   1
   3  11   0 1.81000 0.75000   1
   3  11   0 1.57000 1.07000   1
  -1   8   8 15.0800 1.47000   1
  -1   8   8 10.6400 1.30000   1
   1  -8  -8 11.6200 1.33000   1
   1  -8  -8 11.4300 1.52000   1
  -6   3  -9 22.8700 2.09000   1
   6  -3   9 19.7500 1.77000   1
   6  -9   8 5.30000 0.61000   1
  -6   9  -8 7.19000 1.09000   1
  -1  12   2 2.13000 1.04000   1
  -1  12   2 3.94000 0.64000   1
   1 -12  -2 3.91000 1.15000   1
  -9  -1  -3 14.2900 1.47000   1
   9   1   3 15.8700 1.19000   1
   9   1   3 13.7700 1.65000   1
  -6  10   6 9.42000 1.22000   1
  -6  10   6 5.93000 0.55000   1
   6 -10  -6 9.24000 1.42000   1
   0   7 -13 3.21000 0.94000   1
   0   7 -13 2.84000 0.95000   1
   0  -7  13 3.85000 0.98000   1
   0  12  -9 7.76000 1.09000   1
   0  12  -9 8.10000 1.57000   1
   0 -12   9 8.88000 1.04000   1
   4   3 -14 -0.4500 0.52000   1
  -4  -3  14 1.48000 0.88000   1
   4   3 -14 1.78000 0.83000   1
   3   4 -14 0.94000 0.79000   1
  -3  -4  14 1.30000 0.94000   1
   3   4 -14 0.57000 0.73000   1
   0  10   5 0.19000 0.63000   1
   0  10   5 -0.3100 0.81000   1
   0 -10  -5 0.62000 0.79000   1
  10  -6  -7 0.15000 0.66000   1
 -10   6   7 0.16000 0.46000   1
 -10   0  10 -0.2100 0.75000   1
  10   0 -10 -0.1400 0.90000   1
  -4  13  -1 19.9900 1.75000   1
  10   4  -7 2.56000 1.41000   1
  10   4  -7 2.98000 0.98000   1
 -10  -4   7 5.23000 1.21000   1
  11   0  -7 -0.7700 0.64000   1
 -11   0   7 -0.3200 0.78000   1
  10  -5  -8 18.9000 2.00000   1
 -10   5   8 15.7500 1.19000   1
  -6  12  -4 7.11000 0.78000   1
  -6  12  -4 8.19000 1.05000   1
   0   1 -13 15.8400 1.37000   1
   0  -1  13 13.4800 1.08000   1
   0  -1  13 19.6800 1.87000   1
   0   1 -13 17.9000 1.67000   1
  -9   2  11 1.34000 0.68000   1
   9  -2 -11 -0.2600 1.00000   1
 -11   2   1 50.5700 3.18000   1
  11  -2  -1 54.6100 3.41000   1
 -11  -1   5 4.05000 1.03000   1
  11   1  -5 1.89000 0.73000   1
  11   1  -5 4.87000 1.02000   1
 -11  -1   5 2.34000 0.56000   1
   4  11  -2 4.91000 1.31000   1
   4  11  -2 4.37000 1.03000   1
   7   6   2 10.8600 1.55000   1
  -7  -6  -2 7.51000 1.21000   1
   7   6   2 10.5600 1.32000   1
  -1   7   9 35.3300 2.64000   1
   1  -7  -9 37.0000 2.86000   1
  -1   7   9 33.7400 2.80000   1
   1  -7  -9 36.7300 2.65000   1
  -4  13  -4 17.8000 1.40000   1
  -4  13  -4 16.6100 1.71000   1
   0  13  -6 17.7800 1.69000   1
   0 -13   6 20.2600 1.49000   1
   3  12  -4 0.36000 0.66000   1
   3  12  -4 2.18000 0.92000   1
   4  -6  11 0.90000 0.57000   1
  -4   6 -11 0.58000 0.88000   1
  -4   6 -11 -0.1900 0.33000   1
 -10   8   0 2.67000 0.40000   1
 -10   8   0 3.47000 0.55000   1
   4   8   4 29.8400 2.45000   1
   4   8   4 28.6500 2.42000   1
  -4  -8  -4 29.8100 2.68000   1
  -1   4 -13 3.36000 1.15000   1
   1  -4  13 7.09000 1.12000   1
  -1   4 -13 1.51000 0.62000   1
   7  -5   8 0.55000 0.53000   1
  -7   5  -8 0.33000 0.77000   1
  10   4  -4 11.5700 1.69000   1
 -10  -4   4 19.4400 1.49000   1
  10   4  -4 15.5800 1.98000   1
  10   4  -4 14.9700 1.49000   1
  -5  -9  -1 12.4200 1.73000   1
   5   9   1 8.51000 1.41000   1
   5   9   1 9.83000 1.41000   1
  -4  -4  14 24.8900 2.17000   1
   4   4 -14 24.4800 2.32000   1
   4   4 -14 24.0700 1.85000   1
  -8   9  -5 3.97000 0.94000   1
 -10   1  10 1.25000 0.76000   1
  10  -1 -10 1.57000 1.07000   1
  11  -5  -5 0.51000 0.54000   1
 -11   5   5 0.27000 0.44000   1
  -1  13  -1 1.26000 0.62000   1
  -1  13  -1 3.85000 0.98000   1
   8   4 -12 10.0100 1.40000   1
   8   4 -12 10.3800 1.66000   1
   8   4 -12 9.08000 0.82000   1
  -8  -4  12 9.37000 1.56000   1
  -3  12  -8 1.77000 0.97000   1
  -3  12  -8 1.16000 0.56000   1
   3 -12   8 2.92000 0.46000   1
  -7   3  12 10.0500 1.36000   1
   7  -3 -12 17.2000 2.00000   1
 -11  -1   6 1.45000 0.79000   1
  11   1  -6 0.27000 0.93000   1
  11   1  -6 0.32000 0.66000   1
   9   6  -4 7.27000 1.42000   1
   9   6  -4 5.92000 1.39000   1
  -7   9   7 -0.9300 0.60000   1
   7  -9  -7 -0.3200 0.84000   1
  -7   9   7 0.08000 0.39000   1
   4   2 -14 8.32000 1.30000   1
   4   2 -14 4.73000 0.80000   1
  -4  -2  14 6.87000 1.26000   1
   2   8 -13 1.17000 0.74000   1
   2   8 -13 -0.6800 0.56000   1
   2   8 -13 -0.4400 0.87000   1
  -2  -8  13 1.38000 0.81000   1
   1  -5  13 11.5600 1.30000   1
  -1   5 -13 10.3800 1.02000   1
  -1   5 -13 11.4200 1.63000   1
   5   7   4 36.2700 2.93000   1
   5   7   4 41.0500 3.14000   1
  -5  -7  -4 40.3700 3.40000   1
  -7  -6  12 5.56000 1.50000   1
   7   6 -12 6.47000 1.56000   1
   7   6 -12 6.01000 0.91000   1
   7   6 -12 6.70000 1.35000   1
  10  -1   2 21.0500 1.87000   1
 -10   1  -2 20.2900 1.76000   1
  11  -3  -7 8.06000 1.22000   1
 -11   3   7 10.8300 1.06000   1
  -7   4  -8 9.04000 1.12000   1
   7  -4   8 1.84000 0.81000   1
 -10  -1  10 15.7900 1.86000   1
  10   1 -10 16.6300 2.03000   1
  -2   1 -12 4.80000 1.24000   1
  -2   1 -12 4.67000 0.70000   1
   2  -1  12 8.08000 1.24000   1
   2  -1  12 5.49000 0.61000   1
  -7   0  13 1.93000 0.94000   1
   7   0 -13 1.86000 1.10000   1
   1 -12   9 23.8300 1.76000   1
  -1  12  -9 33.3900 2.42000   1
  -1  12  -9 26.2500 1.91000   1
  -8  11   0 17.5800 1.24000   1
  -8  11   0 16.0700 1.23000   1
   8 -11   0 17.2500 1.51000   1
  -2   5  11 14.6100 1.46000   1
  -2   5  11 14.2700 1.42000   1
   2  -5 -11 11.1300 1.51000   1
   2  -5 -11 12.7000 1.26000   1
  11   1  -4 0.88000 0.87000   1
  11   1  -4 1.05000 0.70000   1
 -11  -1   4 0.07000 0.82000   1
 -11  -1   4 0.56000 0.45000   1
  -3   0 -11 0.43000 0.34000   1
  -3   0 -11 1.08000 0.82000   1
   3   0  11 -0.1900 0.33000   1
   3   0  11 -0.1300 0.82000   1
  10   3  -9 13.6200 1.79000   1
  10   3  -9 12.0100 1.72000   1
 -10  -3   9 12.1900 1.57000   1
   1  12  -9 2.89000 0.88000   1
   1  12  -9 -0.6000 1.03000   1
  -1 -12   9 0.48000 0.71000   1
  -5  12  -6 11.8800 0.83000   1
  -5  12  -6 14.6400 1.53000   1
   3   2 -14 15.1100 1.33000   1
  -3  -2  14 14.0600 1.75000   1
   3   2 -14 15.1600 1.77000   1
  -4   3 -11 1.70000 0.41000   1
  -4   3 -11 2.00000 1.04000   1
   4  -3  11 2.27000 0.95000   1
   6   8   1 0.71000 0.78000   1
  -6  -8  -1 0.18000 0.73000   1
   6   8   1 1.53000 0.71000   1
   4  -4 -12 0.97000 0.94000   1
  -4   4  12 2.10000 0.78000   1
   4  -4 -12 1.39000 0.57000   1
  -4   4  12 0.89000 0.80000   1
  -5   7 -10 17.0300 1.74000   1
   5  -7  10 12.0600 1.17000   1
  -6 -10   6 15.0400 1.98000   1
   6  10  -6 10.6400 1.90000   1
   4  -2 -13 24.3800 2.47000   1
   4  -2 -13 25.9000 1.80000   1
  -4   2  13 32.2500 2.40000   1
   0  13  -2 -0.1500 0.88000   1
   0  13  -2 1.58000 0.68000   1
  -4  -4  -8 6.29000 0.80000   1
   4   4   8 8.31000 0.88000   1
   4   4   8 8.51000 1.20000   1
  -4  -4  -8 6.80000 1.36000   1
   2  12  -1 9.41000 1.07000   1
   2  12  -1 8.65000 1.56000   1
   6   9 -10 13.0200 1.62000   1
  -6  -9  10 9.21000 1.52000   1
   7   9  -6 0.51000 1.15000   1
  -7  -9   6 0.93000 0.95000   1
   6   9  -1 13.5100 1.62000   1
   6   9  -1 12.4400 1.73000   1
  -5   4  12 8.75000 1.18000   1
   5  -4 -12 11.4500 1.58000   1
   8  -4 -11 0.12000 1.08000   1
  -8   4  11 1.18000 0.58000   1
   1  -9  -7 8.53000 1.43000   1
  -1   9   7 7.08000 1.17000   1
  -1   9   7 8.67000 0.99000   1
   1  -9  -7 10.4100 1.28000   1
   2   4 -14 11.6200 1.55000   1
   2   4 -14 16.4100 1.70000   1
  -2  -4  14 12.8800 1.63000   1
  -8  11  -1 3.50000 0.51000   1
  -8  11  -1 2.21000 0.52000   1
  -3  13   0 16.1700 1.05000   1
  -3  13   0 19.1800 1.86000   1
   0  -2 -12 13.4800 1.38000   1
   0  -2 -12 13.0800 1.22000   1
   0   2  12 12.9800 1.55000   1
   0   2  12 12.4900 1.18000   1
 -11   5   1 1.49000 0.46000   1
 -11   5   1 0.90000 0.50000   1
  -3  -5  14 8.48000 1.45000   1
   3   5 -14 12.8400 1.61000   1
   3   5 -14 8.19000 1.16000   1
  -3 -12   7 13.0000 1.67000   1
   3  12  -7 12.6000 1.77000   1
   6  -7   9 5.86000 0.76000   1
  -6   7  -9 3.94000 1.02000   1
  -4  11   5 8.53000 0.72000   1
  -4  11   5 9.46000 1.35000   1
   4 -11  -5 8.29000 1.63000   1
   4 -12  -3 0.92000 1.12000   1
  -4  12   3 1.36000 0.92000   1
  -4  12   3 2.74000 0.46000   1
   9   6  -8 0.00000 1.03000   1
  -9  -6   8 -0.1900 0.96000   1
   9   6  -8 2.05000 1.00000   1
   2 -11  10 27.0700 1.81000   1
  -2  11 -10 26.2500 1.74000   1
  -2  11 -10 31.9500 2.62000   1
  -8  11   1 10.5800 0.86000   1
  -8  11   1 10.8300 0.95000   1
   8 -11  -1 11.5700 1.19000   1
   2   3 -14 17.3600 1.65000   1
   2   3 -14 16.7500 1.78000   1
  -2  -3  14 19.7900 1.84000   1
   6  10  -5 3.75000 1.37000   1
   6  10  -5 3.28000 0.91000   1
  -7   6  -8 2.48000 0.89000   1
   7  -6   8 1.14000 0.55000   1
  10  -8  -4 1.97000 0.86000   1
 -10   8   4 3.25000 0.58000   1
   8   7  -2 13.0900 1.72000   1
  -8  -7   2 13.2400 1.41000   1
   8   7  -2 12.6400 1.78000   1
  -3  12   3 24.4900 1.61000   1
  -3  12   3 25.8100 2.11000   1
   3 -12  -3 27.8500 2.59000   1
  -1   3 -13 2.83000 0.62000   1
   1  -3  13 2.22000 0.99000   1
  -1   3 -13 1.87000 1.03000   1
   3   8 -13 10.8000 1.26000   1
  -3  -8  13 6.62000 1.26000   1
   3   8 -13 7.34000 1.51000   1
   3   8 -13 7.36000 1.41000   1
   9  -4   5 5.79000 0.81000   1
  -9   4  -5 6.28000 0.92000   1
  -7  -8  10 -0.1500 0.75000   1
   7   8 -10 0.15000 1.03000   1
   7   8 -10 0.05000 0.86000   1
  -5   2  13 5.84000 1.09000   1
   5  -2 -13 7.44000 1.36000   1
   5  -2 -13 5.19000 0.64000   1
  -8  -6   0 0.61000 0.87000   1
   8   6   0 1.87000 0.96000   1
   8   6   0 1.09000 0.77000   1
  10  -7  -6 -0.2000 0.62000   1
 -10   7   6 0.07000 0.29000   1
  -8  -1  -5 29.3500 2.39000   1
   8   1   5 27.1700 2.32000   1
   7   0   7 6.65000 1.30000   1
  -7   0  -7 7.59000 1.25000   1
  -8  10  -4 11.8900 1.21000   1
  -1  -8  13 12.5500 1.56000   1
   1   8 -13 11.4000 1.39000   1
   1   8 -13 11.6100 1.12000   1
   1   8 -13 12.4500 1.56000   1
  -2  -5  -9 0.04000 0.82000   1
  -2  -5  -9 0.89000 0.59000   1
   2   5   9 0.08000 0.67000   1
   2   5   9 0.38000 0.57000   1
  -1  -7  -8 2.72000 0.92000   1
  -1  -7  -8 3.42000 1.03000   1
   1   7   8 2.73000 0.96000   1
   1   7   8 2.97000 0.81000   1
 -11   0   2 7.27000 0.85000   1
  11   0  -2 7.94000 1.04000   1
  11   0  -2 7.42000 1.07000   1
   9  -5   5 14.5700 1.11000   1
  -9   5  -5 15.8100 1.55000   1
  -7  10  -6 0.36000 0.71000   1
   7   9  -5 10.3100 1.51000   1
   7   9  -5 14.5900 1.77000   1
   3  11 -10 19.3200 2.19000   1
  -3 -11  10 17.4900 1.77000   1
   3  11 -10 16.0600 1.72000   1
  -5  -4  -7 0.84000 0.95000   1
  -5  -4  -7 1.70000 0.49000   1
   5   4   7 3.38000 1.00000   1
   5   4   7 0.65000 0.54000   1
   8  -1   6 19.2400 1.81000   1
  -8   1  -6 18.4000 1.84000   1
   7   4 -13 2.54000 0.75000   1
  -7  -4  13 4.89000 1.16000   1
   7   4 -13 2.62000 1.17000   1
  -9  10   1 1.82000 0.44000   1
  -9  10   1 3.64000 0.51000   1
   9 -10  -1 1.15000 0.63000   1
   5  10  -1 9.33000 1.56000   1
   5  10  -1 8.52000 1.34000   1
  -7  -9   7 4.94000 1.30000   1
   7   9  -7 0.79000 1.30000   1
   5   3 -14 8.31000 0.96000   1
  -5  -3  14 11.1600 1.56000   1
   5   3 -14 14.2200 1.71000   1
 -10   4   9 33.3100 2.28000   1
  10  -4  -9 37.5000 3.02000   1
  -6 -10   7 2.76000 1.38000   1
   6  10  -7 7.50000 1.37000   1
  -1  -8  -7 6.49000 1.07000   1
  -1  -8  -7 6.46000 1.09000   1
   1   8   7 3.47000 1.02000   1
   1   8   7 4.08000 1.11000   1
   4   9 -12 4.89000 1.32000   1
   4   9 -12 8.34000 1.48000   1
  -4  -9  12 8.03000 1.47000   1
   4   9 -12 6.12000 1.11000   1
   1   3  11 3.82000 0.80000   1
  -1  -3 -11 1.58000 0.79000   1
  -1  -3 -11 0.42000 0.63000   1
   1   3  11 1.30000 0.60000   1
  -1   9 -12 8.15000 0.71000   1
  -1   9 -12 8.18000 1.09000   1
  -1   9 -12 7.80000 1.48000   1
   1  -9  12 10.0000 1.10000   1
  -8   2  12 1.06000 0.70000   1
   8  -2 -12 1.89000 1.12000   1
   9 -10   0 7.62000 0.79000   1
  -9  10   0 6.73000 0.61000   1
  -9  10   0 6.66000 0.70000   1
   4  11  -9 -0.9100 0.97000   1
  -4 -11   9 -0.4800 0.81000   1
  -2  13   0 4.54000 0.61000   1
  -2  13   0 4.35000 1.14000   1
  -6  12   2 1.83000 0.50000   1
  -6  12   2 1.83000 0.85000   1
   6 -12  -2 2.01000 0.91000   1
  -2  -9  -5 9.23000 1.35000   1
  -2  -9  -5 9.48000 1.25000   1
   2   9   5 16.8600 1.33000   1
   2   9   5 7.85000 1.26000   1
  -1 -13   5 1.08000 0.68000   1
   1  13  -5 0.64000 0.89000   1
  -2   8 -12 7.93000 1.48000   1
   2  -8  12 9.19000 1.15000   1
  -2   8 -12 7.12000 0.84000   1
  -3  13  -6 11.9100 1.57000   1
  -3  13  -6 11.6800 1.29000   1
  -1   6 -13 16.1700 1.51000   1
  -1   6 -13 16.2500 2.03000   1
   1  -6  13 22.4200 1.94000   1
   1  -6 -10 7.02000 1.26000   1
  -1   6  10 9.24000 1.23000   1
  -1   6  10 7.15000 1.17000   1
   1  -6 -10 10.3600 1.29000   1
   5  -2  10 6.25000 1.11000   1
  -5   2 -10 2.92000 1.26000   1
   3 -11  -5 2.10000 1.06000   1
  -3  11   5 0.87000 0.79000   1
  -3  11   5 0.95000 0.47000   1
  -5  -2  14 21.0000 1.98000   1
   5   2 -14 21.6900 2.12000   1
   5   2 -14 15.4100 1.28000   1
   3  12  -3 9.48000 1.16000   1
   3  12  -3 9.54000 1.50000   1
   1  13  -4 6.65000 1.33000   1
  -1 -13   4 8.50000 1.22000   1
 -11   1   1 0.37000 0.47000   1
  11  -1  -1 0.83000 0.67000   1
   7  -3   8 10.9600 1.22000   1
  -7   3  -8 9.77000 1.26000   1
   2   5 -14 1.34000 0.94000   1
  -2  -5  14 2.79000 1.02000   1
   2   5 -14 1.48000 0.79000   1
  -3  -9  -4 4.50000 1.30000   1
   3   9   4 6.08000 1.13000   1
   3   9   4 7.80000 1.34000   1
  11  -6  -3 2.92000 0.65000   1
   5   7 -13 2.91000 1.06000   1
   5   7 -13 5.47000 0.99000   1
   5   7 -13 8.50000 1.46000   1
  -5  -7  13 8.60000 1.44000   1
   4  10   1 8.74000 1.56000   1
   4  10   1 10.0300 1.23000   1
   7  -5 -11 24.2500 2.45000   1
  -7   5  11 18.4300 1.49000   1
 -10   7  -2 7.14000 0.79000   1
 -10  -4   8 0.66000 0.78000   1
  10   4  -8 -1.3400 0.89000   1
  10   4  -8 1.62000 0.83000   1
   4   5 -14 28.7000 2.47000   1
   4   5 -14 23.6000 2.06000   1
  -4  -5  14 24.4500 2.42000   1
   1   1  12 3.87000 0.61000   1
   1   1  12 2.10000 1.01000   1
  -1  -1 -12 2.38000 0.71000   1
  -1  -1 -12 5.51000 0.91000   1
  11   1  -7 2.39000 0.94000   1
 -11  -1   7 1.18000 0.92000   1
  11   1  -7 1.94000 1.13000   1
 -10   2  10 11.3500 1.28000   1
  10  -2 -10 13.1400 1.85000   1
  -1  13  -7 34.6800 2.66000   1
   1 -13   7 31.4100 2.04000   1
  -1  13  -7 38.5500 3.09000   1
  -4  13   0 22.6700 1.89000   1
  -4   8   9 11.0900 1.02000   1
   4  -8  -9 8.38000 0.92000   1
   4  -8  -9 11.2500 1.44000   1
  -4   8   9 6.80000 1.36000   1
  -3   2  13 -0.9000 0.82000   1
   3  -2 -13 1.23000 0.83000   1
   3  -2 -13 0.80000 0.52000   1
  -9  -5  10 16.5600 1.86000   1
   9   5 -10 13.3400 2.09000   1
   9   5 -10 15.6000 2.22000   1
  10   2   0 47.6200 3.52000   1
  10   2   0 43.7600 2.97000   1
 -10  -2   0 42.5800 3.21000   1
   3   4   9 11.0500 1.15000   1
  -3  -4  -9 10.8800 1.47000   1
  -3  -4  -9 14.7000 1.23000   1
   3   4   9 14.9500 1.66000   1
  -5  11   5 1.19000 0.81000   1
  -5  11   5 0.73000 0.41000   1
   5 -11  -5 0.17000 0.84000   1
   3  -9  11 0.18000 0.54000   1
  -3   9 -11 1.27000 0.93000   1
  -3   9 -11 0.79000 0.48000   1
 -10   4  -3 20.2000 1.71000   1
  10  -4   3 19.4500 1.39000   1
   1  -3 -12 6.26000 1.09000   1
  -1   3  12 9.14000 1.15000   1
  -1   3  12 7.42000 1.18000   1
   1  -3 -12 7.91000 1.06000   1
  -9   8  -4 4.76000 0.84000   1
   5  -8  -9 2.64000 1.09000   1
  -5   8   9 5.40000 0.69000   1
  -5   8   9 3.40000 1.04000   1
  -6  -6  13 0.19000 0.97000   1
   6   6 -13 -0.8700 0.74000   1
   6   6 -13 -0.4600 0.90000   1
   6   6 -13 -0.1600 0.70000   1
  -4   7 -11 15.3100 1.86000   1
  -4   7 -11 12.2900 0.93000   1
   4  -7  11 12.9800 1.18000   1
  -9  -5   1 41.9100 3.29000   1
   9   5  -1 46.3200 3.63000   1
   9   5  -1 44.8100 3.54000   1
  -6   2  -9 7.41000 1.24000   1
   6  -2   9 6.36000 1.19000   1
   3  -4 -12 10.1600 1.44000   1
   3  -4 -12 12.8600 1.13000   1
  -3   4  12 11.2200 1.32000   1
  -3   4  12 10.9100 1.34000   1
  -4  -1  14 12.6700 1.49000   1
   4   1 -14 11.4000 1.44000   1
   4   1 -14 10.4000 1.00000   1
  -4  13  -5 3.06000 0.64000   1
  -4  13  -5 3.19000 0.95000   1
 -11   6   2 -0.1300 0.30000   1
  -8   8  -6 2.53000 0.89000   1
  -9   9  -3 18.3800 1.51000   1
   9  -3   5 2.04000 0.64000   1
  -9   3  -5 0.74000 0.82000   1
  -9   9   5 14.0100 1.24000   1
   9  -9  -5 11.8800 1.45000   1
 -11   1   8 1.90000 0.75000   1
  11  -1  -8 2.34000 0.88000   1
 -10  -2  10 5.49000 1.31000   1
  10   2 -10 8.05000 1.49000   1
   3  -5  12 5.80000 1.06000   1
  -3   5 -12 8.62000 1.36000   1
  -3   5 -12 5.03000 0.57000   1
  -9  10   2 42.8400 2.58000   1
  -9  10   2 38.7800 2.16000   1
   9 -10  -2 43.1700 2.93000   1
   2 -10  11 2.48000 0.65000   1
  -2  10 -11 3.02000 0.73000   1
  -2  10 -11 1.91000 0.58000   1
  -2  10 -11 2.87000 1.13000   1
   0  -4 -11 6.75000 1.14000   1
   0  -4 -11 4.81000 0.92000   1
   0   4  11 7.75000 1.07000   1
   0   4  11 4.89000 0.88000   1
   7   8  -1 37.3300 2.80000   1
  -7  -8   1 37.8800 3.10000   1
   7   8  -1 40.5900 3.31000   1
 -11  -1   3 16.7400 1.36000   1
  11   1  -3 19.2200 1.32000   1
  11   1  -3 20.5300 1.83000   1
  11   1  -3 17.5700 1.93000   1
  -5  13  -2 0.42000 0.69000   1
  -5  13  -2 1.61000 0.60000   1
  10   1   1 7.67000 0.91000   1
  10   1   1 7.29000 1.14000   1
 -10  -1  -1 9.19000 1.17000   1
  -5  -4  14 3.76000 1.28000   1
   5   4 -14 5.08000 0.79000   1
   5   4 -14 6.35000 1.30000   1
   7   2   6 2.87000 0.58000   1
   7   2   6 2.50000 0.89000   1
  -7  -2  -6 3.67000 0.91000   1
  -8  -6  11 8.76000 1.58000   1
   8   6 -11 8.49000 1.63000   1
   8   6 -11 5.79000 0.87000   1
   8   6 -11 7.08000 1.41000   1
  -7   9  -7 22.1200 2.00000   1
  -4 -10  11 0.19000 0.87000   1
   4  10 -11 1.07000 0.94000   1
   4  10 -11 1.42000 0.85000   1
   6   5   5 4.46000 1.23000   1
  -6  -5  -5 6.96000 1.25000   1
   6   5   5 5.60000 0.87000   1
  -3   4 -12 20.0700 2.18000   1
  -3   4 -12 20.7100 1.49000   1
   3  -4  12 26.5500 2.12000   1
   0  13  -7 3.16000 1.08000   1
   0 -13   7 7.45000 1.05000   1
   0  13  -7 2.28000 1.27000   1
   2   2 -14 0.38000 0.70000   1
  -2  -2  14 -0.3000 0.83000   1
   2   2 -14 0.99000 0.84000   1
  -8  11  -2 39.5000 2.24000   1
  -8  11  -2 41.1700 2.47000   1
  -5 -10  10 4.37000 1.11000   1
   5  10 -10 3.29000 1.09000   1
  -7  12  -1 5.74000 0.70000   1
  -7  12  -1 6.55000 0.70000   1
 -10   8  -1 8.36000 0.72000   1
 -10   8  -1 8.94000 0.74000   1
  -9   6  -5 1.92000 0.66000   1
   9  -6   5 0.12000 0.46000   1
 -10   5  -3 7.75000 0.95000   1
  10  -5   3 8.65000 0.86000   1
  10   4  -3 18.8000 2.04000   1
  10   4  -3 17.0600 1.80000   1
 -10  -4   3 15.7600 1.44000   1
  10   4  -3 18.4900 1.55000   1
  11  -6  -4 23.0200 1.63000   1
   6  10  -4 22.0200 2.41000   1
   6  10  -4 23.9400 2.27000   1
  -1  -6  -9 0.58000 0.80000   1
  -1  -6  -9 0.65000 0.88000   1
   1   6   9 0.93000 0.79000   1
   1   6   9 1.24000 0.83000   1
   5 -12  -3 19.3500 2.13000   1
  -5  12   3 17.2500 1.77000   1
   1  13  -6 22.8000 2.11000   1
  -1 -13   6 23.2200 1.89000   1
  -6   4  12 1.32000 0.66000   1
   6  -4 -12 0.78000 1.00000   1
   4  -7 -10 6.10000 0.77000   1
  -4   7  10 3.33000 1.05000   1
   4  -7 -10 6.66000 1.09000   1
  -4   7  10 5.23000 0.89000   1
   5  -7 -10 14.5400 1.50000   1
  -5   7  10 12.5300 1.11000   1
  -5   7  10 10.6200 1.67000   1
 -11   3   0 8.01000 0.87000   1
  11  -3   0 9.47000 0.95000   1
   5  11  -6 8.49000 1.48000   1
  -5 -11   6 7.83000 1.46000   1
  11  -4   0 16.6100 1.14000   1
 -11   4   0 15.6100 1.18000   1
  -6  -6  -4 18.1700 1.89000   1
   6   6   4 21.6900 2.05000   1
   6   6   4 17.8900 1.59000   1
  10  -3   3 8.80000 0.95000   1
 -10   3  -3 5.95000 0.98000   1
   3   1 -14 11.9300 1.15000   1
  -3  -1  14 11.4600 1.34000   1
   3   1 -14 10.5500 1.49000   1
 -11   2   8 4.40000 0.95000   1
  11  -2  -8 4.52000 1.05000   1
   2   2  11 1.35000 1.07000   1
   2   2  11 1.39000 0.66000   1
  -2  -2 -11 0.52000 0.99000   1
  -2  -2 -11 4.65000 0.65000   1
  -4   9   8 12.1200 1.17000   1
   4  -9  -8 11.2500 1.43000   1
  -4   9   8 12.6900 1.66000   1
 -11   0   8 8.28000 1.33000   1
  11   0  -8 7.34000 1.19000   1
  -5  13  -3 21.5000 1.56000   1
  -5  13  -3 24.3700 1.87000   1
   2 -12   9 0.58000 0.38000   1
  -2  12  -9 1.28000 0.91000   1
  -2  12  -9 0.06000 0.51000   1
  -8  11   2 -0.3100 0.48000   1
   8 -11  -2 0.47000 0.78000   1
  -8  11   2 0.50000 0.37000   1
  -9  10  -1 12.9100 0.92000   1
  -9  10  -1 10.3800 0.80000   1
  -2  12   3 14.8100 1.14000   1
  -2  12   3 17.1900 1.73000   1
   2 -12  -3 13.7600 1.92000   1
  -5  13  -1 6.26000 0.82000   1
  -5  13  -1 8.23000 1.14000   1
   7   9  -4 15.2800 2.20000   1
   7   9  -4 24.5200 2.19000   1
 -11   5   6 0.19000 0.45000   1
  11  -5  -6 0.59000 0.70000   1
   7 -12   0 6.88000 0.99000   1
  -7  12   0 4.68000 0.78000   1
  -7  12   0 3.30000 0.57000   1
  -9   7   8 8.69000 0.80000   1
   9  -7  -8 13.3800 1.64000   1
   9   6  -3 1.54000 1.04000   1
   9   6  -3 2.17000 1.08000   1
  -9  -6   3 1.15000 0.88000   1
  -5  -1  -9 3.88000 0.54000   1
  -5  -1  -9 3.55000 1.15000   1
   5   1   9 3.07000 1.12000   1
  11  -4  -7 3.07000 0.82000   1
 -11   4   7 1.30000 0.55000   1
   9   0   4 17.4200 1.60000   1
  -9   0  -4 14.7500 1.68000   1
   8   8  -6 0.84000 1.15000   1
  -8  -8   6 0.76000 1.17000   1
  -2  13  -7 3.33000 1.17000   1
  -2  13  -7 4.93000 0.93000   1
   2 -13   7 4.97000 0.66000   1
   9   4 -11 3.91000 0.72000   1
   9   4 -11 5.35000 1.43000   1
   9   4 -11 4.51000 1.37000   1
  -9  -4  11 3.77000 1.27000   1
   5  11  -5 3.15000 1.15000   1
   5  11  -5 1.21000 0.75000   1
   1  13  -3 7.56000 1.35000   1
   1  13  -3 8.30000 0.95000   1
   5  -9  -8 1.51000 1.03000   1
  -5   9   8 2.93000 1.00000   1
  -5   9   8 1.25000 0.53000   1
   9  -6  -9 6.08000 1.36000   1
  -9   6   9 4.96000 0.67000   1
   7  -1 -13 17.5800 2.09000   1
  -7   1  13 15.8300 1.73000   1
   4  -2  11 0.34000 0.76000   1
  -4   2 -11 1.43000 0.97000   1
  -4   2 -11 1.09000 0.39000   1
  -2 -12   9 28.0700 2.30000   1
   2  12  -9 23.2500 2.33000   1
   2  12  -9 25.9700 2.80000   1
  -7  -7  -1 16.5900 1.76000   1
   7   7   1 13.0500 1.52000   1
   7   7   1 13.8700 1.71000   1
  -5  -8  -3 22.0200 2.37000   1
   5   8   3 23.3600 2.08000   1
   5   8   3 23.7400 1.99000   1
  -7  -9   8 0.66000 1.04000   1
   7   9  -8 0.57000 1.09000   1
  -7  11  -5 35.7600 2.52000   1
   5   1 -14 7.08000 1.34000   1
   5   1 -14 3.81000 0.59000   1
  -5  -1  14 5.89000 1.16000   1
   1  11   3 4.91000 0.79000   1
   1  11   3 3.10000 1.15000   1
  -7   7  -8 18.4000 1.89000   1
   7  -7   8 17.9800 1.24000   1
  -3   6 -12 1.86000 0.54000   1
   3  -6  12 1.57000 0.84000   1
  -3   6 -12 1.84000 1.05000   1
   6  -2 -13 3.30000 1.16000   1
  -6   2  13 2.24000 0.90000   1
  10   3  -1 8.55000 0.97000   1
  10   3  -1 8.70000 1.28000   1
  10   3  -1 10.2800 1.42000   1
 -10  -3   1 7.65000 1.10000   1
  -7  12  -2 7.86000 0.79000   1
  -7  12  -2 6.42000 0.74000   1
  -1   2 -13 6.62000 0.86000   1
   1  -2  13 6.68000 0.73000   1
   1  -2  13 10.9100 1.38000   1
  -1   2 -13 10.1500 1.39000   1
   1   9   6 3.10000 0.85000   1
  -1  -9  -6 3.07000 0.95000   1
  -1  -9  -6 2.98000 1.09000   1
   1   9   6 1.87000 1.01000   1
  -7  11   4 0.32000 0.38000   1
  -7  11   4 2.54000 0.80000   1
   7 -11  -4 1.60000 1.03000   1
  -6 -10   8 3.88000 1.24000   1
   6  10  -8 0.82000 1.16000   1
  -1   1  13 23.8400 1.83000   1
   1  -1 -13 27.0500 2.21000   1
   1  -1 -13 29.7200 2.27000   1
  -1   1  13 24.9500 2.26000   1
  -9   3  11 6.10000 1.09000   1
   9  -3 -11 5.19000 1.47000   1
   8  -7  -9 14.1100 1.63000   1
  -8   7   9 13.0800 1.02000   1
  -6  12  -5 5.11000 0.51000   1
  -6  12  -5 6.50000 1.04000   1
   8   8  -7 19.8400 2.46000   1
  -8  -8   7 20.2100 2.34000   1
  -3  -6  14 3.23000 1.16000   1
   3   6 -14 3.86000 0.94000   1
   3   6 -14 3.27000 1.11000   1
   2  11   2 9.93000 1.31000   1
   2  11   2 11.4700 1.68000   1
   3  -8  -9 0.94000 0.89000   1
  -3   8   9 1.55000 0.60000   1
  -3   8   9 0.94000 0.88000   1
   3  -8  -9 0.42000 0.68000   1
   1  11 -11 14.8800 1.64000   1
  -1 -11  11 14.4800 1.68000   1
   1  11 -11 15.5100 1.95000   1
   8   8  -5 25.9200 2.28000   1
   8   8  -5 25.7200 2.78000   1
   4   8 -13 13.5500 1.88000   1
   4   8 -13 13.5100 1.65000   1
   4   8 -13 12.0700 1.63000   1
  -4  -8  13 11.8800 1.82000   1
   8   7 -10 -0.2600 1.18000   1
   8   7 -10 0.78000 0.92000   1
  -8  -7  10 1.30000 1.11000   1
  -3 -12   8 2.61000 0.97000   1
   3  12  -8 -0.1300 1.00000   1
  -5 -11   7 9.61000 1.69000   1
   5  11  -7 7.80000 1.53000   1
  -1 -10  12 11.5700 1.35000   1
   1  10 -12 10.5900 1.13000   1
   1  10 -12 11.8300 1.61000   1
   1  10 -12 12.9100 1.68000   1
   4   1  10 13.3000 1.68000   1
  -4  -1 -10 10.6700 1.03000   1
  -4  -1 -10 11.4100 1.47000   1
 -11   6   1 6.33000 0.57000   1
   6   4   6 1.71000 0.60000   1
   6   4   6 2.20000 1.02000   1
  -6  -4  -6 3.09000 1.10000   1
  -1  10   6 1.62000 0.66000   1
   1 -10  -6 6.23000 1.06000   1
  -1  10   6 2.04000 1.06000   1
  -1  -4  14 17.4800 1.85000   1
   1   4 -14 17.0000 1.73000   1
   1   4 -14 19.5700 1.78000   1
   0   8 -13 10.4000 1.28000   1
   0  -8  13 7.86000 1.17000   1
   0   8 -13 9.68000 1.56000   1
   0  13  -1 8.51000 0.94000   1
   0  13  -1 8.59000 1.38000   1
   4   9   3 10.5100 1.54000   1
  -4  -9  -3 10.4600 1.62000   1
   4   9   3 11.2500 1.50000   1
  -5  11  -8 12.3400 1.33000   1
  -8  10   5 1.81000 0.66000   1
   8 -10  -5 0.16000 0.93000   1
   3  -3  12 13.6300 1.37000   1
  -3   3 -12 9.56000 0.81000   1
  -3   3 -12 14.0800 1.74000   1
  -7  10   6 15.3000 1.70000   1
   7 -10  -6 15.2600 1.89000   1
 -11  -2   5 1.95000 0.81000   1
  11   2  -5 1.80000 0.96000   1
  11   2  -5 0.66000 0.66000   1
  11  -2   0 -0.3300 0.49000   1
 -11   2   0 0.34000 0.56000   1
  -2  -6  14 0.01000 0.79000   1
   2   6 -14 0.56000 0.75000   1
   2   6 -14 -0.2800 0.76000   1
   6  -8  -9 16.1500 1.74000   1
  -6   8   9 17.0700 1.87000   1
  -6   8   9 15.0100 1.17000   1
  -1  13   0 18.1300 1.74000   1
  -1  13   0 11.6500 0.97000   1
 -11   5   0 8.78000 0.78000   1
 -11   5   0 6.25000 0.72000   1
   0   0 -13 9.12000 1.30000   1
   0   0 -13 6.06000 1.09000   1
   0   0  13 8.38000 0.84000   1
   0   0  13 6.19000 1.14000   1
  -8   8   8 24.2700 1.57000   1
  -8   8   8 27.9500 2.32000   1
   8  -8  -8 26.2800 2.48000   1
  11   2  -6 7.28000 1.42000   1
 -11  -2   6 6.66000 1.28000   1
  11   2  -6 6.94000 1.07000   1
   1  12   1 5.20000 0.87000   1
   1  12   1 1.28000 1.16000   1
   0  11 -11 2.49000 0.71000   1
   0  11 -11 2.00000 1.11000   1
   0 -11  11 2.20000 0.77000   1
   5  -8  10 2.51000 0.64000   1
  -5   8 -10 3.30000 0.99000   1
  -4  11  -9 1.19000 0.87000   1
   6   1   8 1.47000 0.97000   1
  -6  -1  -8 0.89000 0.90000   1
   2  10 -12 1.01000 0.78000   1
  -2 -10  12 1.70000 0.94000   1
   2  10 -12 1.34000 0.86000   1
   2  10 -12 -1.0500 1.00000   1
  -9  -6   9 18.3900 2.03000   1
   9   6  -9 10.7900 2.06000   1
   9   6  -9 14.7500 1.99000   1
  -2  11   5 10.7500 0.96000   1
   2 -11  -5 11.0300 1.53000   1
  -2  11   5 8.71000 1.51000   1
   4  11  -1 8.83000 1.60000   1
   4  11  -1 8.99000 1.36000   1
   8   5 -12 8.86000 1.54000   1
  -8  -5  12 11.4700 1.60000   1
   8   5 -12 11.1600 1.79000   1
   8   5 -12 7.56000 0.94000   1
  -8   5  -7 1.67000 0.74000   1
   8  -5   7 -0.3800 0.45000   1
 -10   6  -3 14.6500 1.34000   1
  10  -8  -5 3.55000 0.85000   1
  -1   7 -13 16.6700 1.82000   1
   1  -7  13 11.9800 1.32000   1
  -1   7 -13 12.0500 1.14000   1
   0  12   2 8.59000 1.39000   1
   0  12   2 5.97000 0.86000   1
 -10   0  -2 3.13000 0.87000   1
  10   0   2 1.41000 0.88000   1
  -3   9   8 8.57000 0.96000   1
  -3   9   8 12.4200 1.58000   1
   3  -9  -8 11.0600 1.54000   1
   1   5 -14 12.2900 1.66000   1
   1   5 -14 11.0700 1.31000   1
  -1  -5  14 11.5200 1.59000   1
   1   3 -14 0.90000 0.84000   1
  -1  -3  14 0.80000 0.91000   1
   1   3 -14 2.26000 0.81000   1
   9  -8  -7 1.21000 0.91000   1
  -9   8   7 2.17000 0.74000   1
  -9   8   7 0.63000 0.37000   1
  -3   7  10 6.68000 1.32000   1
  -3   7  10 10.0800 1.16000   1
   3  -7 -10 7.97000 0.97000   1
   3  -7 -10 10.2000 1.44000   1
   9   1 -12 12.2700 1.71000   1
  -9  -1  12 15.9800 1.62000   1
   9 -10  -3 9.40000 1.16000   1
  -9  10   3 9.70000 1.02000   1
  -6   8  -9 3.54000 1.08000   1
   6  -8   9 3.19000 0.54000   1
   5  11  -4 10.7000 1.26000   1
   5  11  -4 10.5800 1.82000   1
  -7   2  -8 11.6800 1.52000   1
   7  -2   8 9.93000 1.23000   1
  -6   7  10 0.07000 0.46000   1
  -6   7  10 1.02000 0.84000   1
   6  -7 -10 0.05000 0.95000   1
   5   5 -14 1.28000 0.86000   1
   5   5 -14 0.12000 0.71000   1
  -5  -5  14 2.35000 1.05000   1
   7 -12  -1 16.2400 1.64000   1
  -7  12   1 16.9700 1.50000   1
  -7  12   1 16.9800 1.12000   1
  -8   4  -7 1.34000 0.89000   1
   8  -4   7 2.20000 0.64000   1
   9  -2   5 10.1500 1.15000   1
  -9   2  -5 9.34000 1.15000   1
 -11   6   5 1.36000 0.42000   1
  11  -6  -5 1.28000 0.66000   1
   8  -6 -10 4.24000 1.30000   1
  -8   6  10 3.74000 0.66000   1
  -5  13  -4 11.6200 1.33000   1
  -5  13  -4 10.7300 0.98000   1
  -7  -5  13 -0.1000 1.12000   1
   7   5 -13 1.85000 0.98000   1
   7   5 -13 1.44000 1.05000   1
   7   5 -13 1.16000 0.60000   1
  11  -3  -8 5.49000 1.15000   1
 -11   3   8 6.83000 1.01000   1
  11   1  -8 3.40000 1.13000   1
 -11  -1   8 3.76000 1.05000   1
  -5  10  -9 20.8200 1.27000   1
  -5  10  -9 21.3400 2.00000   1
   5 -10   9 19.8200 1.30000   1
  -5  13   0 12.6500 1.47000   1
  -5  13   0 11.8800 1.05000   1
  -8  -4  -3 15.3200 1.71000   1
   8   4   3 15.5500 1.47000   1
   8   4   3 15.6400 1.87000   1
  10  -2   3 6.44000 0.86000   1
 -10   2  -3 5.68000 1.02000   1
  -6  11   5 4.44000 1.06000   1
   6 -11  -5 2.63000 1.25000   1
   6   7   3 27.9300 2.40000   1
  -6  -7  -3 29.4300 2.66000   1
   6   7   3 30.1000 2.37000   1
  -4  -6  14 2.35000 0.99000   1
   4   6 -14 0.16000 0.89000   1
   4   6 -14 0.72000 0.75000   1
  10  -3 -10 15.8900 1.92000   1
 -10   3  10 17.7500 1.49000   1
   1  13  -7 9.16000 1.22000   1
  -1 -13   7 10.0100 1.27000   1
   9   0 -12 2.48000 1.02000   1
  -9   0  12 -0.8000 0.67000   1
  -3  13   1 0.10000 0.36000   1
  -3  13   1 -0.0600 0.84000   1
   3 -13  -1 0.79000 0.71000   1
   2  11 -11 8.13000 1.27000   1
   2  11 -11 6.70000 1.39000   1
  -2 -11  11 6.56000 1.18000   1
   0 -11  -4 7.21000 1.30000   1
   0  11   4 6.65000 1.37000   1
   0  11   4 5.82000 0.99000   1
   3  12  -2 3.55000 1.25000   1
   3  12  -2 4.67000 0.95000   1
  -5  -3  -8 32.9600 1.98000   1
   5   3   8 30.6100 1.92000   1
  -5  -3  -8 29.7500 2.71000   1
   5   3   8 34.1100 2.93000   1
  -9   5  10 17.5500 1.35000   1
   9  -5 -10 16.5600 2.03000   1
  -6  -2  14 5.12000 1.23000   1
   6   2 -14 5.49000 0.76000   1
   6   2 -14 7.93000 1.41000   1
  -5   6  11 21.8500 2.21000   1
   5  -6 -11 25.1800 2.25000   1
  -5   6  11 20.6500 1.63000   1
  -4  -3  -9 19.5200 1.85000   1
  -4  -3  -9 13.9000 1.13000   1
   4   3   9 16.4000 1.17000   1
   4   3   9 18.7400 1.98000   1
  -2   2  13 16.7300 1.72000   1
  -2   2  13 15.9100 1.57000   1
   2  -2 -13 16.6700 1.74000   1
   2  -2 -13 14.6800 1.34000   1
  11   2  -4 43.6800 3.37000   1
  11   2  -4 42.4600 2.89000   1
 -11  -2   4 43.1200 2.84000   1
   9   3   2 1.74000 0.74000   1
   9   3   2 2.23000 1.09000   1
  -9  -3  -2 6.38000 1.01000   1
   6   3 -14 3.67000 0.62000   1
   6   3 -14 4.29000 1.28000   1
  -6  -3  14 4.20000 1.17000   1
   2   0  12 0.65000 0.35000   1
   2   0  12 1.56000 0.86000   1
  -2   0 -12 0.39000 0.47000   1
  -2   0 -12 1.15000 0.91000   1
  11   0  -1 3.41000 0.77000   1
 -11   0   1 4.33000 0.74000   1
  11   0  -1 2.23000 0.93000   1
   4  -6 -11 3.36000 1.14000   1
   4  -6 -11 2.32000 0.69000   1
  -4   6  11 3.09000 1.06000   1
  -4   6  11 4.18000 0.72000   1
   0  10 -12 3.56000 1.11000   1
   0  10 -12 2.52000 0.93000   1
   0  10 -12 1.31000 0.60000   1
   0 -10  12 1.37000 0.74000   1
   6  -9  -8 8.01000 1.46000   1
  -6   9   8 5.31000 1.12000   1
  -6   9   8 6.41000 0.69000   1
  -9   7  -5 4.01000 0.80000   1
   9   2 -12 18.2300 1.99000   1
  -9  -2  12 15.4400 1.80000   1
   2   1 -14 0.19000 0.60000   1
  -2  -1  14 -0.4700 0.79000   1
   2   1 -14 0.64000 0.71000   1
  -2  -4 -10 11.8700 1.53000   1
  -2  -4 -10 10.8600 1.11000   1
   2   4  10 8.26000 0.98000   1
   2   4  10 10.6600 1.29000   1
  10   4  -9 1.19000 1.15000   1
 -10  -4   9 0.68000 1.08000   1
  10   4  -9 2.43000 1.01000   1
   8   8  -8 3.54000 1.43000   1
  -8  -8   8 3.71000 1.16000   1
  -8   6  -7 3.79000 1.07000   1
   8  -6   7 4.31000 0.61000   1
  -7  12  -3 13.2900 0.99000   1
  -7  12  -3 14.3100 1.17000   1
   1  -5 -11 14.6900 1.47000   1
   1  -5 -11 15.6000 1.45000   1
  -1   5  11 17.7900 1.55000   1
  -1   5  11 15.6900 1.69000   1
   4   0 -14 1.93000 0.61000   1
  -4   0  14 4.16000 0.98000   1
   4   0 -14 2.61000 0.96000   1
 -11  -2   7 10.9300 1.44000   1
  11   2  -7 10.7800 1.71000   1
  11   2  -7 9.81000 1.29000   1
   6  10  -3 10.7700 1.69000   1
   6  10  -3 8.21000 1.37000   1
 -11  -1   2 11.2100 1.08000   1
  11   1  -2 10.1500 1.42000   1
  11   1  -2 9.71000 1.23000   1
 -10   9   1 13.3600 0.91000   1
  10  -9  -1 16.7200 1.13000   1
 -10   9   1 14.5400 1.05000   1
  -8  11  -3 3.97000 0.68000   1
  -8  11  -3 3.18000 0.51000   1
  -4  10   7 2.49000 0.55000   1
   4 -10  -7 0.91000 1.13000   1
  -4  10   7 2.76000 1.06000   1
   4 -13  -1 1.89000 1.15000   1
  -4  13   1 2.89000 0.98000   1
  10   3 -10 5.42000 1.44000   1
 -10  -3  10 5.57000 1.32000   1
  10   3 -10 4.47000 1.51000   1
  10  -9  -2 1.40000 0.60000   1
 -10   9   2 3.15000 0.49000   1
   8   8  -4 19.9300 2.33000   1
   8   8  -4 15.3100 1.86000   1
  -6  -8  12 16.7900 1.98000   1
   6   8 -12 12.2200 1.42000   1
   6   8 -12 11.6500 1.89000   1
   6   8 -12 14.7500 1.97000   1
  -9  10  -2 0.05000 0.40000   1
  -9  10  -2 0.10000 0.40000   1
  -2   4  12 6.66000 1.17000   1
  -2   4  12 6.90000 1.06000   1
   2  -4 -12 9.81000 1.09000   1
   2  -4 -12 8.30000 1.25000   1
  -8  -3  -4 13.9500 1.72000   1
   8   3   4 15.5400 1.20000   1
   8   3   4 12.4200 1.53000   1
  -3   7 -12 1.04000 0.43000   1
  -3   7 -12 1.05000 1.04000   1
   3  -7  12 1.61000 0.68000   1
  -6  11  -7 14.9800 1.59000   1
  -8  -5  -2 25.4600 2.38000   1
   8   5   2 31.3800 2.57000   1
   8   5   2 29.2100 2.26000   1
   8   1 -13 28.8600 2.95000   1
  -8  -1  13 28.3900 2.64000   1
  -4   8 -11 2.93000 0.52000   1
  -4   8 -11 2.66000 1.00000   1
   4  -8  11 3.99000 0.68000   1
   1  13  -2 14.2400 1.79000   1
   1  13  -2 16.2900 1.35000   1
  10  -6  -8 6.56000 1.29000   1
 -10   6   8 4.33000 0.57000   1
  -4  10 -10 22.8400 2.18000   1
   4 -10  10 25.4500 1.71000   1
  -4  10 -10 21.7500 1.48000   1
  -8  -2  13 20.5400 2.10000   1
   8   2 -13 15.9500 2.15000   1
   5  -1  10 0.22000 0.83000   1
  -5   1 -10 0.59000 0.93000   1
   1   5  10 2.56000 0.64000   1
   1   5  10 -0.2800 0.91000   1
  -1  -5 -10 2.09000 0.87000   1
  -1  -5 -10 0.74000 0.67000   1
   2  12   0 0.75000 0.65000   1
   2  12   0 -0.7900 0.75000   1
  -9  -4  -1 6.05000 1.14000   1
   9   4   1 5.45000 0.99000   1
   9   4   1 4.07000 1.30000   1
  -4  12  -8 3.59000 1.23000   1
  -4  12  -8 4.36000 0.69000   1
   3  11   1 27.5000 2.22000   1
   3  11   1 8.46000 1.48000   1
 -10  -5   6 0.03000 0.90000   1
  10   5  -6 -0.7800 0.88000   1
  10   5  -6 -0.2600 0.74000   1
  -6  10  -8 22.0600 1.85000   1
  -4  13  -6 9.78000 1.00000   1
  -4  13  -6 12.3400 1.56000   1
   0   8   8 10.0200 1.33000   1
   0  -8  -8 13.2000 1.55000   1
   0  -8  -8 11.5600 1.50000   1
   0   8   8 10.1700 1.29000   1
  -5  10   7 0.46000 0.69000   1
   5 -10  -7 0.90000 0.97000   1
  -5  10   7 0.77000 0.42000   1
   7   9  -3 1.62000 1.18000   1
   7   9  -3 1.68000 0.93000   1
  -5 -11   8 2.22000 1.12000   1
   5  11  -8 1.60000 1.13000   1
   2  10   4 11.4300 1.35000   1
   2  10   4 10.0800 1.32000   1
  -2 -10  -4 8.93000 1.66000   1
  -3  13  -7 4.26000 0.77000   1
  -3  13  -7 14.3800 1.48000   1
   8 -11  -3 7.62000 1.22000   1
  -8  11   3 10.7000 1.11000   1
   9   2   3 33.5300 2.14000   1
  -9  -2  -3 33.7200 2.62000   1
   9   2   3 36.0300 2.95000   1
   8  -3   7 25.9400 1.92000   1
  -8   3  -7 21.9500 1.99000   1
   8  -3 -12 -0.1800 0.87000   1
  -8   3  12 0.25000 0.58000   1
  -5   0  14 19.6200 1.92000   1
   5   0 -14 17.3300 1.37000   1
   5   0 -14 18.9100 2.06000   1
   6 -12  -3 17.0700 1.99000   1
  -6  12   3 16.2000 1.70000   1
  -6  12   3 15.7000 1.12000   1
   6  -1   9 4.58000 1.14000   1
  -6   1  -9 4.53000 1.21000   1
  -8  -7   1 14.0800 1.71000   1
   8   7  -1 14.3000 1.82000   1
   8   7  -1 12.1400 1.65000   1
  -8   0  -6 12.1100 1.41000   1
   8   0   6 14.2700 1.68000   1
  -2  13   1 21.5000 1.97000   1
  -2  13   1 16.9600 1.32000   1
  -6  -1  14 7.05000 1.02000   1
   6   1 -14 2.42000 0.58000   1
   6   1 -14 4.11000 1.23000   1
  -5  12  -7 4.39000 0.59000   1
  -5  12  -7 4.99000 1.06000   1
   0  12 -10 6.74000 1.21000   1
   0  12 -10 7.55000 1.14000   1
   0 -12  10 4.93000 0.92000   1
   1   6 -14 3.53000 1.07000   1
   1   6 -14 1.31000 0.93000   1
  -1  -6  14 2.11000 1.00000   1
   3 -11  10 5.17000 0.64000   1
  -3  11 -10 5.55000 0.69000   1
  -3  11 -10 7.01000 1.26000   1
   0   7   9 12.5100 1.49000   1
   0  -7  -9 12.8300 1.38000   1
   0   7   9 14.7300 1.47000   1
   0  -7  -9 13.0100 1.51000   1
  -8   9   7 8.27000 1.17000   1
   8  -9  -7 7.65000 1.27000   1
  -8   9   7 6.32000 0.61000   1
   3  10 -12 0.11000 0.78000   1
   3  10 -12 1.08000 0.71000   1
  -3 -10  12 0.06000 0.98000   1
  10   4  -2 6.63000 1.39000   1
  10   4  -2 7.74000 0.96000   1
  10   4  -2 10.7900 1.33000   1
 -10  -4   2 6.56000 1.19000   1
   7   9  -9 11.3200 1.85000   1
  -7  -9   9 14.2700 1.95000   1
   1   2 -14 3.52000 0.90000   1
  -1  -2  14 2.48000 1.10000   1
   1   2 -14 2.16000 0.91000   1
  10   5  -5 26.6700 2.24000   1
  10   5  -5 24.5800 2.66000   1
  -1  11 -11 19.9500 1.53000   1
  -1  11 -11 20.4400 2.33000   1
   1 -11  11 21.7700 1.71000   1
  -1  13  -8 0.74000 0.66000   1
  -1  13  -8 1.23000 0.96000   1
   1 -13   8 1.28000 0.51000   1
 -10   7   7 4.48000 0.57000   1
  10  -7  -7 6.11000 1.21000   1
  -7   4  12 19.1100 1.60000   1
   7  -4 -12 20.5800 2.30000   1
   3   0 -14 0.73000 0.99000   1
   3   0 -14 2.53000 0.68000   1
  -3   0  14 2.15000 0.95000   1
   6   4 -14 3.25000 1.31000   1
   6   4 -14 5.02000 0.76000   1
  -6  -4  14 3.91000 1.35000   1
  10   5  -7 3.97000 1.32000   1
 -10  -5   7 7.51000 1.32000   1
  10   5  -7 6.45000 1.18000   1
   0 -13   8 2.20000 0.72000   1
   0  13  -8 3.85000 1.00000   1
   0  13  -8 2.57000 1.10000   1
 -10   8  -2 1.76000 0.61000   1
  -7  -7  12 0.97000 1.17000   1
   7   7 -12 2.25000 1.11000   1
   7   7 -12 2.64000 0.91000   1
   7   7 -12 2.61000 1.31000   1
   3   1  11 1.15000 0.96000   1
  -3  -1 -11 0.16000 0.96000   1
  -3  -1 -11 0.78000 0.49000   1
   3   1  11 1.55000 0.47000   1
  11  -1   0 6.68000 0.92000   1
 -11   1   0 4.72000 0.80000   1
 -10   9   0 0.62000 0.42000   1
 -10   9   0 3.28000 0.47000   1
 -11   6   0 0.72000 0.49000   1
  10  -5  -9 7.39000 1.38000   1
 -10   5   9 6.16000 0.78000   1
   1 -12  -3 4.14000 1.15000   1
  -1  12   3 3.11000 1.00000   1
  -1  12   3 4.28000 0.69000   1
   2   9 -13 3.83000 1.25000   1
   2   9 -13 5.25000 1.28000   1
   2   9 -13 5.38000 0.93000   1
  -2  -9  13 4.17000 1.22000   1
  -4 -11  10 4.49000 1.37000   1
   4  11 -10 4.28000 1.32000   1
  -9   1  12 18.0600 1.87000   1
   9  -1 -12 20.8400 2.34000   1
  -3   2 -12 1.28000 1.26000   1
   3  -2  12 8.30000 1.30000   1
   6  10  -9 8.96000 1.68000   1
  -6 -10   9 13.9500 1.67000   1
   6   9 -11 20.8900 2.43000   1
   6   9 -11 22.5800 2.71000   1
  -6  -9  11 26.3500 2.70000   1
   6   9 -11 23.3300 2.10000   1
   1  12 -10 10.9500 1.75000   1
  -1 -12  10 10.5800 1.26000   1
   1  12 -10 11.2200 1.34000   1
  11  -7  -3 14.3300 1.30000   1
   6   9   0 2.34000 1.19000   1
   6   9   0 3.89000 1.05000   1
  -6  -9   0 4.55000 1.07000   1
  -6   6  11 7.18000 1.35000   1
   6  -6 -11 7.99000 1.44000   1
  -6   6  11 6.91000 0.88000   1
  -3 -10  -3 4.34000 1.26000   1
   3  10   3 3.14000 1.02000   1
   3  10   3 6.51000 1.10000   1
 -10   9   3 20.1000 1.33000   1
  10  -9  -3 19.4700 1.50000   1
  -5  -9  12 11.2900 1.75000   1
   5   9 -12 9.80000 1.45000   1
   5   9 -12 8.33000 1.47000   1
   5   9 -12 8.81000 1.73000   1
  -6  -3  -7 2.65000 0.97000   1
   6   3   7 1.91000 0.64000   1
   6   3   7 4.58000 1.09000   1
  -7   8  -8 2.63000 0.95000   1
   7  -8   8 1.30000 0.42000   1
  -2   9 -12 4.99000 1.39000   1
   2  -9  12 6.23000 0.91000   1
  -2   9 -12 9.39000 0.94000   1
  -8  10  -5 0.02000 0.60000   1
   2  13  -5 17.6300 1.91000   1
  -2 -13   5 16.7500 1.60000   1
  -3  10   7 6.78000 0.80000   1
  -3  10   7 6.15000 1.15000   1
   3 -10  -7 4.84000 1.23000   1
   8   0 -13 7.24000 1.33000   1
  -8   0  13 5.70000 1.29000   1
   1  -1  13 2.37000 0.62000   1
  -1   1 -13 4.86000 0.84000   1
  -1   1 -13 4.17000 0.98000   1
   1  -1  13 6.67000 1.09000   1
  -8  -3  13 2.08000 1.05000   1
   8   3 -13 0.47000 1.17000   1
   7   8 -11 13.9900 2.00000   1
  -7  -8  11 10.1400 1.85000   1
   7   8 -11 10.9500 1.53000   1
  11  -5  -7 42.1600 3.11000   1
 -11   5   7 43.8500 2.63000   1
 -10   0  11 10.6800 1.52000   1
  10   0 -11 11.8500 1.63000   1
  -1 -10  -5 21.4200 1.97000   1
  -1 -10  -5 19.2900 1.98000   1
   1  10   5 18.4700 1.77000   1
   1  10   5 18.3000 2.09000   1
   9   6  -2 13.2100 1.63000   1
   9   6  -2 15.3000 1.73000   1
  -9  -6   2 15.7600 1.71000   1
  -2   8   9 20.7200 1.62000   1
   2  -8  -9 19.9400 1.69000   1
   2  -8  -9 19.3600 2.02000   1
  -2   8   9 19.7100 1.94000   1
   3  -6 -11 5.61000 1.24000   1
  -3   6  11 8.82000 0.97000   1
  -3   6  11 4.94000 1.04000   1
   3  -6 -11 4.58000 0.85000   1
  -3  -3 -10 3.75000 1.19000   1
   3   3  10 6.58000 1.14000   1
   3   3  10 4.28000 0.65000   1
  -3  -3 -10 2.65000 0.71000   1
   0  -9  -7 45.5000 3.57000   1
   0   9   7 47.6000 3.31000   1
   0  -9  -7 46.7000 3.71000   1
   0   9   7 47.8400 3.74000   1
 -11   1   9 5.05000 0.91000   1
  11  -1  -9 3.04000 1.19000   1
   1   9 -13 7.87000 1.29000   1
   1   9 -13 3.79000 0.77000   1
   1   9 -13 7.48000 1.34000   1
  -1  -9  13 7.48000 1.12000   1
  -4   1 -11 2.51000 1.16000   1
   4  -1  11 3.38000 1.10000   1
   5  11  -3 6.67000 1.13000   1
   5  11  -3 2.26000 1.32000   1
  -4 -12   6 0.42000 1.00000   1
   4  12  -6 0.93000 0.94000   1
  -4   3  13 0.18000 0.77000   1
   4  -3 -13 -0.8000 0.40000   1
   4  -3 -13 -0.0800 0.88000   1
  -7  -1  -7 0.62000 0.70000   1
   7   1   7 1.29000 0.94000   1
   5  10   0 20.8000 2.00000   1
   5  10   0 20.5000 2.28000   1
   5  -3 -13 2.33000 1.02000   1
  -5   3  13 0.19000 0.84000   1
  -3  12  -9 24.4200 2.35000   1
  -3  12  -9 22.4700 1.66000   1
  10   1 -11 1.10000 1.11000   1
 -10  -1  11 0.84000 0.84000   1
  -9  -3  12 9.00000 1.58000   1
   9   3 -12 9.73000 1.67000   1
  -7   2  13 11.2800 1.46000   1
   7  -2 -13 12.6000 1.87000   1
  -4 -12   5 0.85000 0.99000   1
   4  12  -5 1.14000 0.96000   1
 -10   7  -3 1.82000 0.62000   1
  -8   9  -6 32.3000 2.41000   1
  11   0  -9 0.85000 0.92000   1
 -11   0   9 0.71000 0.83000   1
  -7  12   2 18.8200 1.21000   1
  -7  12   2 19.7100 1.68000   1
   7 -12  -2 20.8000 2.11000   1
  -2 -13   6 1.47000 0.81000   1
   2  13  -6 2.07000 0.83000   1
  11   2  -3 15.0600 1.59000   1
 -11  -2   3 11.2200 1.13000   1
  11   2  -3 14.3000 1.66000   1
  11   2  -3 11.6900 1.11000   1
  -8   5  11 0.05000 0.49000   1
   8  -5 -11 -0.4200 0.81000   1
   3   7 -14 14.7200 1.73000   1
   3   7 -14 13.2900 1.72000   1
  -3  -7  14 11.1900 1.74000   1
   2  13  -4 8.54000 1.49000   1
   2  13  -4 9.52000 0.95000   1
   2   7 -14 18.0500 1.91000   1
   2   7 -14 15.9800 1.86000   1
  -2  -7  14 16.3200 1.91000   1
  -9  -7   6 -0.8900 0.90000   1
   9   7  -6 0.70000 1.09000   1
   8  -7   7 5.27000 0.68000   1
  -8   7  -7 8.45000 1.13000   1
 -11   4  -1 4.70000 0.74000   1
  11  -4   1 5.55000 0.68000   1
   6   7 -13 12.2600 1.37000   1
   6   7 -13 12.9300 1.91000   1
  -6  -7  13 17.4300 2.08000   1
   6   7 -13 16.0000 1.92000   1
  -1  12 -10 14.4700 1.37000   1
  -1  12 -10 26.9600 2.28000   1
   1 -12  10 15.5000 1.33000   1
  -9   9  -4 11.5200 1.17000   1
  -9   9   6 5.19000 0.89000   1
   9  -9  -6 3.44000 1.14000   1
  -5  13  -5 0.86000 0.50000   1
  -5  13  -5 3.57000 0.77000   1
   7   5   4 13.2300 1.78000   1
  -7  -5  -4 12.5000 1.35000   1
   7   5   4 10.9300 1.19000   1
   2  -9  -8 8.16000 1.36000   1
  -2   9   8 6.70000 0.98000   1
   2  -9  -8 5.34000 1.03000   1
  -2   9   8 4.53000 1.34000   1
   2  -5  13 7.08000 1.22000   1
  -2   5 -13 5.32000 0.74000   1
  -2   5 -13 8.60000 1.42000   1
  -3 -12   9 3.66000 1.18000   1
   3  12  -9 7.31000 1.28000   1
   4 -12  -4 1.76000 1.06000   1
  -4  12   4 1.10000 0.75000   1
  -4  12   4 0.67000 0.43000   1
  -7   8   9 7.71000 1.17000   1
   7  -8  -9 9.74000 1.52000   1
  -7   8   9 8.72000 0.95000   1
  11  -6  -6 22.6700 2.00000   1
 -11   6   6 20.9700 1.36000   1
   5 -13  -1 11.3300 1.59000   1
  -5  13   1 15.2500 1.59000   1
 -11   4   8 25.9800 1.80000   1
  11  -4  -8 28.1500 2.57000   1
   3   9 -13 12.5700 1.44000   1
  -3  -9  13 14.5500 1.77000   1
   3   9 -13 11.2400 1.60000   1
   3   9 -13 11.6500 1.66000   1
   2  -4  13 13.4800 1.59000   1
  -2   4 -13 12.7000 1.76000   1
  -2   4 -13 14.4200 1.11000   1
   9 -10  -4 3.38000 0.99000   1
  -9  10   4 7.78000 0.98000   1
  10  -1 -11 30.5000 2.98000   1
 -10   1  11 28.2400 2.50000   1
  11  -7  -4 6.05000 0.86000   1
  11   2  -8 30.8700 2.73000   1
  11   2  -8 29.1700 2.69000   1
 -11  -2   8 31.1800 2.52000   1
  -5  -9  -2 3.20000 1.04000   1
   5   9   2 3.39000 1.15000   1
   5   9   2 4.85000 1.10000   1
 -11   7   1 0.29000 0.38000   1
  11  -3   1 3.76000 0.69000   1
 -11   3  -1 5.88000 0.77000   1
   9   7  -7 31.0100 3.34000   1
  -9  -7   7 37.2900 3.18000   1
   9   7  -7 31.0800 3.12000   1
   9   5 -11 7.16000 1.63000   1
   9   5 -11 5.41000 1.58000   1
  -9  -5  11 6.52000 1.51000   1
  -6  13  -2 12.1300 1.06000   1
  -6  13  -2 11.9900 1.06000   1
   5   6 -14 6.05000 1.10000   1
   5   6 -14 6.50000 1.37000   1
  -5  -6  14 5.39000 1.40000   1
  -2   7  10 26.2800 2.18000   1
  -2   7  10 13.9800 1.48000   1
   2  -7 -10 20.1500 1.70000   1
   2  -7 -10 19.2500 1.99000   1
   3  11 -11 1.40000 1.13000   1
   3  11 -11 2.33000 1.09000   1
  -3 -11  11 1.67000 1.10000   1
   6 -10  -7 10.0200 1.66000   1
  -6  10   7 12.4300 0.86000   1
  -6  10   7 11.4300 1.31000   1
  -2  13  -8 10.4400 1.17000   1
  -2  13  -8 15.2800 1.57000   1
 -10   1  -3 -0.7300 0.69000   1
  10  -1   3 0.32000 0.57000   1
  10   5  -4 14.1900 1.52000   1
  10   5  -4 14.5700 1.84000   1
  10   5  -4 15.7100 1.98000   1
   8   2   5 15.6600 1.80000   1
  -8  -2  -5 14.7000 1.80000   1
  -6  13  -1 4.87000 0.95000   1
  -6  13  -1 8.04000 0.79000   1
  11  -2  -9 0.85000 0.90000   1
 -11   2   9 1.52000 0.78000   1
  -7   7  10 5.10000 0.70000   1
   7  -7 -10 3.43000 1.38000   1
  -7   7  10 3.53000 1.23000   1
   5   8 -13 0.12000 0.86000   1
   5   8 -13 0.07000 0.93000   1
  -5  -8  13 0.90000 1.06000   1
   5   8 -13 0.55000 1.00000   1
   9   5   0 7.73000 1.29000   1
   9   5   0 7.73000 1.38000   1
  -9  -5   0 5.78000 1.21000   1
   8   6   1 1.64000 0.78000   1
  -8  -6  -1 0.22000 0.89000   1
   8   6   1 2.18000 1.02000   1
  -9   1  -5 26.0000 2.18000   1
   9  -1   5 24.4200 2.21000   1
   8   8  -9 10.4500 1.57000   1
  -8  -8   9 5.37000 1.78000   1
   8   8  -9 12.0900 1.82000   1
   7   4   5 0.52000 0.56000   1
   7   4   5 2.29000 0.98000   1
  -7  -4  -5 2.02000 0.74000   1
   4  12  -7 2.00000 1.08000   1
  -4 -12   7 2.19000 1.10000   1
   0  13   0 21.9200 2.15000   1
   0  13   0 24.3500 1.65000   1
   1  -8  13 5.16000 1.01000   1
  -1   8 -13 6.30000 1.02000   1
  -1   8 -13 5.92000 1.42000   1
  -1  10 -12 1.33000 1.03000   1
  -1  10 -12 1.48000 0.57000   1
   1 -10  12 0.55000 0.66000   1
  -1  10 -12 0.72000 0.69000   1
  10   5  -8 3.00000 1.31000   1
  10   5  -8 2.74000 1.28000   1
 -10  -5   8 5.32000 1.26000   1
   9   7  -5 1.84000 1.23000   1
   9   7  -5 2.65000 1.13000   1
   3 -12  -4 1.36000 0.98000   1
  -3  12   4 0.61000 0.53000   1
  -3  12   4 0.51000 0.83000   1
   1  13  -8 5.50000 1.25000   1
  -1 -13   8 4.04000 1.07000   1
   1  13  -8 7.63000 1.39000   1
   0  -6 -10 2.77000 0.94000   1
   0   6  10 1.30000 0.90000   1
   0   6  10 1.60000 0.87000   1
   0  -6 -10 3.08000 0.97000   1
  -7  -8   0 -0.1800 0.90000   1
   7   8   0 -1.1300 0.79000   1
   7   8   0 -0.2700 0.94000   1
 -11   5  -1 18.5100 1.42000   1
  11  -5   1 25.8900 1.59000   1
  -3  10 -11 4.34000 1.15000   1
  -3  10 -11 3.63000 0.69000   1
   3 -10  11 4.29000 0.69000   1
   7  -1   8 0.44000 0.86000   1
  -7   1  -8 1.48000 0.81000   1
   1 -11  -5 16.6500 1.88000   1
  -1  11   5 14.4900 1.27000   1
  -1  11   5 17.6600 1.93000   1
  -6  -8  -2 36.9400 3.06000   1
   6   8   2 32.1200 2.73000   1
   6   8   2 36.6700 3.03000   1
  -7  12  -4 0.16000 0.63000   1
  -7  12  -4 3.58000 0.51000   1
   9  -4 -11 4.03000 1.30000   1
  -9   4  11 2.88000 0.72000   1
   9   6 -10 3.82000 1.32000   1
   9   6 -10 1.94000 1.23000   1
  -9  -6  10 0.22000 1.02000   1
 -10  -2  -1 4.77000 0.88000   1
  10   2   1 2.31000 1.07000   1
  10   2   1 5.03000 0.79000   1
   8   8  -3 1.79000 1.00000   1
   8   8  -3 1.58000 1.14000   1
  -6   0  14 0.76000 0.91000   1
   6   0 -14 1.50000 1.03000   1
   0   4 -14 4.97000 0.82000   1
   0   4 -14 3.13000 1.01000   1
   0  -4  14 3.14000 1.01000   1
  -6  12  -6 9.51000 0.76000   1
  -6  12  -6 11.0100 1.35000   1
   0   3  12 1.62000 0.61000   1
   0   3  12 0.38000 0.78000   1
   0  -3 -12 0.65000 0.80000   1
   0  -3 -12 0.73000 0.64000   1
   4  12  -4 4.06000 0.84000   1
   4  12  -4 2.89000 1.28000   1
   5  10 -11 7.38000 1.37000   1
  -5 -10  11 4.08000 1.25000   1
   5  10 -11 2.47000 1.29000   1
   7   6   3 3.29000 1.35000   1
  -7  -6  -3 8.46000 1.30000   1
   7   6   3 7.58000 1.15000   1
  -2   6 -13 1.22000 0.97000   1
  -2   6 -13 0.61000 0.46000   1
   2  -6  13 1.73000 0.89000   1
  -9  -1  -4 6.46000 1.23000   1
   9   1   4 6.41000 1.09000   1
   1   2  12 4.16000 0.63000   1
   1   2  12 1.96000 1.07000   1
  -1  -2 -12 1.54000 0.67000   1
  -1  -2 -12 2.18000 0.86000   1
  -7  10  -7 12.9300 1.33000   1
   0   5 -14 0.43000 0.62000   1
   0   5 -14 1.69000 0.94000   1
   0  -5  14 1.33000 0.89000   1
  -8   2  -7 18.3700 1.88000   1
   8  -2   7 18.6200 1.87000   1
  10  -8  -6 -0.0700 0.61000   1
 -10   9  -1 18.7000 1.24000   1
 -10   9  -1 16.8700 1.14000   1
  11   1  -9 5.79000 1.35000   1
 -11  -1   9 4.78000 1.17000   1
   5  -9  10 3.64000 0.61000   1
  -5   9 -10 3.80000 0.91000   1
  10   2 -11 11.1100 1.74000   1
 -10  -2  11 7.72000 1.49000   1
   5 -12  -4 -0.7900 1.18000   1
  -5  12   4 8.99000 1.18000   1
  -3  -7  -7 7.25000 0.99000   1
   3   7   7 7.85000 1.22000   1
  -3  -7  -7 4.63000 1.40000   1
   3   7   7 6.27000 1.01000   1
   2  12 -10 16.0200 2.07000   1
  -2 -12  10 14.4900 1.60000   1
   2  12 -10 13.4000 1.59000   1
   3  -3 -13 14.4200 1.19000   1
  -3   3  13 14.4700 1.53000   1
  -3   3  13 10.3500 1.61000   1
   3  -3 -13 15.0100 1.76000   1
   4   7   6 0.45000 0.70000   1
   4   7   6 -0.4400 0.67000   1
  -4  -7  -6 0.94000 1.04000   1
  -4  -7  -6 0.88000 0.50000   1
  -5   5  12 16.2000 1.90000   1
   5  -5 -12 17.4800 1.75000   1
  -5   5  12 14.3300 1.39000   1
   7  -9  -8 17.6600 2.15000   1
  -7   9   8 20.3200 1.23000   1
  -7   9   8 19.2000 1.78000   1
   6   5 -14 18.9800 2.10000   1
  -6  -5  14 17.2800 2.15000   1
   6   5 -14 18.5600 1.62000   1
  -6  13  -3 17.1300 1.33000   1
  -6  13  -3 13.9500 1.14000   1
  -9   8  -5 11.2200 1.16000   1
  -2 -13   7 21.4400 2.08000   1
   2  13  -7 20.2500 2.09000   1
  10   3   0 8.21000 1.37000   1
 -10  -3   0 6.35000 1.08000   1
  10   3   0 5.42000 1.05000   1
   6  -3 -13 -0.0200 1.06000   1
  -6   3  13 3.34000 0.87000   1
   4   6   7 0.89000 0.70000   1
   4   6   7 0.25000 0.63000   1
  -4  -6  -7 -0.0900 0.58000   1
  -4  -6  -7 2.35000 0.93000   1
   3  -8  12 5.23000 0.98000   1
  -3   8 -12 4.25000 0.56000   1
  -3   8 -12 5.42000 1.31000   1
  -1  13   1 6.52000 1.13000   1
  -1  13   1 3.29000 0.62000   1
   4   7 -14 0.71000 0.69000   1
   4   7 -14 -0.0300 0.64000   1
   4   7 -14 -0.1300 0.75000   1
  -4  -7  14 -1.8100 0.90000   1
 -10   4  10 2.01000 0.61000   1
  10  -4 -10 0.09000 0.91000   1
   5  11  -9 10.2800 1.85000   1
  -5 -11   9 13.5000 1.83000   1
   4  -5 -12 1.38000 0.78000   1
   4  -5 -12 0.24000 0.60000   1
  -4   5  12 2.45000 0.97000   1
  -4   5  12 1.24000 0.79000   1
   6  -9   9 4.04000 0.53000   1
  -6   9  -9 6.81000 1.10000   1
  10  -9  -4 7.50000 1.03000   1
 -10   9   4 7.25000 0.80000   1
  -7  11  -6 7.30000 1.01000   1
 -11  -3   6 6.86000 1.29000   1
  11   3  -6 5.14000 1.02000   1
  11   3  -6 3.81000 1.45000   1
  -2   0  14 8.08000 1.36000   1
   2   0 -14 6.39000 1.01000   1
   2   0 -14 9.25000 1.26000   1
   7   6 -13 6.90000 1.01000   1
  -7  -6  13 9.92000 1.68000   1
   7   6 -13 9.51000 1.41000   1
   7   6 -13 11.3100 1.73000   1
  -2   3 -13 26.0300 1.78000   1
  -2   3 -13 28.0000 2.42000   1
   2  -3  13 29.1900 2.31000   1
  -9  10  -3 29.0400 1.94000   1
   3  12  -1 1.59000 1.21000   1
   3  12  -1 3.17000 0.83000   1
  -8   1  13 0.27000 0.68000   1
   8  -1 -13 0.59000 0.98000   1
   2  13  -3 12.3400 1.62000   1
   2  13  -3 10.7200 1.12000   1
   1   7 -14 1.67000 0.95000   1
  -1  -7  14 3.20000 1.02000   1
   1   7 -14 2.30000 0.91000   1
   6  10  -2 27.2200 2.49000   1
   6  10  -2 28.4700 2.61000   1
   6 -13   0 15.4000 1.43000   1
  -6  13   0 14.3700 1.16000   1
  -6  13   0 16.9800 1.48000   1
   1  13  -1 23.5200 2.27000   1
   1  13  -1 24.6800 1.91000   1
  -7  11   5 19.1300 1.93000   1
   7 -11  -5 23.1700 2.26000   1
  -8  -7  11 12.2100 2.07000   1
   8   7 -11 16.2800 2.28000   1
   8   7 -11 18.2800 2.09000   1
   0   9 -13 17.6300 2.11000   1
   0   9 -13 20.8500 1.76000   1
   0   9 -13 16.3000 1.34000   1
   0  -9  13 21.3500 1.92000   1
  -8  -4  13 18.7900 2.13000   1
   8   4 -13 20.5800 2.27000   1
   8   4 -13 16.5900 1.36000   1
   1   1 -14 12.8000 1.35000   1
   1   1 -14 10.9700 1.34000   1
  -1  -1  14 10.8600 1.58000   1
  11   3  -5 15.6600 1.88000   1
 -11  -3   5 16.6200 1.91000   1
  11   3  -5 18.1900 1.62000   1
  -8  11  -4 7.36000 0.88000   1
   4  10   2 9.61000 1.51000   1
  -4 -10  -2 4.33000 1.40000   1
   4  10   2 8.15000 1.30000   1
   9  -2 -12 6.79000 1.35000   1
  -9   2  12 7.06000 1.02000   1
  11  -2   1 9.37000 0.99000   1
 -11   2  -1 6.60000 0.94000   1
   9   7  -8 12.8600 1.97000   1
   9   7  -8 15.5100 2.05000   1
  -9  -7   8 11.1100 1.83000   1
   0  -3  14 0.79000 0.82000   1
   0   3 -14 1.18000 0.80000   1
   0   3 -14 1.46000 0.95000   1
   8   6 -12 3.29000 0.83000   1
   8   6 -12 5.04000 1.24000   1
   8   6 -12 6.02000 1.31000   1
  -8  -6  12 4.25000 1.40000   1
 -11  -1   1 10.8000 1.15000   1
  11   1  -1 12.2500 1.31000   1
  11   1  -1 13.3300 1.32000   1
  -3  -8  -6 0.72000 0.75000   1
   3   8   6 1.04000 0.77000   1
   3   8   6 -0.1600 0.75000   1
  -3  -8  -6 0.49000 0.93000   1
   0  -1 -13 7.83000 1.20000   1
   0   1  13 5.06000 0.77000   1
   0   1  13 6.57000 1.30000   1
   0  -1 -13 6.58000 0.96000   1
  10   1   2 6.82000 1.05000   1
 -10  -1  -2 3.33000 0.92000   1
  -2  14  -4 17.5100 1.65000   1
  -4  11   6 -0.5000 0.36000   1
   4 -11  -6 0.76000 0.78000   1
  -4  11   6 0.74000 0.79000   1
   3   6   8 4.26000 1.05000   1
   3   6   8 3.87000 0.87000   1
  -3  -6  -8 4.81000 0.81000   1
  -3  -6  -8 8.49000 1.29000   1
   4  -1 -14 4.17000 1.14000   1
   4  -1 -14 1.95000 0.71000   1
  -4   1  14 1.59000 0.97000   1
  -2  14  -3 0.75000 0.75000   1
  10  -4   4 10.6500 1.03000   1
 -10   4  -4 8.75000 1.12000   1
  10   4 -10 3.14000 1.23000   1
  10   4 -10 2.30000 1.09000   1
 -10  -4  10 -0.3400 1.04000   1
   1  -2 -13 9.52000 1.23000   1
  -1   2  13 10.2600 1.26000   1
   1  -2 -13 12.6700 1.31000   1
  -1   2  13 14.7200 1.43000   1
   4  11   0 16.8900 1.93000   1
   4  11   0 9.66000 1.49000   1
   7   9  -2 12.7300 1.71000   1
   7   9  -2 13.6900 1.43000   1
   0 -10  -6 11.7500 1.62000   1
   0  10   6 11.2200 1.27000   1
   0  10   6 14.6400 1.53000   1
   0 -10  -6 11.4800 1.40000   1
   2 -10  -7 1.76000 0.81000   1
  -2  10   7 0.63000 0.86000   1
  -2  10   7 -0.6200 0.51000   1
 -10   5  -4 19.7600 1.74000   1
  10  -5   4 18.9000 1.33000   1
  10  -2 -11 14.1000 1.73000   1
 -10   2  11 10.9100 1.25000   1
  -7  -2  14 -0.5700 0.93000   1
   7   2 -14 2.18000 0.95000   1
   5  -1 -14 21.2000 2.01000   1
  -5   1  14 21.4900 1.97000   1
   5  -1 -14 17.0200 1.16000   1
  11   3  -7 13.5600 2.07000   1
  11   3  -7 21.2500 1.96000   1
 -11  -3   7 13.0600 1.92000   1
   7  -6 -11 7.86000 1.36000   1
  -7   6  11 6.93000 0.99000   1
   3 -13  -2 19.2700 2.12000   1
  -3  13   2 20.1100 1.84000   1
  -3  13   2 13.9300 0.98000   1
  -8  10   6 7.43000 1.14000   1
   8 -10  -6 4.01000 1.13000   1
   4 -13  -2 12.2000 1.57000   1
  -4  13   2 10.2900 1.53000   1
  11   0   0 7.07000 1.07000   1
  11   0   0 9.17000 1.13000   1
 -11   0   0 7.93000 0.96000   1
  -5  11   6 0.62000 0.83000   1
   5 -11  -6 0.77000 0.84000   1
  -5  11   6 0.29000 0.36000   1
  -6   5 -10 1.90000 0.82000   1
   6  -5  10 2.92000 0.88000   1
   4  10 -12 4.48000 1.35000   1
  -4 -10  12 6.71000 1.44000   1
   4  10 -12 6.88000 1.31000   1
   4  10 -12 7.68000 1.38000   1
   0   6 -14 10.3200 1.21000   1
   0   6 -14 14.9000 1.77000   1
   0  -6  14 14.2400 1.48000   1
  11  -7  -5 0.06000 0.55000   1
   8 -11  -4 0.81000 0.74000   1
  -8  11   4 0.26000 0.68000   1
   9   7  -4 10.8900 1.86000   1
   9   7  -4 14.9000 1.79000   1
  -5  -2  -9 20.7000 2.15000   1
   5   2   9 21.7500 2.12000   1
  -5  -2  -9 18.4600 1.35000   1
  11  -3  -9 1.08000 1.05000   1
 -11   3   9 1.05000 0.64000   1
 -11   7   0 4.15000 0.68000   1
   2 -11  11 0.34000 0.49000   1
  -2  11 -11 -0.1900 0.78000   1
  -2  11 -11 -0.3100 0.63000   1
  -2  11 -11 0.55000 0.36000   1
  -3  14  -3 19.0600 1.71000   1
  -3  14  -3 11.8800 1.54000   1
   5   6   6 0.53000 0.78000   1
  -5  -6  -6 0.06000 0.91000   1
   4  -9  11 7.92000 0.87000   1
  -4   9 -11 5.57000 0.73000   1
  -4   9 -11 9.45000 1.27000   1
   4   8   5 6.84000 1.17000   1
  -4  -8  -5 3.28000 1.33000   1
   4   8   5 6.44000 1.07000   1
   1   4  11 3.43000 0.73000   1
   1   4  11 3.13000 0.98000   1
  -1  -4 -11 4.91000 1.05000   1
  -1  -4 -11 1.31000 0.76000   1
  -5   5 -11 26.6200 2.47000   1
   5  -5  11 24.0500 2.10000   1
   1 -14   4 -0.4700 0.42000   1
  -1  14  -4 0.26000 0.84000   1
  -9   5  -6 1.00000 0.76000   1
   9  -5   6 0.93000 0.54000   1
   4  12  -8 14.4900 1.64000   1
  -4 -12   8 10.3000 1.74000   1
   7   3 -14 1.65000 0.91000   1
  -7  -3  14 -0.00000 0.8500   1
   7   3 -14 -0.0200 0.46000   1
  -6   5  12 31.3500 2.27000   1
   6  -5 -12 29.8200 2.73000   1
 -11   6  -1 12.5500 1.08000   1
  -3   1 -12 0.62000 0.95000   1
  -3   1 -12 1.05000 0.54000   1
   3  -1  12 0.95000 0.97000   1
   7   3   6 2.42000 0.53000   1
   7   3   6 3.12000 1.11000   1
  -7  -3  -6 2.20000 0.97000   1
   7   9 -10 2.10000 1.12000   1
   7   9 -10 0.51000 1.26000   1
  -7  -9  10 0.40000 1.11000   1
  -9  -4  12 1.96000 1.21000   1
   9   4 -12 2.67000 0.65000   1
   9   4 -12 3.45000 1.32000   1
   2  -6 -11 13.7300 1.37000   1
   2  -6 -11 11.9800 1.74000   1
  -2   6  11 19.2600 1.82000   1
  -2   6  11 13.0900 1.53000   1
  -4  13  -7 13.6900 1.66000   1
  -4  13  -7 12.3300 1.25000   1
  -2  12 -10 17.8900 1.38000   1
  -2  12 -10 25.3000 2.25000   1
   2 -12  10 18.6900 1.39000   1
  -1   4  12 2.58000 0.94000   1
   1  -4 -12 3.24000 0.95000   1
   1  -4 -12 3.68000 1.05000   1
  -1   4  12 6.91000 0.96000   1
  -3  14  -4 16.7700 1.77000   1
  -3  14  -4 15.4300 1.65000   1
  -2  12   4 17.6600 1.35000   1
   2 -12  -4 19.3600 1.85000   1
  -2  12   4 22.2300 2.15000   1
  -2  14  -5 3.44000 1.15000   1
  -2  14  -5 4.54000 0.96000   1
  -2  -7  -8 9.28000 1.41000   1
   2   7   8 6.67000 1.11000   1
   2   7   8 8.35000 1.29000   1
  -2  -7  -8 7.26000 1.21000   1
  -9   4  -6 5.00000 1.10000   1
   9  -4   6 6.02000 0.87000   1
  -7  -1  14 5.79000 1.30000   1
   7   1 -14 8.53000 1.30000   1
  11   2  -2 3.36000 0.94000   1
 -11  -2   2 2.24000 0.72000   1
  11   2  -2 1.63000 0.85000   1
   4   9 -13 -0.1500 0.85000   1
   4   9 -13 1.50000 0.78000   1
  -4  -9  13 -1.6600 1.02000   1
   4   9 -13 0.76000 0.74000   1
  -6   4 -10 3.03000 0.94000   1
   6  -4  10 1.92000 0.90000   1
   5   0  10 6.54000 1.11000   1
  -5   0 -10 0.10000 1.11000   1
   6  -6  10 16.4100 1.46000   1
  -6   6 -10 17.1000 1.74000   1
   2   8   7 0.14000 0.66000   1
   2   8   7 0.25000 0.80000   1
  -2  -8  -7 0.27000 0.76000   1
  -2  -8  -7 0.52000 0.77000   1
  -5  -7  -5 -0.5300 0.88000   1
   5   7   5 -1.1200 0.71000   1
   5   7   5 1.47000 0.65000   1
   4   5   8 0.14000 0.79000   1
  -4  -5  -8 0.72000 0.53000   1
   4   5   8 -0.0400 0.52000   1
  -4  -5  -8 1.75000 0.93000   1
  -3  11   6 6.86000 0.81000   1
  -3  11   6 8.95000 1.40000   1
   3 -11  -6 9.44000 1.48000   1
  10   5  -3 10.6600 1.58000   1
  10   5  -3 9.00000 1.57000   1
 -10  -5   3 8.57000 1.18000   1
 -11  -3   4 10.3000 1.20000   1
  11   3  -4 8.51000 1.40000   1
  11   3  -4 9.06000 1.49000   1
  11   3  -4 9.14000 1.58000   1
   5  11  -2 3.74000 1.09000   1
   5  11  -2 2.15000 0.98000   1
   2  -7  13 8.14000 1.30000   1
  -2   7 -13 7.47000 0.83000   1
  -2   7 -13 9.60000 1.54000   1
  -2  -3 -11 14.2700 1.25000   1
   2   3  11 11.7000 1.77000   1
  -2  -3 -11 13.0300 1.70000   1
   2   3  11 14.2900 1.24000   1
   1 -14   5 7.90000 0.99000   1
  -1  14  -5 11.5300 1.43000   1
   1  12   2 8.70000 1.03000   1
   1  12   2 8.67000 1.48000   1
  -8   8  -7 -0.8800 0.70000   1
  10  -3   4 0.92000 0.66000   1
 -10   3  -4 2.44000 0.71000   1
  -9  11   0 0.99000 0.47000   1
   9 -11   0 0.76000 0.55000   1
  -9  11   0 0.56000 0.46000   1
   6  10 -10 2.90000 1.15000   1
  -6 -10  10 0.47000 1.19000   1
  -4  -2 -10 17.8200 2.02000   1
   4   2  10 16.4200 1.91000   1
  -4  -2 -10 15.7700 1.21000   1
   5  -4  11 9.60000 1.20000   1
  -5   4 -11 10.3000 1.62000   1
   4  12  -3 9.96000 1.84000   1
   4  12  -3 14.4800 1.40000   1
   2   1  12 2.46000 0.92000   1
  -2  -1 -12 2.20000 0.57000   1
   2   1  12 2.34000 0.61000   1
  -2  -1 -12 3.59000 1.04000   1
  -5   6 -11 2.51000 0.97000   1
   5  -6  11 6.05000 1.03000   1
   9  -7  -9 23.5700 2.45000   1
  -9   7   9 20.4000 1.52000   1
  -3  14  -2 -0.4000 0.69000   1
   1 -14   3 6.79000 0.97000   1
  -1  14  -3 8.95000 1.32000   1
   3  -5 -12 4.03000 0.86000   1
   3  -5 -12 2.13000 0.99000   1
  -3   5  12 3.08000 0.95000   1
  -3   5  12 5.58000 0.95000   1
   9 -11  -1 17.8400 1.43000   1
  -9  11   1 15.9000 1.21000   1
  -9  11   1 14.6400 1.03000   1
  10   4  -1 13.0400 1.57000   1
  10   4  -1 17.4900 1.66000   1
 -10  -4   1 13.1100 1.57000   1
   3  -1 -14 3.21000 1.13000   1
   3  -1 -14 2.50000 0.66000   1
  -3   1  14 2.33000 0.99000   1
  -2  14  -2 6.06000 1.19000   1
 -12   3   4 26.0900 1.83000   1
  12  -2  -5 15.9800 1.72000   1
 -12   2   5 19.9900 1.51000   1
  -7  12   3 7.29000 0.64000   1
  -7  12   3 8.56000 1.15000   1
   7 -12  -3 9.84000 1.41000   1
  -6   0  -9 2.12000 1.01000   1
   6   0   9 1.68000 1.00000   1
  -6  13  -4 1.10000 0.46000   1
  -6  13  -4 1.02000 0.69000   1
   7   7   2 2.90000 1.21000   1
  -7  -7  -2 6.32000 1.13000   1
   7   7   2 2.76000 1.08000   1
  10   5  -9 -0.2500 1.23000   1
 -10  -5   9 2.44000 1.17000   1
  10   5  -9 3.23000 1.21000   1
 -12   2   4 20.5400 1.60000   1
 -10   6  -4 17.1000 1.59000   1
  -6  -2  -8 21.7200 2.27000   1
   6   2   8 22.9900 2.06000   1
  -3  13  -8 10.9800 1.44000   1
  -3  13  -8 11.2100 1.09000   1
   8 -12   0 7.12000 1.02000   1
  -8  12   0 5.49000 0.83000   1
  -8  12   0 5.79000 0.64000   1
  -9   6  -6 16.5900 1.62000   1
   9  -6   6 15.8200 1.31000   1
  -7   9  -8 0.73000 0.86000   1
   5   5   7 8.93000 1.00000   1
   5   5   7 10.3700 1.46000   1
  -5  -5  -7 5.41000 1.40000   1
 -10   8  -3 9.49000 0.97000   1
 -11  -2   9 23.9500 2.29000   1
  11   2  -9 20.4300 2.61000   1
  11   2  -9 26.7800 2.53000   1
 -12   3   5 6.47000 0.81000   1
  12  -3  -5 7.92000 1.21000   1
  -8  12  -1 0.35000 0.42000   1
  -8  12  -1 0.64000 0.40000   1
   0  13  -9 0.16000 0.81000   1
   0  13  -9 0.23000 0.88000   1
   0 -13   9 0.59000 0.63000   1
  10   3 -11 12.6600 1.93000   1
 -10  -3  11 11.1300 1.81000   1
  10   3 -11 13.2100 1.85000   1
  -1   0 -13 2.57000 0.66000   1
   1   0  13 2.56000 1.04000   1
   1   0  13 2.32000 0.51000   1
  -1   0 -13 4.93000 1.07000   1
  -5  13  -6 16.2000 1.15000   1
  -5  13  -6 17.4700 1.75000   1
   6 -12  -4 3.81000 1.03000   1
  -6  12   4 3.61000 1.12000   1
   9  -8  -8 16.2700 1.82000   1
  -9   8   8 9.86000 0.73000   1
  -9   8   8 13.6700 1.59000   1
   2  11   3 2.16000 0.76000   1
   2  11   3 2.53000 0.96000   1
  -6  13   1 1.71000 0.83000   1
  -6  13   1 1.02000 0.51000   1
   6 -13  -1 0.88000 1.02000   1
  -8   4  12 16.1800 1.61000   1
   8  -4 -12 20.7600 2.27000   1
   0  -2  14 8.55000 1.24000   1
   0   2 -14 6.56000 1.17000   1
   0   2 -14 9.38000 1.28000   1
   7  -5   9 5.86000 0.91000   1
  -7   5  -9 8.05000 1.12000   1
  -2  13   2 14.3500 1.11000   1
   2 -13  -2 14.2800 1.93000   1
  -2  13   2 13.4200 1.68000   1
  -7  10   7 5.28000 0.55000   1
   7 -10  -7 6.69000 1.41000   1
  -7  10   7 10.0800 1.34000   1
  -2   2 -13 4.77000 0.69000   1
  -2   2 -13 4.14000 1.27000   1
   2  -2  13 3.50000 1.19000   1
   0 -12  -3 9.70000 1.22000   1
   0  12   3 11.8300 1.64000   1
   0  12   3 10.9600 1.13000   1
  -2 -13   8 2.57000 0.88000   1
   2  13  -8 3.02000 1.15000   1
   5 -13  -2 12.0100 1.75000   1
  -5  13   2 11.5200 1.37000   1
   2  12   1 6.52000 1.11000   1
   2  12   1 7.68000 1.48000   1
  -1  13  -9 18.4700 1.61000   1
  -1  13  -9 17.3300 2.06000   1
   1 -13   9 17.8500 1.61000   1
  -9  11  -1 15.8800 1.12000   1
  -9  11  -1 15.0600 1.08000   1
  -1   8   9 32.7300 2.58000   1
   1  -8  -9 38.5100 2.82000   1
  -1   8   9 35.3300 2.89000   1
   1  -8  -9 30.9700 2.83000   1
  11  -5  -8 0.84000 0.75000   1
 -11   5   8 0.40000 0.46000   1
   0  -5 -11 1.26000 0.78000   1
   0   5  11 2.50000 0.90000   1
   0   5  11 1.63000 0.71000   1
   0  -5 -11 2.33000 0.77000   1
  -9   6  10 9.59000 0.93000   1
   9  -6 -10 11.0400 1.51000   1
 -11   6   7 0.87000 0.47000   1
  11  -6  -7 0.63000 0.78000   1
   9   6  -1 3.77000 1.01000   1
  -9  -6   1 2.38000 0.99000   1
   9   6  -1 2.41000 0.97000   1
 -12   3   3 -0.1100 0.41000   1
 -12   3   3 0.44000 0.46000   1
   3   9   5 9.31000 1.42000   1
  -3  -9  -5 7.04000 1.31000   1
   3   9   5 9.91000 1.35000   1
  -8  -1  -6 0.80000 0.90000   1
   8   1   6 1.49000 0.83000   1
   6  -1 -14 3.19000 1.21000   1
  -6   1  14 2.61000 1.01000   1
   1  11   4 1.97000 0.68000   1
  -1 -11  -4 0.79000 0.97000   1
   1  11   4 1.19000 0.86000   1
  -3  14  -5 6.90000 1.14000   1
  -3  14  -5 2.02000 0.82000   1
  -2  -8  14 12.8900 1.71000   1
   2   8 -14 10.6300 1.40000   1
   2   8 -14 9.98000 1.68000   1
   2   8 -14 10.1200 1.17000   1
 -12   1   5 7.45000 0.95000   1
  12  -1  -5 5.81000 0.95000   1
  11   3  -8 0.51000 0.97000   1
 -11  -3   8 1.40000 0.84000   1
  11   3  -8 0.48000 0.93000   1
  -3  -5  -9 0.94000 0.63000   1
   3   5   9 1.19000 0.64000   1
   3   5   9 1.23000 0.87000   1
  -3  -5  -9 1.63000 1.01000   1
  -7  -4  14 12.2500 1.52000   1
   7   4 -14 8.22000 1.51000   1
   7   4 -14 5.54000 0.78000   1
   9  -3   6 6.67000 1.05000   1
  -9   3  -6 5.60000 0.97000   1
  -2  -6  -9 -0.5000 0.78000   1
   2   6   9 0.67000 0.76000   1
  -2  -6  -9 1.35000 0.75000   1
   2   6   9 1.05000 0.82000   1
 -10   9  -2 11.9400 0.99000   1
  -4   0 -11 3.73000 1.16000   1
   4   0  11 3.19000 1.09000   1
   9   7  -9 9.04000 1.72000   1
   9   7  -9 11.2500 1.81000   1
  -9  -7   9 8.01000 1.63000   1
   8   8 -10 6.35000 1.37000   1
   8   8 -10 4.30000 1.48000   1
  -8  -8  10 4.94000 1.56000   1
   8   7   0 -0.8700 0.80000   1
  -8  -7   0 1.07000 0.90000   1
   8   7   0 2.37000 0.95000   1
  -5  11  -9 11.2500 1.50000   1
   2  13  -2 12.7600 1.24000   1
   2  13  -2 10.5800 1.45000   1
  11  -1   1 15.6000 1.51000   1
 -11   1  -1 10.7900 1.40000   1
   2  -3 -13 11.8500 1.69000   1
  -2   3  13 17.8100 1.71000   1
  -2   3  13 14.3300 1.39000   1
   2  -3 -13 13.7300 1.36000   1
   9 -10  -5 2.44000 0.97000   1
  -9  10   5 5.85000 0.96000   1
  12  -2  -6 1.90000 0.82000   1
 -12   2   6 3.86000 0.74000   1
 -12   4   4 9.75000 1.02000   1
 -11   8   2 1.53000 0.47000   1
   7  -6   9 4.04000 0.88000   1
  -7   6  -9 6.54000 1.19000   1
  -6  11   6 11.0000 1.66000   1
   6 -11  -6 14.4800 1.83000   1
  -7   4  -9 14.2300 1.54000   1
   7  -4   9 15.1200 1.58000   1
  10   0   3 4.68000 1.07000   1
 -10   0  -3 1.89000 1.01000   1
  -4  14  -3 1.71000 0.80000   1
  -4  14  -3 3.96000 0.80000   1
  -8  12   1 -0.1200 0.47000   1
   8 -12  -1 -0.4000 0.61000   1
  -8  12   1 -0.0300 0.33000   1
  -3  -8  14 5.06000 1.33000   1
   3   8 -14 5.54000 0.99000   1
   3   8 -14 4.07000 1.28000   1
   3   8 -14 5.18000 1.15000   1
  -9  11   2 20.2100 1.41000   1
   9 -11  -2 15.0300 1.55000   1
   1  11 -12 2.37000 1.05000   1
   1  11 -12 0.67000 0.63000   1
   1  11 -12 1.09000 0.87000   1
  -1 -11  12 0.35000 0.72000   1
 -12   2   3 0.69000 0.41000   1
 -12   2   3 1.42000 0.62000   1
   5   7 -14 3.81000 1.29000   1
   5   7 -14 8.82000 1.27000   1
   5   7 -14 2.20000 0.96000   1
  -5  -7  14 4.14000 1.39000   1
  -7   3  13 2.21000 0.93000   1
   7  -3 -13 2.03000 1.20000   1
   1  -9  -8 24.2500 2.02000   1
   1  -9  -8 24.7800 2.21000   1
  -1   9   8 27.0000 2.43000   1
  -1   9   8 23.6400 1.86000   1
   2   9   6 7.22000 1.32000   1
   2   9   6 6.46000 1.20000   1
  -2  -9  -6 8.75000 1.29000   1
  -2  -9  -6 6.81000 1.26000   1
 -12   1   4 0.47000 0.67000   1
 -12   1   4 1.71000 0.55000   1
   4  -5  12 21.7800 2.13000   1
  -4   5 -12 25.2400 2.45000   1
   1 -14   6 0.02000 0.41000   1
  -1  14  -6 0.82000 0.90000   1
  -1  14  -6 0.19000 0.78000   1
  -6   3 -10 8.37000 1.32000   1
   6  -3  10 6.27000 1.13000   1
   6  -7  10 6.91000 0.87000   1
  -6   7 -10 5.44000 1.28000   1
   8   8  -2 16.4100 2.04000   1
   8   8  -2 14.0800 1.76000   1
   8  -1   7 7.04000 1.23000   1
  -8   1  -7 6.56000 1.24000   1
   6   6 -14 10.6400 1.73000   1
   6   6 -14 11.2700 1.61000   1
   6   6 -14 12.7900 1.44000   1
  -6  -6  14 14.0000 1.87000   1
  -7   0  14 6.87000 1.36000   1
   7   0 -14 13.3600 1.62000   1
  -4 -11  11 10.2500 1.74000   1
   4  11 -11 13.7100 1.72000   1
   4  11 -11 8.89000 1.48000   1
 -11   8   3 7.96000 0.79000   1
  11  -8  -3 8.46000 1.05000   1
  10  -7  -8 7.49000 1.50000   1
 -10   7   8 9.22000 0.82000   1
  -3 -12  10 21.9300 2.13000   1
   3  12 -10 22.2900 2.33000   1
   3  12 -10 21.3600 2.33000   1
 -10   9   5 -0.2600 0.53000   1
  10  -9  -5 0.99000 0.66000   1
  -7  12  -5 0.06000 0.62000   1
  -4  14  -2 17.6100 1.70000   1
  -4  14  -2 16.9200 1.56000   1
  -8  12  -2 3.67000 0.55000   1
  -8  12  -2 3.93000 0.60000   1
 -10   6   9 0.88000 0.48000   1
  10  -6  -9 0.78000 0.86000   1
 -12   4   3 9.51000 0.88000   1
   0   7 -14 20.0300 2.25000   1
   0   7 -14 21.1600 1.76000   1
   0  -7  14 22.2400 2.18000   1
  -2  14  -6 10.4000 1.53000   1
  -2  14  -6 7.38000 1.10000   1
   1  13  -9 23.0500 1.96000   1
  -1 -13   9 18.6500 1.76000   1
   1  13  -9 24.4200 2.48000   1
   5  -3  11 6.01000 1.19000   1
  -5   3 -11 7.96000 1.42000   1
  12  -1  -6 11.9100 1.29000   1
 -12   1   6 11.5600 1.26000   1
  11   0 -10 10.2900 1.61000   1
 -11   0  10 8.60000 1.45000   1
  -7 -10   6 0.28000 0.97000   1
   7  10  -6 2.08000 1.19000   1
   5  -7  11 4.92000 0.80000   1
  -5   7 -11 4.76000 1.06000   1
  -9   0  -5 6.18000 1.18000   1
   9   0   5 6.50000 1.21000   1
  -8   2  13 5.15000 0.97000   1
   8  -2 -13 4.74000 1.45000   1
   0 -14   5 1.73000 0.65000   1
   0  14  -5 3.91000 1.00000   1
   0  14  -4 13.9900 1.74000   1
   0 -14   4 12.8300 1.23000   1
  -1  14  -2 8.25000 1.19000   1
  -1  14  -2 7.07000 0.72000   1
   5   8   4 10.6600 1.41000   1
  -5  -8  -4 8.47000 1.55000   1
   5   8   4 8.58000 1.47000   1
 -12   3   6 9.63000 1.02000   1
  12  -3  -6 11.0400 1.27000   1
  11  -1 -10 4.01000 1.15000   1
 -11   1  10 6.60000 1.16000   1
  -5  12  -8 2.92000 0.89000   1
 -12   4   5 0.07000 0.57000   1
  12  -4  -5 0.43000 0.53000   1
   8   5 -13 9.61000 1.62000   1
   8   5 -13 12.0900 1.77000   1
   8   5 -13 8.90000 0.96000   1
  -8  -5  13 9.76000 1.62000   1
   8  -8  -9 -0.9600 0.91000   1
  -8   8   9 0.45000 0.39000   1
  -8   8   9 1.42000 0.84000   1
  -2  10 -12 0.45000 0.93000   1
  -2  10 -12 -0.2800 0.60000   1
   2 -10  12 0.88000 0.56000   1
  -3  14  -1 10.1800 1.45000   1
  -1   7  10 8.73000 1.41000   1
   1  -7 -10 7.25000 1.34000   1
  -1   7  10 10.0000 1.23000   1
   1  -7 -10 8.74000 1.23000   1
   7  10  -7 15.5800 2.43000   1
  -7 -10   7 22.6900 2.47000   1
  -4  11 -10 8.23000 0.90000   1
  -4  11 -10 7.97000 1.38000   1
 -11   8   1 7.23000 0.67000   1
   4  -4  12 11.9900 1.31000   1
  -4   4 -12 9.47000 1.47000   1
  -4   6 -12 8.20000 1.50000   1
   4  -6  12 5.96000 1.10000   1
  -4  12  -9 21.9300 2.00000   1
   3  11   2 0.61000 0.78000   1
   3  11   2 0.07000 0.94000   1
  -2 -11  12 -0.4800 0.77000   1
   2  11 -12 0.12000 0.97000   1
   2  11 -12 1.25000 0.74000   1
   2  11 -12 1.01000 1.01000   1
  10  -2   4 18.2200 1.78000   1
 -10   2  -4 14.3300 1.44000   1
  10  -3 -11 2.41000 1.32000   1
 -10   3  11 2.15000 0.77000   1
  -6  11  -8 8.86000 1.36000   1
  -4  14  -4 1.00000 0.72000   1
  -4  14  -4 -0.4100 0.55000   1
   8  -7 -10 7.85000 1.33000   1
  -8   7  10 7.19000 0.78000   1
   9   7  -3 7.52000 1.45000   1
   9   7  -3 11.1300 1.65000   1
   1  -9  13 0.97000 0.74000   1
  -1   9 -13 1.30000 0.91000   1
  -1   9 -13 -0.6200 0.66000   1
 -11   4  -2 12.2900 1.19000   1
  11  -4   2 8.77000 0.92000   1
   0  11 -12 19.0200 1.99000   1
   0  11 -12 14.9300 1.85000   1
   0 -11  12 15.3600 1.46000   1
   0  11 -12 17.1400 1.42000   1
  -4  -9  -4 20.4800 2.35000   1
   4   9   4 23.4300 2.16000   1
   4   9   4 22.3500 2.11000   1
   6   6   5 0.97000 0.66000   1
  -6  -6  -5 2.41000 0.96000   1
   6   6   5 -1.1600 0.77000   1
   4   3 -15 1.77000 0.71000   1
   4   3 -15 2.24000 1.03000   1
  -4  -3  15 0.69000 1.00000   1
 -11  -3   3 -0.2900 0.56000   1
  11   3  -3 -0.0700 0.74000   1
  11   3  -3 -0.1700 0.85000   1
  11   3  -3 -1.4400 0.75000   1
  10 -10  -1 3.72000 0.83000   1
 -10  10   1 3.38000 0.58000   1
  -8  10  -6 12.5000 1.48000   1
  -1  -8  14 2.03000 1.07000   1
   1   8 -14 7.85000 1.28000   1
   1   8 -14 2.32000 1.06000   1
   7   0   8 -0.6000 0.73000   1
  -7   0  -8 -0.2100 0.66000   1
   9  -3 -12 2.97000 1.22000   1
  -9   3  12 0.73000 0.73000   1
  -9   7  -6 4.82000 0.96000   1
   5  11 -10 2.01000 1.03000   1
  -5 -11  10 1.90000 1.02000   1
  -9  -4  -2 10.2800 1.26000   1
   9   4   2 8.96000 1.19000   1
   9   4   2 10.8300 1.43000   1
  -3  -4  15 26.8000 2.46000   1
   3   4 -15 24.6100 2.35000   1
   3   4 -15 22.5700 1.93000   1
  -6 -11   6 1.36000 1.15000   1
   6  11  -6 0.73000 1.16000   1
   4   4 -15 0.67000 0.98000   1
  -4  -4  15 1.02000 0.95000   1
   4   4 -15 0.76000 0.66000   1
  -3 -13   5 21.0300 1.99000   1
   3  13  -5 19.9800 2.12000   1
  -3  -2 -11 8.59000 0.90000   1
   3   2  11 8.78000 0.83000   1
   3   2  11 9.44000 1.52000   1
  -3  -2 -11 10.1900 1.55000   1
   3  13  -6 24.9700 2.39000   1
  -3 -13   6 21.8500 2.27000   1
  11  -4  -9 1.75000 1.31000   1
 -11   4   9 5.74000 0.80000   1
  -2  14  -1 9.85000 1.39000   1
  11  -7  -6 10.7200 1.25000   1
  -1   0  14 5.66000 1.01000   1
   1   0 -14 9.08000 1.27000   1
   1   0 -14 13.3800 1.25000   1
  -1   0  14 4.56000 1.14000   1
   6   9 -12 3.11000 1.18000   1
  -6  -9  12 3.86000 1.27000   1
   6   9 -12 0.85000 0.86000   1
   6   9 -12 0.92000 1.22000   1
   7  -5 -12 4.60000 1.32000   1
  -7   5  12 3.63000 0.93000   1
   6   9   1 5.08000 1.37000   1
   6   9   1 6.19000 1.35000   1
  -6  -9  -1 8.05000 1.42000   1
   9   3   3 12.4700 1.17000   1
   9   3   3 11.5600 1.58000   1
  -9  -3  -3 13.4300 1.56000   1
  -3   9 -12 0.22000 0.44000   1
   3  -9  12 0.35000 0.65000   1
  -3   9 -12 1.70000 0.91000   1
   7  10  -5 17.2200 2.34000   1
   7  10  -5 19.1500 1.87000   1
   0  13   1 0.79000 0.54000   1
   0  13   1 0.47000 0.76000   1
 -11   7  -1 0.29000 0.43000   1
   5  -8 -10 9.54000 1.59000   1
  -5   8  10 10.7200 1.52000   1
  -5   8  10 8.75000 0.99000   1
  -7  -8  12 10.3600 1.61000   1
   7   8 -12 9.82000 1.93000   1
   7   8 -12 10.3700 1.41000   1
   7   8 -12 12.3600 1.78000   1
 -10   7  -4 1.11000 0.63000   1
  -4 -12   9 9.71000 1.56000   1
   4  12  -9 6.51000 1.53000   1
  -2  11   6 0.69000 0.49000   1
   2 -11  -6 0.03000 0.73000   1
  -2  11   6 0.54000 0.91000   1
 -11   5  -2 1.60000 0.68000   1
   3   3 -15 7.84000 1.19000   1
  -3  -3  15 7.12000 1.42000   1
   3   3 -15 7.58000 1.37000   1
  -1  -8  -8 2.16000 0.85000   1
  -1  -8  -8 0.35000 0.97000   1
   1   8   8 0.63000 0.75000   1
   1   8   8 -0.0100 0.77000   1
   6   5   6 8.02000 1.53000   1
  -6  -5  -6 9.89000 1.49000   1
   6   5   6 10.4400 1.12000   1
  -1 -12  11 -0.9900 0.86000   1
   1  12 -11 -1.4000 1.04000   1
   1  12 -11 -0.7400 0.74000   1
 -11  -1  10 6.20000 1.08000   1
  11   1 -10 2.25000 1.10000   1
  -9  -6  11 0.90000 1.02000   1
   9   6 -11 1.24000 1.16000   1
   9   6 -11 0.79000 1.14000   1
 -10  10   2 4.62000 0.64000   1
  10 -10  -2 3.54000 0.79000   1
  -9   9  -5 9.21000 1.10000   1
   9  -9  -7 3.30000 1.20000   1
  -9   9   7 2.57000 0.94000   1
   0 -12  11 -0.2600 0.70000   1
   0  12 -11 -0.2100 0.62000   1
   0  12 -11 -1.1900 0.84000   1
  -5   9   9 5.55000 0.76000   1
  -5   9   9 6.15000 1.27000   1
   5  -9  -9 8.32000 1.42000   1
   6  11  -7 0.10000 0.77000   1
  -6 -11   7 -0.4000 0.96000   1
  -2 -10  13 13.7200 1.63000   1
   2  10 -13 8.07000 1.39000   1
   2  10 -13 8.54000 1.21000   1
   2  10 -13 10.3400 1.69000   1
  -2  13  -9 18.2600 1.50000   1
  -2  13  -9 15.0000 1.94000   1
 -12   3   2 12.3600 1.11000   1
 -12   3   2 14.1400 1.18000   1
   0  14  -6 3.63000 1.02000   1
   0 -14   6 5.49000 0.82000   1
   5  10   1 2.03000 1.04000   1
   5  10   1 3.19000 1.13000   1
 -11   3  -2 18.1300 1.48000   1
  11  -3   2 12.0500 1.21000   1
   6   8 -13 16.8900 2.13000   1
   6   8 -13 16.8600 1.78000   1
   6   8 -13 17.8100 2.14000   1
  -6  -8  13 18.3700 2.26000   1
  -9  11  -2 3.67000 0.56000   1
  -9  11  -2 1.16000 0.52000   1
  10   6  -6 5.81000 1.32000   1
 -10  -6   6 5.73000 1.33000   1
  10   6  -6 6.29000 1.17000   1
   0  14  -3 8.10000 1.38000   1
   0 -14   3 7.73000 1.22000   1
   1  13   0 0.97000 1.01000   1
   1  13   0 1.27000 0.64000   1
  -9  10  -4 0.62000 0.58000   1
   4  -8 -10 -0.9400 0.89000   1
   4  -8 -10 -0.4700 0.57000   1
  -4   8  10 0.11000 0.54000   1
  -4   8  10 -1.1300 0.84000   1
  -1 -10  13 0.46000 0.70000   1
   1  10 -13 0.71000 0.90000   1
   1  10 -13 0.18000 0.57000   1
   1  10 -13 0.72000 0.99000   1
 -12   1   3 15.3400 1.29000   1
 -12   1   3 17.0300 1.49000   1
  -9  -1  13 3.46000 1.17000   1
   9   1 -13 3.04000 1.32000   1
   5   4   8 8.80000 0.95000   1
   5   4   8 8.96000 1.46000   1
  -5  -4  -8 9.80000 1.08000   1
  -5  -4  -8 8.84000 1.47000   1
   7  -7   9 0.29000 0.45000   1
  -7   7  -9 -0.5300 0.78000   1
 -10  10   0 12.5700 0.98000   1
 -10  10   0 13.7200 1.00000   1
   7  -3   9 6.22000 1.01000   1
  -7   3  -9 5.38000 1.17000   1
  11  -8  -4 1.88000 0.68000   1
   4  -9  -9 3.55000 1.16000   1
  -4   9   9 2.93000 1.20000   1
  -4   9   9 4.58000 0.84000   1
  -4  14  -1 1.96000 0.91000   1
 -12   0   5 0.79000 0.50000   1
 -12   0   5 -0.4300 0.80000   1
  12   0  -5 1.29000 0.76000   1
  -8  -9   6 9.47000 1.89000   1
   8   9  -6 11.8900 1.90000   1
   4   4   9 4.98000 1.09000   1
   4   4   9 2.09000 0.61000   1
  -4  -4  -9 1.66000 0.74000   1
  -4  -4  -9 0.50000 1.09000   1
  -2   1  14 6.01000 1.13000   1
  -2   1  14 4.14000 0.89000   1
   2  -1 -14 5.09000 0.86000   1
   2  -1 -14 3.82000 1.13000   1
  10  -8  -7 7.82000 1.17000   1
 -11   2  10 1.43000 0.70000   1
  11  -2 -10 1.44000 1.11000   1
   2  -8  13 5.63000 0.91000   1
  -2   8 -13 4.24000 1.23000   1
  -2   8 -13 2.60000 0.66000   1
   6  10  -1 9.14000 1.25000   1
   6  10  -1 12.1500 1.72000   1
   7   2   7 17.9100 1.87000   1
  -7  -2  -7 18.7200 1.91000   1
   0  11   5 2.31000 1.06000   1
   0 -11  -5 1.54000 0.92000   1
   0  11   5 0.66000 0.62000   1
   6  11  -5 10.1600 1.36000   1
   6  11  -5 11.5700 1.90000   1
  10   6  -7 1.81000 1.04000   1
 -10  -6   7 4.04000 1.09000   1
  10   6  -7 4.61000 1.41000   1
   1   7   9 0.25000 0.87000   1
   1   7   9 2.17000 0.88000   1
  -1  -7  -9 1.54000 0.87000   1
  -1  -7  -9 2.54000 0.82000   1
  -8   9   8 0.49000 0.43000   1
   8  -9  -8 0.95000 0.92000   1
  -8   9   8 1.54000 0.82000   1
  -8  -9   7 -0.0700 0.89000   1
   8   9  -7 -0.6100 1.05000   1
 -12   4   2 2.72000 0.56000   1
 -12   4   2 3.05000 0.46000   1
   5  -4 -13 1.92000 0.98000   1
  -5   4  13 2.54000 0.94000   1
   8   4   4 -0.8000 0.53000   1
   8   4   4 1.41000 0.89000   1
  -8  -4  -4 1.65000 0.81000   1
 -10   5  10 1.07000 0.56000   1
  10  -5 -10 1.69000 1.11000   1
   4   8 -14 10.1500 1.46000   1
   4   8 -14 7.83000 1.62000   1
  -4  -8  14 11.6600 1.70000   1
   4   8 -14 10.3000 1.35000   1
   8   5   3 20.9800 1.80000   1
  -8  -5  -3 16.7200 1.98000   1
   8   5   3 24.1000 2.28000   1
   4   2 -15 23.1400 2.27000   1
  -4  -2  15 18.6100 2.08000   1
   4   2 -15 17.4300 1.49000   1
  12  -2  -7 15.3800 1.65000   1
 -12   2   7 18.4500 1.51000   1
   9   2 -13 4.47000 1.30000   1
  -9  -2  13 1.33000 1.11000   1
   7  10  -8 2.62000 1.41000   1
  -7 -10   8 5.54000 1.41000   1
  -3  -5  15 8.20000 1.47000   1
   3   5 -15 6.55000 1.19000   1
   3   5 -15 6.55000 1.08000   1
  12   0  -6 7.15000 1.01000   1
 -12   0   6 5.62000 1.11000   1
  -8  11  -5 9.52000 1.07000   1
  -6  13  -5 6.57000 0.68000   1
  -6  13  -5 6.43000 1.11000   1
  -9   5  11 4.34000 0.76000   1
   9  -5 -11 4.45000 1.39000   1
  -6  -7  -4 1.15000 1.05000   1
   6   7   4 1.72000 0.89000   1
   6   7   4 1.49000 0.89000   1
   4  12  -2 1.50000 1.09000   1
   4  12  -2 0.85000 0.81000   1
  -8  12   2 3.98000 0.81000   1
   8 -12  -2 5.82000 1.05000   1
  -6  12  -7 9.56000 1.32000   1
  -5  10 -10 12.7700 1.51000   1
   1 -12  -4 8.56000 1.46000   1
  -1  12   4 9.21000 1.50000   1
  -1  12   4 8.08000 0.94000   1
   1 -10  -7 1.17000 0.85000   1
   1 -10  -7 3.87000 1.07000   1
  -1  10   7 3.21000 0.82000   1
  -1  10   7 2.64000 1.08000   1
   3  12   0 3.04000 1.37000   1
   3  12   0 9.23000 1.20000   1
  12  -1  -7 2.04000 0.82000   1
 -12   1   7 2.41000 0.87000   1
  -1   5 -14 5.13000 1.47000   1
  -1   5 -14 7.88000 0.94000   1
   1  -5  14 6.94000 1.30000   1
  -3  14  -6 15.6700 1.86000   1
  -3  14  -6 14.1600 1.34000   1
  -7  13  -1 10.3000 0.97000   1
  -7  13  -1 9.93000 0.93000   1
   3  13  -4 0.11000 1.02000   1
   3  13  -4 3.09000 0.75000   1
  -2   5  12 7.16000 1.03000   1
  -2   5  12 2.97000 1.13000   1
   2  -5 -12 4.65000 0.82000   1
   2  -5 -12 1.46000 1.05000   1
   4  -4 -13 2.12000 0.94000   1
   4  -4 -13 3.45000 0.58000   1
  -4   4  13 1.21000 0.99000   1
  -4   4  13 3.52000 0.94000   1
  -3 -13   7 0.79000 0.84000   1
   3  13  -7 1.95000 1.10000   1
  -5  -3  15 0.07000 0.91000   1
   5   3 -15 0.23000 0.78000   1
   5   3 -15 0.41000 0.52000   1
   9  -2   6 24.3500 1.95000   1
  -9   2  -6 21.4300 1.87000   1
 -12   4   6 13.6700 1.15000   1
  12  -4  -6 14.1600 1.39000   1
 -12   2   2 7.53000 0.98000   1
 -12   2   2 9.78000 0.89000   1
  10   5  -2 8.14000 1.31000   1
 -10  -5   2 4.22000 1.05000   1
  10   5  -2 2.28000 1.12000   1
   7   7 -13 16.4600 1.57000   1
   7   7 -13 10.9300 1.57000   1
   7   7 -13 13.6900 2.10000   1
  -7  -7  13 13.9800 2.03000   1
  -9  -5  12 4.17000 1.35000   1
   9   5 -12 3.34000 0.92000   1
   9   5 -12 5.88000 1.53000   1
   9   5 -12 8.43000 1.34000   1
   1   9   7 1.42000 0.84000   1
   1   9   7 1.02000 0.94000   1
  -1  -9  -7 -0.5200 0.83000   1
  -1  -9  -7 1.44000 0.94000   1
  -1   4 -14 21.0300 2.14000   1
  -1   4 -14 19.7900 1.59000   1
   1  -4  14 23.4200 2.19000   1
   4  -3  12 2.60000 1.03000   1
  -4   3 -12 2.64000 1.21000   1
  -9  11   3 5.94000 0.98000   1
   9 -11  -3 5.46000 1.19000   1
 -11  -1   0 27.8900 1.94000   1
  11   1   0 15.1200 1.69000   1
   4   5 -15 2.58000 1.04000   1
  -4  -5  15 3.39000 1.18000   1
   4   5 -15 3.56000 0.88000   1
   9   0 -13 29.1000 2.94000   1
  -9   0  13 26.6900 2.49000   1
  10   6  -5 17.6900 1.78000   1
  10   6  -5 13.6700 1.93000   1
  10   6  -5 15.1200 2.18000   1
  -6  10  -9 11.1000 1.47000   1
   7   5 -14 1.10000 0.63000   1
  -7  -5  14 2.55000 1.12000   1
   7   5 -14 0.74000 1.07000   1
  -4   7 -12 -1.0100 0.79000   1
   4  -7  12 0.11000 0.68000   1
   7   9  -1 3.34000 1.11000   1
   7   9  -1 3.82000 1.06000   1
 -12   0   4 9.58000 1.19000   1
 -12   0   4 8.46000 0.98000   1
   9   5   1 11.2000 1.33000   1
   9   5   1 7.06000 1.50000   1
  -9  -5  -1 10.7900 1.45000   1
 -11   8   0 7.28000 0.77000   1
   6  -8 -10 1.17000 1.08000   1
  -6   8  10 2.33000 0.62000   1
  -6   8  10 2.90000 1.09000   1
   8  -6 -11 6.38000 1.49000   1
  -8   6  11 5.91000 0.86000   1
  -7  13  -2 2.68000 0.57000   1
  -7  13  -2 3.95000 0.65000   1
  -5   7  11 8.16000 1.45000   1
   5  -7 -11 12.2500 1.53000   1
  -5   7  11 7.90000 1.11000   1
   5  -2 -14 13.1500 1.82000   1
  -5   2  14 13.1900 1.59000   1
  -1  13   2 1.95000 1.12000   1
  -1  13   2 4.75000 0.72000   1
   0  -1  14 1.75000 0.75000   1
   0   1 -14 3.39000 1.11000   1
   0   1 -14 5.45000 0.91000   1
   0  -1  14 4.40000 1.07000   1
  -8  12  -3 7.76000 1.00000   1
  -8  12  -3 7.71000 0.69000   1
  10   1 -12 2.26000 1.23000   1
 -10  -1  12 2.14000 0.97000   1
   8   9  -5 4.97000 1.85000   1
   8   9  -5 11.8900 1.49000   1
  -4   2  14 0.39000 0.71000   1
   4  -2 -14 -0.3000 0.85000   1
   4  -2 -14 0.19000 0.42000   1
  -4  14  -5 11.8600 1.54000   1
  -4  14  -5 9.48000 1.19000   1
   3   2 -15 2.95000 1.08000   1
  -3  -2  15 3.36000 1.05000   1
   3   2 -15 1.45000 0.73000   1
   8  -5   8 12.0900 1.18000   1
  -8   5  -8 12.1000 1.52000   1
 -10   0  12 8.39000 1.34000   1
  10   0 -12 9.91000 1.67000   1
  -2  -5 -10 4.00000 1.14000   1
   2   5  10 3.19000 1.00000   1
  -2  -5 -10 1.55000 0.77000   1
   2   5  10 5.03000 0.81000   1
  11   2  -1 3.95000 0.98000   1
 -11  -2   1 3.18000 0.83000   1
  11   2  -1 4.01000 0.97000   1
   2   4 -15 5.42000 1.09000   1
  -2  -4  15 7.57000 1.32000   1
  -3  12 -10 18.1500 1.92000   1
  -5  -4  15 0.25000 0.87000   1
   5   4 -15 0.93000 0.61000   1
   5   4 -15 1.67000 1.01000   1
 -11  -3   9 15.5500 1.88000   1
  11   3  -9 15.5300 2.24000   1
  11   3  -9 17.1200 2.06000   1
  -6  13   2 1.16000 0.86000   1
   6 -13  -2 1.29000 0.87000   1
  -6  13   2 0.88000 0.64000   1
  -1  14  -7 8.03000 1.29000   1
  -1  14  -7 2.60000 1.07000   1
  10   5 -10 2.45000 1.18000   1
 -10  -5  10 1.82000 1.17000   1
  10   5 -10 2.09000 1.33000   1
  11   4  -6 5.43000 1.38000   1
 -11  -4   6 2.50000 1.28000   1
  11   4  -6 6.55000 1.11000   1
   4 -12  -5 -1.0000 0.90000   1
  -4  12   5 -0.4300 0.77000   1
  -4  12   5 0.06000 0.35000   1
  -5  -9  13 3.97000 1.40000   1
   5   9 -13 4.25000 1.40000   1
   5   9 -13 5.82000 1.05000   1
   5   9 -13 2.17000 1.27000   1
   9   2   4 7.27000 1.36000   1
  -9  -2  -4 6.33000 1.25000   1
  -5  -2  15 0.19000 0.82000   1
   5   2 -15 -0.1300 0.80000   1
   5   2 -15 0.52000 0.49000   1
  -6   9   9 1.09000 0.54000   1
  -6   9   9 0.95000 0.96000   1
   6  -9  -9 2.11000 1.05000   1
   7   8   1 5.85000 1.18000   1
   7   8   1 6.61000 1.24000   1
  -7  -8  -1 6.02000 1.20000   1
 -11   6  -2 1.87000 0.73000   1
   3   0  12 8.76000 1.50000   1
  -3   0 -12 9.54000 0.87000   1
  -3   0 -12 10.6000 1.50000   1
  10   4 -11 0.97000 1.05000   1
 -10  -4  11 0.55000 0.91000   1
  10   4 -11 1.00000 1.19000   1
   8 -11  -5 3.94000 1.24000   1
  -8  11   5 3.39000 1.02000   1
   7 -13   0 3.16000 1.03000   1
  -7  13   0 3.15000 0.79000   1
  -7  13   0 2.14000 0.55000   1
  -8   9  -7 -1.1200 0.72000   1
   2  12 -11 9.03000 1.52000   1
  -2 -12  11 9.85000 1.60000   1
   2  12 -11 12.2200 1.61000   1
  10 -10  -3 25.3600 1.90000   1
 -10  10   3 19.9500 1.46000   1
   6  11  -8 3.54000 1.33000   1
  -6 -11   8 2.88000 1.31000   1
 -12   3   7 5.36000 0.79000   1
  12  -3  -7 4.43000 1.07000   1
   6  -2  10 8.42000 1.41000   1
  -6   2 -10 11.8800 1.69000   1
   3  10 -13 1.42000 0.84000   1
  -3 -10  13 2.58000 1.11000   1
   3  10 -13 0.05000 1.05000   1
   3  10 -13 1.68000 0.95000   1
   6  -8  10 12.5800 1.12000   1
  -6   8 -10 14.1700 1.67000   1
   4  -7 -11 5.32000 1.21000   1
  -4   7  11 5.42000 0.85000   1
  -4   7  11 4.45000 1.04000   1
   2  -1  13 1.71000 1.00000   1
  -2   1 -13 0.49000 0.53000   1
  -2   1 -13 2.87000 1.01000   1
   5  10 -12 1.52000 1.11000   1
  -5 -10  12 2.17000 1.18000   1
   5  10 -12 1.05000 1.02000   1
   5  10 -12 0.63000 1.15000   1
   3  11 -12 7.98000 1.63000   1
   3  11 -12 7.26000 1.50000   1
   3  11 -12 9.73000 1.29000   1
  -3 -11  12 9.53000 1.42000   1
  12  -5  -5 4.79000 0.84000   1
 -12   5   5 6.55000 0.66000   1
  -8  -9   8 32.5100 3.24000   1
   8   9  -8 31.0700 3.33000   1
 -10  -3  -1 23.7500 2.04000   1
  10   3   1 24.6700 1.99000   1
  10   3   1 23.0100 2.26000   1
   7  10  -4 6.86000 1.36000   1
   7  10  -4 5.64000 1.60000   1
  -1   6 -14 2.14000 0.63000   1
  -1   6 -14 0.69000 0.88000   1
   1  -6  14 -0.0200 0.94000   1
   1 -12  11 18.4000 1.81000   1
  -1  12 -11 17.8700 1.49000   1
  -1  12 -11 21.4100 2.29000   1
   5  11  -1 9.84000 1.81000   1
   5  11  -1 11.9100 1.47000   1
  10   6  -8 6.73000 1.58000   1
  10   6  -8 8.20000 1.49000   1
 -10  -6   8 6.86000 1.50000   1
   7   9 -11 2.73000 1.52000   1
  -7  -9  11 4.86000 1.48000   1
   7   9 -11 5.69000 1.39000   1
   1  -6 -11 2.66000 0.84000   1
   1  -6 -11 3.21000 0.88000   1
  -1   6  11 2.84000 0.95000   1
  -1   6  11 1.95000 1.03000   1
   6  -4 -13 7.98000 1.45000   1
  -6   4  13 6.43000 1.17000   1
  -5   2 -11 15.4200 1.98000   1
   5  -2  11 16.7800 1.83000   1
  -7   1  14 1.81000 0.91000   1
   7  -1 -14 1.12000 1.04000   1
  -5  10   8 8.42000 0.86000   1
   5 -10  -8 12.1100 1.67000   1
  -5  10   8 10.5200 1.55000   1
  -2 -13   9 6.38000 1.20000   1
   2  13  -9 11.1500 1.49000   1
   2  13  -9 10.5400 1.74000   1
   8  -6   8 0.30000 0.48000   1
  -8   6  -8 0.15000 0.69000   1
  -4  13   3 18.2000 1.85000   1
   4 -13  -3 15.1900 2.00000   1
  -3  11 -11 7.42000 1.24000   1
  -3  11 -11 5.64000 0.84000   1
   3 -11  11 6.03000 0.75000   1
   8  -4   8 23.7900 1.88000   1
  -8   4  -8 22.5300 2.11000   1
   2   5 -15 15.8500 1.72000   1
   2   5 -15 13.0600 1.51000   1
  -2  -5  15 12.0500 1.73000   1
  11   4  -7 18.1100 1.96000   1
  11   4  -7 20.5200 2.37000   1
 -11  -4   7 15.4400 1.98000   1
   5  -8  11 4.25000 0.74000   1
  -5   8 -11 2.47000 1.10000   1
   2  10   5 1.83000 1.02000   1
  -2 -10  -5 1.26000 1.17000   1
  -2 -10  -5 1.81000 0.92000   1
   2  10   5 3.58000 0.93000   1
  -2  -3  15 0.89000 0.81000   1
   2   3 -15 -1.2100 0.64000   1
   2   3 -15 0.11000 0.68000   1
  -1  14  -1 0.79000 0.47000   1
  -1  14  -1 1.21000 0.96000   1
   4 -10  -8 2.03000 1.04000   1
  -4  10   8 0.84000 0.55000   1
  -4  10   8 3.10000 1.05000   1
  -6  -4  -7 17.3500 1.95000   1
   6   4   7 17.5700 1.57000   1
   6   4   7 15.0800 1.97000   1
   0  10 -13 4.38000 1.04000   1
   0 -10  13 5.89000 0.99000   1
   0  10 -13 5.15000 0.73000   1
   0  10 -13 4.11000 1.15000   1
   8   3   5 -0.5100 0.90000   1
  -8  -3  -5 2.11000 0.89000   1
 -11   2  -2 7.46000 1.13000   1
  11  -2   2 8.28000 1.02000   1
   5 -12  -5 2.89000 1.08000   1
  -5  12   5 3.62000 1.01000   1
  11   4  -5 17.4300 2.34000   1
  11   4  -5 17.1800 1.73000   1
 -11  -4   5 20.4600 1.90000   1
  10   2   2 7.40000 1.25000   1
 -10  -2  -2 7.92000 1.28000   1
  -8  -7  12 1.84000 1.22000   1
   8   7 -12 1.61000 1.05000   1
   8   7 -12 0.92000 1.25000   1
   8   7 -12 1.16000 0.70000   1
 -10  10  -1 1.79000 0.59000   1
   3  10   4 20.6000 2.18000   1
   3  10   4 21.6400 2.07000   1
  -3 -10  -4 20.3900 2.26000   1
   9   7 -10 8.60000 1.49000   1
   9   7 -10 4.62000 1.67000   1
  -9  -7  10 7.89000 1.54000   1
 -12   0   7 6.04000 1.13000   1
  12   0  -7 9.20000 1.14000   1
   1 -11  12 2.19000 0.64000   1
  -1  11 -12 0.31000 0.46000   1
  -1  11 -12 -0.7500 0.79000   1
  -1  11 -12 -1.0900 0.95000   1
  -2  14  -7 9.03000 1.29000   1
  -2  14  -7 3.26000 0.97000   1
  -5  14  -2 4.99000 0.90000   1
  -5  14  -2 5.51000 0.76000   1
  -7  11  -7 2.59000 0.78000   1
   8   6   2 11.2800 1.27000   1
   8   6   2 3.65000 1.47000   1
  -8  -6  -2 6.61000 1.30000   1
  -9  -3  13 4.24000 1.29000   1
   9   3 -13 3.63000 1.44000   1
  -4  10 -11 0.12000 0.52000   1
   4 -10  11 -0.1300 0.45000   1
  -4  10 -11 1.53000 0.74000   1
   3  -9  -9 2.88000 1.08000   1
   3  -9  -9 2.74000 0.68000   1
  -3   9   9 5.09000 0.97000   1
  -3   9   9 1.68000 0.68000   1
  -3  -4 -10 3.30000 1.12000   1
  -3  -4 -10 0.37000 0.65000   1
   3   4  10 2.66000 1.06000   1
   3   4  10 1.94000 0.63000   1
  -3   8  10 21.4000 1.76000   1
  -3   8  10 22.6100 2.22000   1
   3  -8 -10 20.3900 1.68000   1
   3  -8 -10 25.2300 2.30000   1
  11   2 -10 3.83000 1.08000   1
 -11  -2  10 1.20000 1.09000   1
  -3  14   0 1.48000 0.93000   1
   7 -12  -4 18.7800 2.22000   1
  -7  12   4 20.8300 1.89000   1
 -11   0  -1 0.48000 0.72000   1
  11   0   1 0.69000 0.64000   1
   6  11  -4 13.9500 1.98000   1
   6  11  -4 14.3000 1.74000   1
  -5  14  -3 7.84000 1.07000   1
  -5  14  -3 6.75000 0.91000   1
   1  -3  14 17.7000 1.89000   1
  -1   3 -14 16.8300 1.45000   1
  -1   3 -14 23.4400 2.20000   1
   0  -2 -13 5.36000 0.81000   1
   0   2  13 0.88000 1.00000   1
   0   2  13 2.05000 0.65000   1
   0  -2 -13 3.46000 0.88000   1
   7 -11  -6 2.03000 0.88000   1
  -7  11   6 -0.4200 0.86000   1
  -3  13   3 17.1600 1.34000   1
  -3  13   3 18.4800 1.81000   1
   3 -13  -3 15.7600 1.92000   1
   0  14  -7 6.25000 1.21000   1
   0 -14   7 6.07000 1.07000   1
   0  14  -7 8.98000 1.21000   1
  -6 -10  11 9.26000 1.75000   1
   6  10 -11 8.97000 1.88000   1
   6  10 -11 9.71000 1.69000   1
   2  13  -1 -0.5500 0.95000   1
   2  13  -1 1.08000 0.62000   1
  10   2 -12 3.26000 1.20000   1
 -10  -2  12 4.26000 1.23000   1
   6  -7 -11 2.17000 1.21000   1
  -6   7  11 1.71000 1.04000   1
  -4  13  -8 1.96000 1.07000   1
  -4  13  -8 1.78000 0.69000   1
   0  14  -2 2.25000 0.94000   1
   0  14  -2 0.67000 0.53000   1
  -3  12   5 13.1500 1.03000   1
   3 -12  -5 10.7300 1.57000   1
  -3  12   5 10.2800 1.57000   1
  -5 -12   6 9.70000 1.81000   1
   5  12  -6 11.1900 1.70000   1
  -1  -6 -10 3.62000 1.10000   1
  -1  -6 -10 3.63000 0.87000   1
   1   6  10 2.96000 0.93000   1
   1   6  10 3.40000 0.96000   1
 -10   1  12 -0.4000 0.71000   1
  10  -1 -12 -0.8700 1.05000   1
   3  -5  13 20.1500 1.88000   1
  -3   5 -13 18.9300 2.13000   1
   4  11   1 -0.5700 0.76000   1
   4  11   1 0.71000 0.91000   1
   8   2 -14 12.9600 1.67000   1
  -8  -2  14 11.4700 1.75000   1
   1   3  12 11.6500 1.48000   1
  -1  -3 -12 11.3500 1.22000   1
  -1  -3 -12 13.9700 1.67000   1
   1   3  12 10.9500 1.23000   1
   0   8 -14 2.30000 1.16000   1
   0   8 -14 2.72000 0.89000   1
   0  -8  14 3.10000 0.87000   1
  -1 -14   5 3.56000 0.98000   1
   1  14  -5 8.01000 1.12000   1
  -5  -9  -3 16.4800 2.03000   1
   5   9   3 14.5500 1.77000   1
   5   9   3 17.2200 1.81000   1
  -7  13  -3 0.36000 0.48000   1
  -7  13  -3 0.48000 0.41000   1
 -10   9  -3 1.08000 0.54000   1
 -10   1  -4 5.81000 0.99000   1
  10  -1   4 6.24000 1.03000   1
  -3  -6  15 0.15000 0.84000   1
   3   6 -15 0.49000 0.87000   1
   3   6 -15 1.58000 0.87000   1
   4   1 -15 -0.8100 0.81000   1
   4   1 -15 0.40000 0.49000   1
  -4  -1  15 -0.1400 0.61000   1
  -3   4  13 0.88000 0.90000   1
   3  -4 -13 -0.8300 0.83000   1
   3  -4 -13 1.03000 0.61000   1
  -3   4  13 4.13000 0.86000   1
  -6   2  14 7.89000 1.06000   1
   6  -2 -14 4.93000 1.44000   1
  -5  13  -7 0.84000 0.41000   1
  -5  13  -7 0.89000 0.87000   1
 -11   3  10 5.24000 0.90000   1
  11  -3 -10 6.58000 1.53000   1
  -4  14   0 10.7600 1.56000   1
  11  -8  -5 7.71000 1.06000   1
  12  -1  -2 2.39000 0.87000   1
 -12   1   2 7.93000 0.79000   1
  -9   8  -6 2.37000 0.90000   1
   8   1 -14 2.01000 1.17000   1
  -8  -1  14 0.88000 1.00000   1
  -9   1  13 12.1800 1.46000   1
   9  -1 -13 4.78000 1.68000   1
 -12   0   3 9.39000 0.91000   1
  10   6  -4 1.71000 1.05000   1
  10   6  -4 1.50000 1.03000   1
  -5  -1 -10 2.92000 1.00000   1
   5   1  10 -0.4200 0.81000   1
   3  -2 -14 7.22000 0.95000   1
   3  -2 -14 11.6600 1.58000   1
  -3   2  14 10.6500 1.42000   1
  -3   2  14 9.70000 1.36000   1
  -5 -12   7 10.6800 1.69000   1
   5  12  -7 7.57000 1.54000   1
   3  13  -3 1.44000 1.20000   1
   3  13  -3 5.03000 0.90000   1
  -5  -5  15 7.01000 1.33000   1
   5   5 -15 4.09000 1.23000   1
   5   5 -15 4.97000 0.92000   1
  10   4   0 3.32000 1.21000   1
  10   4   0 3.77000 1.02000   1
 -10  -4   0 4.96000 0.97000   1
  -5  14  -1 0.47000 0.86000   1
  -5  14  -1 1.64000 0.66000   1
  -3 -13   8 10.9100 1.42000   1
   3  13  -8 7.41000 1.61000   1
   5 -13  -3 11.7600 1.74000   1
  -5  13   3 10.2700 1.48000   1
   5  12  -5 3.79000 0.81000   1
   5  12  -5 2.87000 1.33000   1
  -3   4 -13 19.0800 2.18000   1
   3  -4  13 20.7600 2.03000   1
   1  14  -4 8.42000 1.49000   1
  -1 -14   4 10.4400 1.36000   1
  -7 -10   9 -0.4100 1.01000   1
   7  10  -9 0.90000 0.97000   1
   3  -6  13 13.5100 1.38000   1
  -3   6 -13 13.4000 1.82000   1
  -7   8  -9 7.78000 1.28000   1
  12  -3  -1 7.19000 0.96000   1
 -12   3   1 8.75000 1.00000   1
  -7  10  -8 2.89000 0.89000   1
 -12   4   1 16.4400 1.25000   1
 -12   4   1 17.6900 1.25000   1
  -7   2  -9 1.90000 1.07000   1
   7  -2   9 5.01000 0.97000   1
  11   3  -2 12.7800 1.54000   1
 -11  -3   2 12.6300 1.48000   1
  11   3  -2 14.2800 1.80000   1
   1  14  -6 0.38000 0.89000   1
  -1 -14   6 0.87000 0.67000   1
   0   4  12 17.1300 1.76000   1
   0  -4 -12 16.7400 1.62000   1
   0  -4 -12 18.9800 1.83000   1
   0   4  12 12.7100 1.36000   1
  -2  14   0 2.21000 1.06000   1
  -5  -1  15 15.6400 1.81000   1
   5   1 -15 16.8000 1.81000   1
   5   1 -15 14.8700 1.18000   1
   1  -3 -13 2.24000 0.90000   1
   1  -3 -13 1.49000 0.87000   1
  -1   3  13 1.12000 0.89000   1
  -1   3  13 1.85000 0.81000   1
   8 -10  -7 1.96000 1.07000   1
  -8  10   7 1.87000 0.93000   1
  -8  -8  11 2.21000 1.23000   1
   8   8 -11 1.13000 1.20000   1
   8   8 -11 1.72000 0.96000   1
  -9  11  -3 6.24000 0.74000   1
   6   8   3 5.34000 1.08000   1
  -6  -8  -3 4.96000 1.16000   1
   6   8   3 7.57000 1.19000   1
   8   9  -4 4.39000 1.29000   1
   8   9  -4 1.16000 1.07000   1
  -1  -1 -13 17.4500 1.42000   1
   1   1  13 17.0400 1.86000   1
   1   1  13 14.5700 1.18000   1
  -1  -1 -13 15.7000 1.67000   1
  11  -6  -8 7.05000 1.18000   1
 -11   6   8 5.23000 0.63000   1
  -6  10   8 0.59000 0.43000   1
  -6  10   8 2.46000 0.81000   1
   6 -10  -8 0.31000 1.03000   1
   7 -13  -1 18.4800 2.05000   1
  -7  13   1 18.1800 1.34000   1
  -7  13   1 20.2800 1.81000   1
   8   3 -14 9.71000 1.70000   1
  -8  -3  14 5.22000 1.45000   1
  10  -9  -6 15.3600 1.55000   1
 -10   9   6 11.9800 1.31000   1
  -6  -1  -9 1.71000 1.16000   1
   6   1   9 3.97000 1.12000   1
  -4  -6  15 13.5500 1.89000   1
   4   6 -15 13.9500 1.68000   1
   4   6 -15 15.4300 1.86000   1
 -10   8  -4 4.76000 0.82000   1
  12   1  -6 10.9600 1.30000   1
 -12  -1   6 9.57000 1.45000   1
  12   1  -6 12.8200 1.73000   1
  -9  -7   2 0.95000 0.85000   1
   9   7  -2 2.86000 1.06000   1
   9   7  -2 2.53000 1.09000   1
 -12  -1   5 4.75000 1.19000   1
  12   1  -5 7.67000 1.37000   1
  12   1  -5 4.42000 0.91000   1
 -11  -4   8 3.22000 1.03000   1
  11   4  -8 3.04000 1.42000   1
  11   4  -8 4.18000 1.06000   1
  -6  -7  14 18.7500 2.38000   1
   6   7 -14 20.5900 2.29000   1
   6   7 -14 18.5900 2.21000   1
   6   7 -14 19.7400 1.76000   1
  -1 -10  -6 1.28000 0.98000   1
  -1 -10  -6 -0.6000 0.86000   1
   1  10   6 1.02000 0.94000   1
   1  10   6 0.67000 0.76000   1
  -5  14  -4 25.1600 1.88000   1
  -5  14  -4 26.5200 2.23000   1
   0  13 -10 21.2200 1.96000   1
   0  13 -10 27.4600 2.69000   1
   0 -13  10 22.7300 1.86000   1
   8  -7   8 0.61000 0.59000   1
  -8   7  -8 1.03000 0.88000   1
   2   6 -15 4.89000 1.06000   1
   2   6 -15 5.47000 1.08000   1
  -2  -6  15 8.20000 1.30000   1
   8  -3   8 8.14000 1.18000   1
  -8   3  -8 7.58000 1.36000   1
   8  -3 -13 8.23000 1.73000   1
  -8   3  13 8.46000 1.25000   1
  -8   0  -7 1.97000 0.94000   1
   8   0   7 2.64000 0.89000   1
   2   2 -15 0.76000 0.73000   1
   2   2 -15 2.24000 0.78000   1
  -2  -2  15 0.04000 0.98000   1
 -12   1   8 13.5700 1.52000   1
  12  -1  -8 11.6600 1.48000   1
 -10   4  11 3.08000 0.76000   1
  10  -4 -11 3.03000 1.30000   1
  -3  10   8 -0.4500 0.54000   1
  -3  10   8 0.86000 0.85000   1
   3 -10  -8 2.50000 0.83000   1
  -9  -8   6 18.0600 2.06000   1
   9   8  -6 17.2200 2.32000   1
  -9  -8   7 5.02000 1.49000   1
   9   8  -7 3.08000 1.34000   1
   3  -7 -11 7.44000 1.47000   1
   3  -7 -11 7.38000 1.03000   1
  -3   7  11 11.9500 1.47000   1
  -3   7  11 7.87000 1.25000   1
  11   4  -4 8.04000 1.33000   1
  11   4  -4 6.48000 1.33000   1
  11   4  -4 6.00000 1.07000   1
 -11  -4   4 6.64000 1.04000   1
  12  -4  -7 0.07000 0.68000   1
 -12   4   7 0.05000 0.47000   1
   6   3 -15 10.4600 1.00000   1
  -6  -3  15 13.3700 1.65000   1
   6   3 -15 12.2900 1.80000   1
  -3  13  -9 11.0700 1.47000   1
  -3  13  -9 11.6700 1.04000   1
   8   6 -13 5.69000 0.88000   1
   8   6 -13 4.07000 1.31000   1
   8   6 -13 3.60000 1.53000   1
  -8  -6  13 9.32000 1.57000   1
  -9  10   6 6.22000 0.88000   1
   9 -10  -6 2.69000 1.03000   1
  -3  -1  15 1.80000 1.08000   1
   3   1 -15 4.92000 0.83000   1
   3   1 -15 1.69000 0.93000   1
  -2  -9  14 8.57000 1.31000   1
   2   9 -14 9.38000 1.53000   1
   2   9 -14 10.4300 1.56000   1
   2   9 -14 8.49000 1.12000   1
  -8  -8   1 1.68000 1.01000   1
   8   8  -1 2.00000 0.97000   1
   8   8  -1 2.29000 1.18000   1
 -12   5   6 0.25000 0.40000   1
  12  -5  -6 0.38000 0.62000   1
  -4   2 -12 1.43000 1.12000   1
   4  -2  12 2.36000 1.06000   1
 -10  -1  -3 12.7700 1.47000   1
  10   1   3 11.7200 1.46000   1
 -12   2   8 1.34000 0.67000   1
  12  -2  -8 1.78000 0.99000   1
   8 -12  -3 10.7500 1.56000   1
  -8  12   3 8.99000 1.29000   1
  -1   7 -14 13.8600 1.95000   1
   1  -7  14 15.6600 1.75000   1
  -1   7 -14 14.5800 1.34000   1
  -4   8 -12 1.95000 1.07000   1
   4  -8  12 1.13000 0.62000   1
  -2  -2 -12 17.4500 1.83000   1
  -2  -2 -12 18.5600 1.50000   1
   2   2  12 18.0000 1.97000   1
   2   2  12 15.1800 1.20000   1
  -4 -10  -3 19.6300 2.14000   1
   4  10   3 17.2200 2.12000   1
   4  10   3 17.2400 1.83000   1
  -6  -2  15 3.25000 0.98000   1
   6   2 -15 3.02000 1.21000   1
  -7  12  -6 14.7500 1.54000   1
   8   9  -9 2.29000 1.30000   1
  -8  -9   9 1.09000 1.16000   1
  -5   6  12 0.89000 0.55000   1
   5  -6 -12 -1.6500 0.73000   1
  -5   6  12 1.03000 0.85000   1
  -7   8  10 3.96000 0.61000   1
  -7   8  10 3.97000 1.18000   1
   7  -8 -10 3.04000 1.28000   1
  -9  -6   0 11.8000 1.50000   1
   9   6   0 7.72000 1.44000   1
   9   6   0 12.1000 1.60000   1
  11  -5  -9 17.4300 2.04000   1
 -11   5   9 16.1400 1.47000   1
 -11   8  -1 0.95000 0.45000   1
   7   5   5 6.07000 0.94000   1
  -7  -5  -5 7.33000 1.16000   1
   7   5   5 7.66000 1.37000   1
   5   8 -14 13.8000 1.89000   1
  -5  -8  14 10.2300 1.88000   1
   5   8 -14 13.1800 1.56000   1
   5   8 -14 12.0100 1.46000   1
  11  -7  -7 -0.5200 0.75000   1
   6  11  -9 10.1300 1.62000   1
  -6 -11   9 7.69000 1.49000   1
   4  12 -10 6.43000 1.36000   1
  -4 -12  10 2.56000 1.24000   1
  10  -5   5 1.36000 0.55000   1
 -10   5  -5 1.38000 0.72000   1
  10 -10  -4 4.81000 0.95000   1
 -10  10   4 5.08000 0.79000   1
  10   6  -9 2.84000 1.34000   1
 -10  -6   9 0.77000 1.11000   1
  10   6  -9 1.98000 1.33000   1
  -6  12   5 4.45000 1.07000   1
   6 -12  -5 4.37000 1.20000   1
 -11   7  -2 10.8900 1.20000   1
  -4  14  -6 0.79000 0.87000   1
  -4  14  -6 0.37000 0.56000   1
  12  -2  -1 6.68000 0.93000   1
 -12   2   1 6.74000 0.79000   1
 -12   5   1 4.70000 0.59000   1
   7   6   4 -0.4500 0.79000   1
   7   6   4 0.29000 0.61000   1
  -7  -6  -4 0.23000 0.78000   1
   4   1  11 9.46000 1.62000   1
  -4  -1 -11 13.8800 1.58000   1
   1 -11  -6 0.90000 0.98000   1
  -1  11   6 1.17000 0.76000   1
  -1  11   6 2.40000 1.01000   1
   1  13 -10 -0.0100 1.05000   1
   1  13 -10 1.62000 0.96000   1
  -1 -13  10 0.63000 0.76000   1
   5   3   9 13.1000 1.70000   1
  -5  -3  -9 7.63000 1.55000   1
  -8   0  14 3.05000 1.06000   1
   8   0 -14 2.32000 1.23000   1
  -2  13   3 9.45000 1.45000   1
   2 -13  -3 7.93000 1.55000   1
  -2  13   3 7.89000 0.87000   1
  -3  14  -7 -0.3400 0.87000   1
  -3  14  -7 0.47000 0.66000   1
  -1  13 -10 5.41000 1.45000   1
   1 -13  10 8.85000 0.97000   1
  -1  13 -10 10.4500 1.15000   1
   9 -11  -4 15.3500 1.77000   1
  -9  11   4 14.3400 1.54000   1
  10  -4   5 0.66000 0.55000   1
 -10   4  -5 0.16000 0.72000   1
   3   9 -14 0.89000 0.84000   1
   3   9 -14 1.01000 1.08000   1
  -3  -9  14 2.16000 1.05000   1
   3   9 -14 0.00000 0.81000   1
   8  -5 -12 9.11000 1.58000   1
  -8   5  12 7.10000 1.00000   1
  -7   9   9 3.56000 0.85000   1
  -7   9   9 0.92000 0.48000   1
   7  -9  -9 1.86000 1.13000   1
  12   1  -7 5.43000 1.24000   1
 -12  -1   7 6.73000 1.13000   1
  -9   1  -6 3.10000 1.01000   1
   9  -1   6 2.01000 0.84000   1
  -1  -4  15 1.53000 0.93000   1
   1   4 -15 0.60000 0.81000   1
   1   4 -15 0.44000 0.71000   1
   0  -8  -9 -0.9600 0.85000   1
   0   8   9 0.37000 0.83000   1
   0  -8  -9 0.52000 0.85000   1
   0   8   9 1.19000 0.75000   1
   5  12  -8 -0.1900 1.08000   1
  -5 -12   8 2.85000 0.98000   1
 -10  -3  12 0.96000 1.04000   1
  10   3 -12 1.20000 0.95000   1
 -12  -1   4 9.81000 0.96000   1
  12   1  -4 10.7800 1.47000   1
 -12  -1   4 13.8100 1.56000   1
  12   0  -8 1.38000 0.77000   1
 -12   0   8 0.11000 0.69000   1
  -6  -4  15 14.2100 1.78000   1
   6   4 -15 10.8400 1.09000   1
   6   4 -15 11.3700 1.82000   1
  -4   6  12 9.27000 1.15000   1
   4  -6 -12 6.73000 1.25000   1
  -4   6  12 6.28000 1.14000   1
  -8  12  -4 3.83000 0.67000   1
   9   1   5 1.37000 0.98000   1
  -9  -1  -5 0.36000 0.84000   1
   9  -4 -12 0.89000 1.12000   1
  -9   4  12 0.54000 0.71000   1
   1  12   3 0.93000 0.65000   1
   1  12   3 0.51000 0.97000   1
   1  14  -3 2.43000 0.64000   1
   1  14  -3 2.66000 1.04000   1
   1  -2  14 3.87000 1.12000   1
  -1   2 -14 5.19000 0.81000   1
  -1   2 -14 3.62000 1.24000   1
   4  10 -13 9.44000 1.56000   1
  -4 -10  13 5.34000 1.35000   1
   4  10 -13 6.67000 1.36000   1
   4  10 -13 6.55000 1.44000   1
   5  12  -4 0.81000 0.82000   1
   5  12  -4 0.75000 1.12000   1
   3  -3  13 3.15000 1.10000   1
  -3   3 -13 7.69000 1.39000   1
   3  12 -11 8.50000 1.58000   1
  -3 -12  11 5.94000 1.31000   1
   3  12 -11 10.3000 1.34000   1
   7  -4 -13 -0.1400 1.06000   1
  -7   4  13 1.24000 0.78000   1
   1   9 -14 9.85000 1.53000   1
  -1  -9  14 10.3000 1.37000   1
   1   9 -14 9.16000 1.04000   1
   1   9 -14 14.2800 1.55000   1
   9   8  -5 7.36000 1.46000   1
   9   8  -5 10.5200 1.61000   1
  -1  -5  15 1.80000 1.00000   1
   1   5 -15 2.77000 1.06000   1
   1   5 -15 1.39000 0.79000   1
   7  10  -3 3.96000 1.07000   1
   7  10  -3 3.31000 1.23000   1
  -2   9 -13 4.34000 0.78000   1
   2  -9  13 5.65000 1.02000   1
  -2   9 -13 3.99000 1.29000   1
  -9  -4  13 9.93000 1.73000   1
   9   4 -13 8.73000 1.75000   1
  -9  -8   8 31.4800 3.06000   1
   9   8  -8 28.4000 2.84000   1
   9   8  -8 26.4200 3.04000   1
 -10   2  12 1.59000 0.80000   1
  10  -2 -12 2.09000 1.20000   1
   3  -7  13 1.97000 0.72000   1
  -3   7 -13 1.28000 1.09000   1
   1  14  -7 21.8400 2.25000   1
  -1 -14   7 23.7000 1.91000   1
 -10  10  -2 14.2500 1.09000   1
   5  11 -11 4.91000 1.50000   1
   5  11 -11 10.3200 1.57000   1
  -5 -11  11 5.47000 1.61000   1
   7   6 -14 -1.7900 0.91000   1
   7   6 -14 0.60000 0.62000   1
  -7  -6  14 0.08000 0.98000   1
   7   6 -14 1.57000 0.92000   1
   2  12   2 0.22000 0.71000   1
   2  12   2 0.27000 0.91000   1
  -1   1  14 0.47000 0.61000   1
  -1   1  14 2.28000 0.89000   1
   1  -1 -14 0.82000 0.87000   1
   1  -1 -14 2.44000 0.84000   1
  -6  13  -6 1.93000 0.92000   1
 -11   9   2 13.1500 0.98000   1
   0   9   8 2.15000 0.73000   1
   0   9   8 1.65000 1.02000   1
   0  -9  -8 1.90000 1.00000   1
   0  -9  -8 0.53000 0.93000   1
 -11   1  -2 0.69000 0.68000   1
  11  -1   2 1.03000 0.74000   1
   8   2   6 11.3000 1.64000   1
  -8  -2  -6 12.9700 1.64000   1
  -5  14   0 6.42000 1.22000   1
  -5  14   0 4.41000 0.75000   1
  -4  -3 -10 10.4300 0.99000   1
  -4  -3 -10 13.7300 1.65000   1
   4   3  10 10.3900 1.61000   1
 -10   6  -5 3.82000 0.94000   1
  -2  12 -11 1.89000 1.14000   1
   2 -12  11 2.70000 0.68000   1
  -2  12 -11 4.63000 0.82000   1
  -4  11   7 5.00000 1.24000   1
   4 -11  -7 4.13000 1.39000   1
  -4  11   7 5.06000 0.69000   1
   6  -6 -12 6.06000 1.38000   1
  -6   6  12 5.54000 1.34000   1
  -6   6  12 6.16000 0.98000   1
  -5  11   7 0.71000 0.82000   1
   5 -11  -7 -0.8300 0.99000   1
  -5  11   7 0.56000 0.52000   1
   2 -12  -5 2.54000 1.14000   1
  -2  12   5 4.40000 1.18000   1
  -2  12   5 4.63000 0.69000   1
   6  11  -3 5.48000 1.20000   1
   6  11  -3 4.01000 1.41000   1
  -1  14  -8 17.6300 1.91000   1
  -1  14  -8 14.6200 1.47000   1
   7  -7 -11 -0.3800 0.97000   1
  -7   7  11 -0.2500 0.47000   1
  -7   7  11 0.55000 0.85000   1
 -12   3   8 0.88000 0.72000   1
  12  -3  -8 1.81000 0.90000   1
   4  12  -1 5.87000 1.16000   1
   4  12  -1 5.41000 1.26000   1
  -7  13  -4 14.6900 1.34000   1
  -7  13  -4 12.5300 1.01000   1
  -8  -7  -1 2.07000 1.07000   1
   8   7   1 6.16000 1.06000   1
   8   7   1 3.25000 1.20000   1
 -11   0  11 0.20000 0.89000   1
  11   0 -11 1.12000 1.04000   1
   8   4 -14 3.78000 1.38000   1
  -8  -4  14 3.44000 1.21000   1
   1 -10  13 12.7900 1.45000   1
  -1  10 -13 11.0000 1.74000   1
  -1  10 -13 11.6900 1.50000   1
  -3  10 -12 0.18000 0.89000   1
   3 -10  12 0.92000 0.58000   1
  -3  10 -12 0.54000 0.55000   1
 -11   9   1 3.71000 0.53000   1
  12  -6  -5 1.63000 0.65000   1
   7   4   6 31.4900 2.34000   1
   7   4   6 29.5700 2.55000   1
  -7  -4  -6 30.2700 2.67000   1
  -6  -1  15 2.23000 0.85000   1
   6   1 -15 1.23000 1.14000   1
  -6  -3  -8 16.3400 1.86000   1
   6   3   8 14.8000 1.92000   1
  11   3 -10 0.96000 1.15000   1
  11   3 -10 2.98000 1.10000   1
 -11  -3  10 -0.5100 1.00000   1
   1   3 -15 9.35000 1.12000   1
   1   3 -15 8.48000 1.30000   1
  -1  -3  15 7.53000 1.44000   1
  -7  -1  -8 9.41000 1.46000   1
   7   1   8 14.6800 1.80000   1
  -6   1 -10 8.60000 1.46000   1
   6  -1  10 7.52000 1.38000   1
   0  14  -8 10.9400 1.33000   1
   0  14  -8 8.48000 1.53000   1
   0 -14   8 9.97000 1.09000   1
   0   0  14 1.49000 0.86000   1
   0   0 -14 -0.0800 0.61000   1
   0   0 -14 0.72000 0.89000   1
   0   0  14 0.45000 0.45000   1
  -6   9 -10 12.0200 1.55000   1
  -2   9   9 8.28000 1.49000   1
  -2   9   9 10.2100 1.17000   1
   2  -9  -9 12.6700 1.32000   1
   2  -9  -9 12.9200 1.69000   1
  11  -9  -3 0.28000 0.53000   1
 -11   9   3 -0.0900 0.48000   1
   4  11 -12 2.12000 1.16000   1
   4  11 -12 2.67000 1.09000   1
   4  11 -12 -0.0900 0.91000   1
  -4 -11  12 0.39000 1.01000   1
   0  14  -1 8.97000 1.42000   1
   0  14  -1 9.30000 0.93000   1
   0  -7 -10 1.02000 0.91000   1
   0   7  10 1.78000 0.81000   1
   0  -7 -10 1.05000 0.93000   1
   0   7  10 1.89000 0.77000   1
 -11   1  11 1.33000 0.92000   1
  11  -1 -11 2.06000 1.18000   1
  -2   8  10 20.9900 1.78000   1
  -2   8  10 20.6200 1.94000   1
   2  -8 -10 22.9300 2.12000   1
   2  -8 -10 22.3800 1.93000   1
  -2  -4 -11 3.90000 0.91000   1
   2   4  11 6.25000 1.09000   1
  -2  -4 -11 3.96000 1.25000   1
   2   4  11 2.30000 0.77000   1
   5   6 -15 3.93000 1.37000   1
   5   6 -15 5.00000 0.95000   1
  -5  -6  15 7.05000 1.25000   1
   9  -8  -9 2.47000 1.22000   1
  -9   8   9 5.33000 1.03000   1
  -9   8   9 1.87000 0.66000   1
  10   5  -1 -0.1900 0.95000   1
  10   5  -1 0.52000 1.00000   1
 -10  -5   1 2.41000 0.88000   1
   5  -1  11 11.2200 1.43000   1
  -5   1 -11 11.9000 1.69000   1
   1  13   1 11.2000 1.45000   1
   1  13   1 6.72000 0.96000   1
  10  -3   5 13.7300 1.34000   1
 -10   3  -5 11.5500 1.51000   1
  -6  13   3 26.8200 2.44000   1
   6 -13  -3 28.2600 2.56000   1
  -6  13   3 27.6300 1.85000   1
  -1  14   0 9.22000 0.88000   1
  -1  14   0 11.6900 1.47000   1
  -9  10  -5 7.48000 1.04000   1
  -1   5  12 2.55000 0.84000   1
   1  -5 -12 0.18000 0.68000   1
  -1   5  12 0.72000 0.85000   1
   1  -5 -12 1.51000 0.96000   1
  -5  14  -5 7.06000 0.87000   1
  -5  14  -5 7.25000 1.12000   1
  -5   9 -11 13.1300 1.59000   1
   5  -9  11 13.1400 1.18000   1
   3   7 -15 4.45000 1.10000   1
  -3  -7  15 4.38000 1.15000   1
   3   7 -15 6.60000 1.19000   1
  12   0  -2 0.40000 0.76000   1
  12   0  -2 -0.00000 0.7500   1
 -12   0   2 0.93000 0.54000   1
  -9   7  10 3.44000 0.58000   1
   9  -7 -10 -0.0100 1.22000   1
  10  -7  -9 -0.3500 0.88000   1
 -10   7   9 0.03000 0.45000   1
 -11  -1  11 13.2700 1.58000   1
  11   1 -11 13.8200 1.99000   1
  -7   2  14 0.89000 0.84000   1
   7  -2 -14 0.65000 1.06000   1
  -9   2  13 0.91000 0.84000   1
   9  -2 -13 -0.1600 1.07000   1
  -4   0  15 2.10000 0.94000   1
   4   0 -15 2.07000 1.05000   1
   4   0 -15 5.61000 0.73000   1
 -10  -6   3 1.78000 0.96000   1
  10   6  -3 2.68000 1.15000   1
  10   6  -3 2.55000 1.11000   1
 -11   4  -3 3.71000 0.98000   1
  11  -4   3 5.43000 0.74000   1
   7   7   3 3.41000 1.06000   1
   7   7   3 2.60000 0.97000   1
  -7  -7  -3 4.36000 1.08000   1
   1   5  11 15.1400 1.49000   1
  -1  -5 -11 13.1500 1.51000   1
   1   5  11 14.5400 1.66000   1
  -1  -5 -11 15.3400 1.60000   1
   0  13   2 14.2500 1.38000   1
   0  13   2 16.6700 1.90000   1
   1   6 -15 15.9700 1.59000   1
   1   6 -15 11.8400 1.39000   1
  -1  -6  15 12.2500 1.50000   1
 -11   5  -3 21.9200 1.66000   1
   0  12   4 0.66000 0.94000   1
   0 -12  -4 -0.0200 0.88000   1
   0  12   4 0.47000 0.66000   1
 -11  -4   9 6.09000 1.39000   1
  11   4  -9 4.65000 1.61000   1
  11   4  -9 5.76000 1.52000   1
  -5   0  15 25.3600 2.34000   1
   5   0 -15 25.8200 2.60000   1
   2 -11  12 2.49000 0.71000   1
  -2  11 -12 5.01000 1.22000   1
  -2  11 -12 1.80000 0.78000   1
  -9  -6  12 5.48000 1.46000   1
   9   6 -12 8.00000 1.29000   1
   9   6 -12 6.01000 0.93000   1
   9   6 -12 9.80000 1.51000   1
   6  10   0 2.01000 0.92000   1
   6  10   0 1.23000 0.93000   1
  -7  13   2 0.53000 0.51000   1
  -7  13   2 0.13000 0.64000   1
   7 -13  -2 -0.8300 0.83000   1
   3  13  -2 -0.0300 0.59000   1
   3  13  -2 -0.4200 0.96000   1
  -3  14   1 5.68000 1.04000   1
   2  -2 -14 11.5900 1.49000   1
   2  -2 -14 8.32000 1.23000   1
  -2   2  14 9.31000 1.16000   1
  -2   2  14 9.98000 1.32000   1
  -2  14  -8 1.12000 0.61000   1
  -2  14  -8 -0.8100 0.78000   1
  -2   4  13 0.36000 0.73000   1
  -2   4  13 -0.0700 0.61000   1
   2  -4 -13 -0.0100 0.68000   1
   2  -4 -13 0.10000 0.57000   1
   3  13  -9 1.60000 1.08000   1
  -3 -13   9 1.49000 0.98000   1
  11  -4 -10 22.3300 2.39000   1
 -11   4  10 19.9300 1.54000   1
  -9   5  -7 18.5000 1.78000   1
   9  -5   7 16.5800 1.36000   1
  -8   8  -8 6.56000 1.16000   1
  10   5 -11 0.28000 0.88000   1
  10   5 -11 0.55000 0.99000   1
 -10  -5  11 -0.6300 0.95000   1
  -2   0 -13 20.8200 1.99000   1
   2   0  13 20.1000 1.90000   1
  -2   0 -13 18.0000 1.46000   1
  -4  14   1 6.45000 1.34000   1
   2   7 -15 -0.6800 0.73000   1
   2   7 -15 0.88000 0.69000   1
  -2  -7  15 0.06000 0.89000   1
  11  -8  -6 1.62000 0.96000   1
   8   9  -3 14.6700 1.78000   1
   8   9  -3 18.0100 2.20000   1
  -8   2  -8 2.65000 1.03000   1
   8  -2   8 6.64000 1.15000   1
  -7  10   8 5.44000 0.74000   1
   7 -10  -8 7.65000 1.40000   1
  -7  10   8 7.54000 1.23000   1
   2   1 -15 7.41000 1.31000   1
  -2  -1  15 10.9200 1.55000   1
   2   1 -15 10.2200 1.53000   1
  11   4  -3 14.5600 1.86000   1
  11   4  -3 12.7900 1.37000   1
  11   4  -3 14.3700 1.94000   1
 -11  -4   3 19.4900 1.75000   1
 -12   1   1 6.68000 0.79000   1
  12  -1  -1 5.70000 0.95000   1
  -5  12  -9 4.02000 1.07000   1
  -8  11  -6 2.18000 0.93000   1
   2  11   4 4.85000 1.11000   1
   2  11   4 1.37000 0.83000   1
   6   5 -15 2.88000 0.72000   1
   6   5 -15 0.15000 0.96000   1
  -6  -5  15 1.66000 1.09000   1
   7  10 -10 14.8600 1.97000   1
  -7 -10  10 11.7700 2.08000   1
  10  -8  -8 6.16000 1.21000   1
  12   1  -8 11.9600 1.52000   1
 -12  -1   8 12.0700 1.51000   1
  11   2   0 0.63000 0.70000   1
  11   2   0 0.87000 0.94000   1
 -11  -2   0 2.01000 0.83000   1
   2  13 -10 25.7400 2.48000   1
   2  13 -10 20.0800 2.56000   1
  -2 -13  10 23.7100 2.13000   1
  -3  11   7 5.94000 0.77000   1
   3 -11  -7 4.71000 1.28000   1
  -3  11   7 3.59000 1.10000   1
 -10   6  10 14.0300 1.16000   1
  10  -6 -10 16.2100 1.90000   1
  -6  11   7 10.8000 1.35000   1
   6 -11  -7 11.4500 1.75000   1
   4   9 -14 7.53000 1.30000   1
   4   9 -14 5.56000 1.25000   1
  -4  -9  14 4.64000 1.39000   1
   4   9 -14 2.97000 1.19000   1
  -4  -7  -7 31.0200 2.23000   1
  -4  -7  -7 28.8100 2.53000   1
   4   7   7 25.5600 2.19000   1
   4   7   7 29.1300 2.45000   1
   3  -6 -12 8.79000 1.28000   1
   3  -6 -12 7.15000 1.01000   1
  -3   6  12 8.44000 1.41000   1
  -3   6  12 7.06000 1.10000   1
 -12  -1   3 3.32000 0.69000   1
  12   1  -3 1.99000 0.93000   1
  12   1  -3 2.42000 1.01000   1
   9   7 -11 1.74000 1.05000   1
  -9  -7  11 0.36000 1.10000   1
   9   7 -11 0.68000 1.25000   1
  12  -4   0 -0.0300 0.41000   1
 -12   4   0 0.34000 0.41000   1
   0 -10  -7 20.2700 2.17000   1
   0  10   7 19.1600 1.68000   1
   0  10   7 19.1800 2.15000   1
   0 -10  -7 20.0200 2.05000   1
  -2  13 -10 1.29000 0.89000   1
  -2  13 -10 0.52000 0.58000   1
  -9   6  -7 -0.8800 0.75000   1
   9  -6   7 0.48000 0.52000   1
  -6  14  -2 1.88000 0.74000   1
  -6  14  -2 3.05000 0.72000   1
   9   8  -4 3.76000 1.80000   1
   9   8  -4 22.0900 1.93000   1
   9  -4   7 14.4300 1.34000   1
  -9   4  -7 13.5900 1.51000   1
   3  12   1 6.45000 1.12000   1
   3  12   1 4.38000 1.42000   1
 -12   5   7 0.19000 0.53000   1
  12  -5  -7 -0.3500 0.65000   1
   8  -1 -14 3.06000 1.18000   1
  -8   1  14 1.79000 0.99000   1
   4   7 -15 5.17000 1.18000   1
   4   7 -15 3.60000 1.03000   1
  -4  -7  15 7.37000 1.40000   1
  -8  10  -7 14.1100 1.64000   1
   7   9   0 2.41000 1.19000   1
   7   9   0 1.79000 0.96000   1
  -2  10   8 10.7100 1.19000   1
  -2  10   8 8.36000 1.49000   1
   2 -10  -8 9.83000 1.62000   1
   9   8  -9 10.5500 1.80000   1
  -9  -8   9 6.37000 1.69000   1
   9   8  -9 9.06000 1.76000   1
  11  -3   3 0.18000 0.53000   1
 -11   3  -3 0.20000 0.67000   1
   9 -12   0 -1.0000 0.60000   1
  -9  12   0 -0.0600 0.47000   1
 -10   7  -5 5.45000 0.97000   1
  -7   9  -9 18.3800 1.91000   1
  11   1   1 13.6200 1.31000   1
 -11  -1  -1 3.60000 1.09000   1
   1  -8  14 6.13000 0.98000   1
  -1   8 -14 2.83000 0.80000   1
  -1   8 -14 2.35000 1.09000   1
   7  -1   9 19.3200 1.77000   1
  -7   1  -9 14.5300 1.69000   1
 -10   0  -4 8.94000 1.16000   1
  10   0   4 2.00000 1.03000   1
  -9   9  -6 0.91000 0.83000   1
  -9   9   8 1.79000 0.87000   1
   9  -9  -8 1.87000 1.15000   1
  -5   3  14 0.27000 0.80000   1
   5  -3 -14 -0.0300 0.89000   1
  12  -3   0 0.47000 0.49000   1
 -12   3   0 -0.3700 0.46000   1
   4  13  -6 1.35000 1.01000   1
  -4 -13   6 1.59000 1.01000   1
  -5 -12   9 1.77000 1.21000   1
   5  12  -9 1.22000 1.13000   1
   1  14  -2 12.9500 1.30000   1
   1  14  -2 10.5800 1.59000   1
   0   9 -14 5.17000 1.46000   1
   0  -9  14 3.42000 1.23000   1
   0   9 -14 8.12000 1.16000   1
  -3  -7  -8 7.72000 1.47000   1
   3   7   8 7.92000 1.25000   1
   3   7   8 9.96000 1.34000   1
  -3  -7  -8 7.29000 1.01000   1
   2  13   0 10.8600 1.19000   1
   2  13   0 7.95000 1.67000   1
  -5  11 -10 24.0600 2.18000   1
  -3  -8  -7 10.9400 1.23000   1
  -3  -8  -7 10.1800 1.66000   1
   3   8   7 7.43000 1.23000   1
   3   8   7 10.2800 1.34000   1
 -11   6  -3 1.42000 0.68000   1
  -6  14  -1 16.8000 1.40000   1
  -6  14  -1 14.0700 1.44000   1
 -11   2  11 5.99000 0.98000   1
  11  -2 -11 3.75000 1.43000   1
 -12  -2   6 0.67000 0.77000   1
  12   2  -6 1.05000 0.73000   1
  12   2  -6 0.59000 0.89000   1
   3  11   3 13.1300 1.64000   1
   3  11   3 14.1300 1.61000   1
  -4  -8  -6 28.5600 2.74000   1
   4   8   6 27.4400 2.36000   1
   4   8   6 26.0800 2.36000   1
  -3  -1 -12 7.48000 1.23000   1
   3   1  12 8.60000 1.47000   1
  -3  -1 -12 8.79000 1.04000   1
  -2   7  11 3.54000 1.08000   1
   2  -7 -11 6.26000 0.97000   1
   2  -7 -11 7.28000 1.26000   1
  -2   7  11 5.77000 1.08000   1
  -4  12 -10 2.14000 1.04000   1
   3   0 -15 0.59000 0.62000   1
   3   0 -15 0.67000 0.95000   1
  -3   0  15 0.77000 0.82000   1
  -7  -8  13 5.14000 1.21000   1
   7   8 -13 1.45000 0.87000   1
   7   8 -13 2.49000 1.34000   1
   7   8 -13 1.62000 1.20000   1
  11  -9  -4 9.60000 1.19000   1
 -11   9   4 10.7900 1.04000   1
   6   9 -13 18.4500 2.12000   1
   6   9 -13 19.9300 2.11000   1
  -6  -9  13 20.7000 2.47000   1
   6   9 -13 21.4200 2.25000   1
   8   9 -10 3.29000 1.33000   1
   8   9 -10 4.45000 1.46000   1
  -8  -9  10 3.70000 1.45000   1
  -6  -9  -2 11.1500 1.57000   1
   6   9   2 9.51000 1.39000   1
   6   9   2 5.16000 1.55000   1
   5  11   0 2.52000 0.91000   1
   5  11   0 0.57000 0.94000   1
   5  12  -3 -0.6400 1.42000   1
   5  12  -3 11.8000 1.37000   1
  -6  12  -8 1.72000 0.84000   1
  -9  11  -4 5.15000 0.80000   1
   3   3  11 10.7200 1.00000   1
  -3  -3 -11 11.0600 1.43000   1
  -3  -3 -11 10.9100 1.09000   1
   3   3  11 9.86000 1.61000   1
  -6  14  -3 4.57000 0.77000   1
  -6  14  -3 4.95000 0.73000   1
   3  -2  13 2.85000 1.11000   1
  -3   2 -13 2.06000 1.15000   1
  -9   6  11 1.72000 0.60000   1
   9  -6 -11 2.35000 1.19000   1
  -1 -11  -5 21.8000 2.21000   1
   1  11   5 23.2400 2.31000   1
   1  11   5 22.8500 2.05000   1
   1   2 -15 8.22000 1.24000   1
   1   2 -15 8.85000 1.33000   1
  -1  -2  15 4.34000 1.36000   1
   9 -12  -1 12.4500 1.31000   1
  -9  12   1 10.8000 1.18000   1
 -12   1   9 2.81000 0.79000   1
  12  -1  -9 0.58000 1.09000   1
   4  -3 -14 7.60000 1.44000   1
  -4   3  14 8.57000 1.15000   1
  -4   3  14 7.81000 1.24000   1
   8 -11  -6 3.42000 1.05000   1
  -8  11   6 2.99000 1.04000   1
  12  -4  -8 13.2700 1.76000   1
 -12   4   8 10.1800 1.06000   1
  -9  12  -1 4.50000 0.75000   1
  -9  12  -1 3.77000 0.60000   1
   4   6   8 9.77000 1.23000   1
   4   6   8 7.84000 1.25000   1
  -4  -6  -8 8.46000 1.07000   1
  -4  -6  -8 10.1400 1.55000   1
 -12   5   0 16.6500 1.24000   1
  -6  11  -9 14.3700 1.63000   1
  -1 -14   8 1.44000 0.77000   1
   1  14  -8 1.60000 1.06000   1
   1  14  -8 2.97000 1.09000   1
   2  14  -5 8.17000 1.47000   1
  -2 -14   5 10.5700 1.57000   1
  -5 -10  -2 15.2100 1.97000   1
   5  10   2 13.9700 1.72000   1
   5  10   2 11.1700 1.87000   1
  -4 -13   5 0.16000 0.90000   1
   4  13  -5 1.81000 0.98000   1
   3  -8  13 1.66000 0.80000   1
  -3   8 -13 3.62000 1.18000   1
  11   2 -11 20.2200 2.19000   1
 -11  -2  11 19.2100 2.14000   1
  -2  14   1 13.3100 1.09000   1
  -2  14   1 17.2700 1.85000   1
  12   2  -5 16.6200 2.06000   1
 -12  -2   5 17.0600 1.94000   1
  12   2  -5 17.1200 1.59000   1
  10   6 -10 8.42000 1.40000   1
  10   6 -10 3.54000 1.60000   1
 -10  -6  10 5.07000 1.40000   1
  -4   1 -12 2.33000 1.18000   1
   4  -1  12 2.15000 1.08000   1
   7  -6 -12 2.98000 1.32000   1
  -7   6  12 4.99000 1.23000   1
  -7   6  12 5.11000 0.90000   1
 -11  -3   1 13.9600 1.43000   1
  11   3  -1 12.6600 1.56000   1
  11   3  -1 15.0400 1.58000   1
  -2 -14   6 2.65000 0.97000   1
   2  14  -6 3.87000 1.07000   1
  -6 -11  10 10.6700 1.77000   1
   6  11 -10 9.40000 1.76000   1
  12  -6  -6 2.98000 0.88000   1
   7   9 -12 14.4400 2.29000   1
   7   9 -12 17.4100 2.00000   1
  -7  -9  12 14.1100 1.96000   1
   7   9 -12 18.6700 1.84000   1
   1  12 -12 -1.9700 0.80000   1
   1  12 -12 0.14000 0.67000   1
  -1 -12  12 0.95000 0.68000   1
   4  13  -7 1.64000 1.18000   1
  -4 -13   7 2.37000 1.17000   1
 -10  10   5 17.6800 1.52000   1
  10 -10  -5 14.0200 1.59000   1
  -4   9 -12 13.4400 1.65000   1
   4  -9  12 12.2900 1.18000   1
  10   4 -12 3.55000 1.41000   1
  10   4 -12 3.36000 1.44000   1
 -10  -4  12 4.55000 1.30000   1
   5   7   6 11.6400 1.45000   1
   5   7   6 9.02000 1.41000   1
  -5  -7  -6 12.6600 1.76000   1
   6   0 -15 12.4600 1.66000   1
  -6   0  15 10.5400 1.45000   1
   1  11 -13 10.1700 1.35000   1
  -1 -11  13 9.42000 1.26000   1
   1  11 -13 6.95000 1.08000   1
   1  11 -13 9.78000 1.65000   1
   7 -12  -5 0.91000 0.93000   1
  -7  12   5 -0.2200 0.70000   1
  -2   5 -14 11.7800 1.05000   1
   2  -5  14 15.7400 1.66000   1
  -2   5 -14 13.1300 1.74000   1
  -1  13   3 26.2800 2.04000   1
  -1  13   3 32.1300 2.57000   1
   1 -13  -3 21.4700 1.98000   1
 -12  -2   7 19.6200 1.86000   1
  12   2  -7 20.1900 2.01000   1
  12   2  -7 13.7400 2.18000   1
 -10   9  -4 5.16000 0.81000   1
 -11   8  -2 9.46000 1.01000   1
   9   4   3 11.1600 1.08000   1
  -9  -4  -3 1.83000 0.99000   1
   9   4   3 6.45000 1.36000   1
   8 -12  -4 4.75000 1.27000   1
  -8  12   4 4.21000 1.11000   1
   7   2 -15 10.7500 1.77000   1
  -7  -2  15 13.3600 1.67000   1
 -12   2   9 5.11000 0.87000   1
  12  -2  -9 2.02000 1.24000   1
  -5  14   1 16.0700 1.68000   1
   5 -14  -1 19.7400 2.27000   1
  12   0  -9 -0.9100 0.84000   1
 -12   0   9 -0.9400 0.78000   1
   2  11 -13 0.67000 1.04000   1
  -2 -11  13 0.80000 0.85000   1
   2  11 -13 0.61000 1.05000   1
   2  11 -13 0.86000 0.71000   1
   5   6   7 2.69000 0.96000   1
  -5  -6  -7 2.70000 1.11000   1
   5   6   7 1.30000 0.72000   1
   7   3 -15 4.25000 1.40000   1
  -7  -3  15 7.52000 1.33000   1
  -7  -3  -7 15.5600 1.93000   1
   7   3   7 21.7500 2.06000   1
 -10   3  12 8.10000 1.11000   1
  10  -3 -12 10.4200 1.83000   1
   1  -1  14 9.38000 1.35000   1
  -1   1 -14 5.83000 1.42000   1
  -1   1 -14 5.25000 0.89000   1
 -10  11   1 2.91000 0.60000   1
  10 -11  -1 2.95000 0.70000   1
  -4  14  -7 5.69000 0.79000   1
  -4  14  -7 7.17000 1.32000   1
 -10   2  -5 0.11000 0.93000   1
  10  -2   5 3.93000 0.96000   1
   0   6  11 16.7200 1.54000   1
   0   6  11 14.4900 1.50000   1
   0  -6 -11 13.4400 1.49000   1
   0  -6 -11 16.3000 1.72000   1
   8   5 -14 6.13000 0.94000   1
   8   5 -14 2.54000 1.45000   1
  -8  -5  14 2.98000 1.08000   1
   4 -13  -4 1.32000 1.18000   1
  -4  13   4 2.62000 1.00000   1
  -6   3  14 7.51000 1.21000   1
   6  -3 -14 5.22000 1.46000   1
 -11  -5   6 13.1900 1.79000   1
  11   5  -6 11.7800 2.11000   1
  11   5  -6 15.7100 1.64000   1
  -5   5  13 1.88000 0.95000   1
  -5   5  13 4.19000 1.03000   1
   5  -5 -13 3.46000 0.99000   1
   0  12 -12 7.19000 1.41000   1
   0 -12  12 8.35000 1.16000   1
   0  12 -12 8.23000 1.05000   1
  11   5  -7 1.12000 1.23000   1
  11   5  -7 1.45000 0.90000   1
 -11  -5   7 1.34000 1.03000   1
   9   7  -1 -0.0400 0.88000   1
   9   7  -1 1.19000 0.99000   1
  -9  -7   1 -0.1100 0.85000   1
   6  10 -12 7.73000 1.44000   1
   6  10 -12 3.87000 1.35000   1
   6  10 -12 6.34000 1.50000   1
  -6 -10  12 8.06000 1.57000   1
  -1  -7  15 7.08000 1.20000   1
   1   7 -15 4.85000 1.26000   1
   1   7 -15 9.11000 1.34000   1
  -9   7  -7 5.62000 1.15000   1
   9   5 -13 2.72000 1.48000   1
  -9  -5  13 8.29000 1.43000   1
   9   5 -13 5.34000 1.24000   1
  -8   8  10 8.44000 0.79000   1
   8  -8 -10 7.08000 1.74000   1
  -8   8  10 9.56000 1.39000   1
  -2   4 -14 7.67000 0.91000   1
   2  -4  14 10.8500 1.39000   1
  -2   4 -14 11.0200 1.47000   1
 -10  11   0 5.01000 0.66000   1
   2  14  -4 0.53000 0.75000   1
  -2 -14   4 -0.0600 0.70000   1
   2  -6  14 4.24000 1.18000   1
  -2   6 -14 5.97000 0.74000   1
  -2   6 -14 5.56000 1.44000   1
   9  -3   7 10.2500 1.27000   1
  -9   3  -7 12.7200 1.49000   1
  12  -2   0 14.1200 1.33000   1
 -12   2   0 12.9600 1.20000   1
  -8  13  -1 6.86000 0.77000   1
  -8  13  -1 7.21000 0.81000   1
  -5  13  -8 17.2600 1.73000   1
  -4  11 -11 19.3000 1.94000   1
   9   5   2 -1.6100 0.92000   1
   9   5   2 0.15000 0.84000   1
  -9  -5  -2 1.88000 0.75000   1
 -10  10  -3 5.09000 0.73000   1
   3   6   9 10.4800 1.31000   1
   3   6   9 7.87000 1.04000   1
  -3  -6  -9 6.14000 1.00000   1
  -7  13  -5 0.15000 0.58000   1
  -3  -9  -6 -0.1100 0.80000   1
   3   9   6 0.79000 0.86000   1
   3   9   6 0.43000 0.66000   1
   7  10  -2 3.00000 1.34000   1
   7  10  -2 3.87000 0.98000   1
  -6  14   0 19.9100 1.85000   1
  -6  14   0 23.1000 1.68000   1
  10  -9  -7 3.31000 0.95000   1
 -10   9   7 0.08000 0.89000   1
   9 -11  -5 0.33000 0.72000   1
  -9  11   5 -0.3600 0.68000   1
  -2 -12  12 10.0100 1.46000   1
   2  12 -12 11.4900 1.66000   1
   2  12 -12 13.2300 1.90000   1
   9   3   4 1.80000 1.01000   1
  -9  -3  -4 0.73000 0.91000   1
  -4  13  -9 9.31000 1.32000   1
   8 -13   0 4.75000 0.90000   1
  -8  13   0 5.38000 0.65000   1
  -8  13   0 6.21000 0.91000   1
  10   7  -7 -1.4000 1.02000   1
 -10  -7   7 1.39000 0.97000   1
  10   7  -7 0.35000 1.04000   1
   2  14  -7 2.54000 1.07000   1
  -2 -14   7 1.16000 0.85000   1
  10  -5 -11 17.1800 2.17000   1
 -10   5  11 15.8600 1.35000   1
  -6   5 -11 2.16000 0.86000   1
   6  -5  11 -0.3400 0.74000   1
   2   8   8 8.76000 1.19000   1
  -2  -8  -8 8.06000 1.50000   1
  -2  -8  -8 7.21000 1.19000   1
   2   8   8 7.58000 1.13000   1
 -11   0  -2 7.25000 1.04000   1
  11   0   2 7.51000 1.08000   1
  -5  13   4 14.2500 1.56000   1
   5 -13  -4 14.2500 1.99000   1
  -3  14  -8 19.9000 1.59000   1
  -3  14  -8 17.3000 2.00000   1
  10   7  -6 13.0400 1.89000   1
 -10  -7   6 16.1300 1.98000   1
  10   7  -6 14.3900 2.03000   1
   4  -5 -13 7.29000 1.21000   1
  -4   5  13 7.20000 1.32000   1
  -4   5  13 6.34000 1.16000   1
 -10  11   2 12.1600 1.20000   1
  10 -11  -2 14.5000 1.37000   1
  -8  12  -5 7.00000 1.14000   1
   6  11  -2 9.99000 1.75000   1
   6  11  -2 10.2700 1.42000   1
   8  -9  -9 0.98000 0.88000   1
  -8   9   9 1.61000 0.75000   1
  -8   9   9 0.45000 0.41000   1
  -9  12   2 0.27000 0.53000   1
   9 -12  -2 -0.0500 0.76000   1
 -10  -3  -2 10.8800 1.37000   1
  10   3   2 6.86000 1.46000   1
   7   1 -15 0.68000 0.88000   1
  -7  -1  15 0.42000 0.88000   1
  -5  -8  -5 11.9700 1.82000   1
   5   8   5 15.0100 1.69000   1
   5   8   5 14.3300 1.72000   1
  12   2  -4 9.78000 1.31000   1
 -12  -2   4 6.52000 0.87000   1
 -12  -2   4 6.74000 1.17000   1
 -11   2  -3 2.43000 0.80000   1
  11  -2   3 2.38000 0.91000   1
   8   8 -12 4.01000 1.62000   1
  -8  -8  12 4.59000 1.57000   1
   8   8 -12 2.53000 1.38000   1
   8   8 -12 7.07000 1.07000   1
   0  -5  15 6.90000 1.31000   1
   0   5 -15 4.65000 1.42000   1
   0   5 -15 5.23000 0.94000   1
   6   8 -14 0.95000 1.00000   1
  -6  -8  14 0.62000 1.08000   1
   6   8 -14 0.61000 0.93000   1
   6   8 -14 0.59000 0.89000   1
  -6   6 -11 1.26000 0.93000   1
   6  -6  11 2.68000 0.93000   1
   7   8   2 12.5900 1.51000   1
   7   8   2 12.3100 1.46000   1
  -7  -8  -2 10.4200 1.34000   1
   4  13  -4 20.8700 1.69000   1
   4  13  -4 14.2200 2.05000   1
  -6  14  -4 1.26000 0.74000   1
  -6  14  -4 4.10000 0.63000   1
  -8   4  13 14.3600 1.60000   1
   8  -4 -13 16.1500 2.06000   1
  -3  13   4 4.90000 0.63000   1
  -3  13   4 6.85000 1.16000   1
   3 -13  -4 2.38000 1.29000   1
  -9  12  -2 11.3500 0.97000   1
   9   0   6 1.92000 0.94000   1
  -9   0  -6 0.76000 0.82000   1
  -5  14  -6 4.49000 1.18000   1
  -5  14  -6 4.47000 0.68000   1
   0 -11  13 4.29000 1.18000   1
   0  11 -13 4.48000 1.20000   1
   0  11 -13 6.24000 1.02000   1
   0  11 -13 6.14000 1.12000   1
  11   5  -5 6.82000 1.69000   1
 -11  -5   5 11.0100 1.51000   1
  11   5  -5 8.01000 1.20000   1
  -6   5  13 8.06000 1.24000   1
  -6   5  13 10.1000 1.61000   1
   6  -5 -13 11.7300 1.62000   1
  -1  12   5 -0.1200 0.73000   1
   1 -12  -5 1.39000 0.81000   1
  -1  12   5 -0.6000 0.50000   1
   0   4 -15 2.97000 0.91000   1
   0   4 -15 3.92000 1.15000   1
   0  -4  15 2.08000 0.95000   1
 -11   9  -1 3.17000 0.55000   1
   8   7 -13 2.08000 0.97000   1
   8   7 -13 -1.0500 1.07000   1
   8   7 -13 -0.0300 0.64000   1
  -8  -7  13 2.00000 1.11000   1
   7   4 -15 1.87000 1.08000   1
  -7  -4  15 -0.1500 0.98000   1
  -5 -10  13 5.34000 1.45000   1
   5  10 -13 4.02000 1.09000   1
   5  10 -13 3.12000 1.41000   1
   5  10 -13 1.62000 1.17000   1
   4  12 -11 17.3600 2.18000   1
   4  12 -11 16.9600 2.01000   1
  -4 -12  11 17.9000 2.33000   1
  11  -6  -9 15.7500 1.91000   1
 -11   6   9 12.1600 1.01000   1
  -8  -1  -7 26.0700 2.26000   1
   8   1   7 23.4700 2.33000   1
   4   9   5 0.56000 0.73000   1
  -4  -9  -5 1.34000 0.99000   1
   4   9   5 0.49000 0.94000   1
   8  -7 -11 18.1800 2.16000   1
  -8   7  11 15.1400 1.30000   1
  -8   7  11 18.3100 1.89000   1
  -8  13  -2 0.49000 0.59000   1
  -8  13  -2 0.74000 0.47000   1
  11  -7  -8 11.5500 1.55000   1
 -12   6   0 5.54000 0.68000   1
  -4 -13   8 -0.1700 1.08000   1
   4  13  -8 3.27000 1.10000   1
  -3   3  14 0.98000 0.82000   1
   3  -3 -14 2.91000 1.01000   1
   3  -3 -14 -0.0600 0.77000   1
  -3   3  14 1.93000 0.76000   1
   2   7   9 6.99000 1.20000   1
   2   7   9 3.00000 1.25000   1
  -2  -7  -9 7.41000 1.15000   1
  -2  -7  -9 4.99000 1.32000   1
  -5  -7  15 0.71000 1.02000   1
   5   7 -15 0.70000 1.02000   1
   5   7 -15 0.51000 0.90000   1
 -10  -4  -1 29.6000 2.44000   1
  10   4   1 24.0400 2.40000   1
  10   4   1 25.3800 2.10000   1
   0  -3 -13 5.46000 1.03000   1
   0  -3 -13 7.17000 1.11000   1
   0   3  13 6.64000 0.95000   1
   0   3  13 6.21000 1.22000   1
 -11   7  -3 0.02000 0.49000   1
   6   6 -15 0.61000 0.66000   1
   6   6 -15 1.16000 0.97000   1
  -6  -6  15 -1.0200 0.89000   1
  -7  11  -8 9.93000 1.31000   1
  11   5  -8 23.9400 2.56000   1
  11   5  -8 18.5300 2.30000   1
 -11  -5   8 18.1100 2.12000   1
  -4  12   6 9.83000 1.44000   1
  -4  12   6 7.49000 0.80000   1
   4 -12  -6 10.2300 1.47000   1
  10   1 -13 6.82000 1.52000   1
 -10  -1  13 2.88000 1.25000   1
 -12   3   9 6.99000 0.98000   1
  12  -3  -9 7.41000 1.56000   1
   8   8   0 9.63000 1.54000   1
  -8  -8   0 14.8400 1.62000   1
   8   8   0 11.4500 1.60000   1
  -5  12   6 2.16000 0.92000   1
   5 -12  -6 0.01000 1.12000   1
 -12  -2   8 1.87000 0.87000   1
  12   2  -8 -0.3500 0.93000   1
  12   2  -8 1.04000 0.84000   1
 -11  -4  10 3.66000 1.34000   1
  11   4 -10 5.64000 1.44000   1
  11   4 -10 4.94000 1.54000   1
  -7  -7  14 11.6200 1.88000   1
   7   7 -14 10.7100 1.27000   1
   7   7 -14 10.6200 1.69000   1
   7   7 -14 10.3400 1.76000   1
  -5   5 -12 0.78000 0.98000   1
   5  -5  12 1.31000 0.87000   1
  12   1  -9 1.87000 0.95000   1
 -12  -1   9 3.07000 1.04000   1
   8   5   4 5.78000 0.97000   1
  -8  -5  -4 9.32000 1.24000   1
   8   5   4 4.79000 1.43000   1
   0  14  -9 1.17000 1.04000   1
   0  14  -9 0.63000 0.88000   1
   0 -14   9 0.12000 0.66000   1
   4  11   2 8.61000 1.46000   1
   4  11   2 12.2600 1.74000   1
  12   0  -1 2.68000 0.90000   1
 -12   0   1 1.68000 0.71000   1
   7  -5  10 0.03000 0.54000   1
  -7   5 -10 0.29000 0.80000   1
   2   9   7 6.93000 1.14000   1
   2   9   7 4.86000 1.05000   1
  -2  -9  -7 8.18000 1.28000   1
  -2  -9  -7 2.99000 1.33000   1
   2 -11  -7 -1.0100 0.88000   1
  -2  11   7 0.56000 1.04000   1
  -2  11   7 2.79000 0.63000   1
   7 -11  -7 11.6500 1.62000   1
  -7  11   7 7.78000 1.18000   1
  -1  14  -9 0.54000 0.88000   1
  -1  14  -9 3.12000 1.07000   1
   6  -4  11 1.55000 0.92000   1
  -6   4 -11 1.97000 1.01000   1
   1   2  13 11.7800 1.27000   1
   1   2  13 10.4800 1.59000   1
  -1  -2 -13 14.6700 1.69000   1
  -1  -2 -13 10.0900 1.17000   1
  10   7  -8 13.7700 2.11000   1
 -10  -7   8 12.0400 1.91000   1
  10   7  -8 18.8100 2.12000   1
   5   2  10 7.34000 1.43000   1
  -5  -2 -10 6.15000 1.40000   1
  -3  12 -11 3.90000 0.86000   1
  -3  12 -11 4.04000 1.13000   1
  -5  -5  -8 11.6300 1.67000   1
  -5  -5  -8 12.7600 1.21000   1
   5   5   8 12.1100 1.67000   1
   5   5   8 11.2000 1.15000   1
 -10  11  -1 1.58000 0.49000   1
   3  11 -13 2.28000 0.89000   1
   3  11 -13 1.36000 1.13000   1
   3  11 -13 2.27000 1.12000   1
  -3 -11  13 -0.3900 1.09000   1
  -4  -5  -9 0.45000 0.91000   1
  -4  -5  -9 0.96000 0.60000   1
   4   5   9 0.46000 0.86000   1
   4   5   9 0.09000 0.56000   1
   0  14   0 0.98000 0.94000   1
   0  14   0 0.71000 0.58000   1
  12   1  -2 11.0200 1.33000   1
 -12  -1   2 8.57000 1.02000   1
  10   6  -2 10.6300 1.65000   1
  10   6  -2 9.20000 1.74000   1
 -10  -6   2 13.9600 1.58000   1
 -11   3  11 6.55000 1.01000   1
  11  -3 -11 8.70000 1.53000   1
   9 -10  -7 0.68000 0.91000   1
  -9  10   7 1.75000 0.84000   1
  -9   3  13 2.23000 0.77000   1
   9  -3 -13 -0.2300 1.20000   1
   5  -6  12 7.27000 1.09000   1
  -5   6 -12 8.52000 1.42000   1
   7  -6  10 11.2400 1.16000   1
  -7   6 -10 12.5100 1.58000   1
   9   8  -3 9.76000 1.73000   1
   9   8  -3 4.74000 1.37000   1
  10   2   3 1.01000 0.88000   1
 -10  -2  -3 -0.5000 0.74000   1
  -7  12  -7 2.16000 0.83000   1
  -5   1  15 0.50000 0.79000   1
   5  -1 -15 0.70000 0.98000   1
   0   6 -15 -0.1100 0.65000   1
   0  -6  15 1.02000 0.90000   1
   0   6 -15 0.52000 0.95000   1
  12  -7  -5 -0.2000 0.54000   1
   3   8 -15 13.3600 1.74000   1
   3   8 -15 12.5400 1.74000   1
  -3  -8  15 9.25000 1.69000   1
 -10   0  13 1.51000 0.91000   1
  10   0 -13 3.06000 1.27000   1
  -7  13   3 16.2300 1.80000   1
   7 -13  -3 17.3600 1.89000   1
   2  -3  14 -0.0200 0.91000   1
  -2   3 -14 0.99000 0.49000   1
  -2   3 -14 0.90000 0.87000   1
 -10   8  -5 6.01000 1.09000   1
  10   7  -5 1.90000 1.37000   1
  10   7  -5 3.25000 1.20000   1
  -6  13  -7 1.84000 0.80000   1
   2 -10  13 3.47000 0.71000   1
  -2  10 -13 0.89000 0.61000   1
  -2  10 -13 0.87000 0.98000   1
 -11   9   5 0.80000 0.57000   1
  11  -9  -5 0.50000 0.68000   1
   0  11   6 6.15000 1.43000   1
   0 -11  -6 7.98000 1.39000   1
   0  11   6 8.53000 1.04000   1
  -8  13   1 6.53000 1.04000   1
   8 -13  -1 8.01000 1.19000   1
  -9  -8  10 14.9100 2.03000   1
   9   8 -10 8.67000 1.93000   1
   9   8 -10 14.7500 2.10000   1
  -8   9  -8 11.9400 1.57000   1
   9   1 -14 20.0000 2.51000   1
  -9  -1  14 25.0000 2.36000   1
  -2  15  -4 1.46000 0.98000   1
  -4   1  15 1.76000 0.93000   1
   4  -1 -15 1.32000 0.59000   1
   4  -1 -15 3.41000 1.12000   1
  -2 -10  14 0.38000 0.84000   1
   2  10 -14 3.61000 1.07000   1
   2  10 -14 -0.3700 0.68000   1
   2  10 -14 2.12000 1.07000   1
  11   4  -2 18.6300 2.02000   1
  11   4  -2 14.3900 1.65000   1
 -11  -4   2 15.4800 1.57000   1
   2   8 -15 4.42000 1.13000   1
   2   8 -15 6.79000 1.41000   1
  -2  -8  15 7.66000 1.27000   1
  -9  -2  14 -0.8700 0.85000   1
   9   2 -14 5.09000 1.24000   1
  -2   7 -14 0.00000 0.99000   1
  -2   7 -14 0.42000 0.49000   1
   2  -7  14 1.63000 0.73000   1
   6   2   9 6.38000 1.42000   1
  -6  -2  -9 8.23000 1.39000   1
   0 -13  11 1.93000 0.80000   1
   0  13 -11 2.62000 0.93000   1
   0  13 -11 2.19000 1.06000   1
  -8   1  -8 23.2300 2.11000   1
   8  -1   8 19.9900 1.92000   1
  -2   0  15 6.54000 1.19000   1
   2   0 -15 5.16000 1.17000   1
   2   0 -15 2.46000 0.84000   1
   6   6   6 13.6200 1.45000   1
   6   6   6 15.9100 1.87000   1
  -6  -6  -6 16.7000 1.72000   1
  10   2 -13 11.0100 1.85000   1
 -10  -2  13 9.79000 1.68000   1
  -1  12 -12 6.83000 0.86000   1
  -1  12 -12 6.72000 1.16000   1
  -1  12 -12 5.71000 1.57000   1
   1 -12  12 9.19000 1.05000   1
  -2   6  12 1.34000 0.98000   1
   2  -6 -12 3.27000 1.00000   1
   2  -6 -12 -0.0600 0.83000   1
  -2   6  12 1.96000 0.86000   1
   3  13  -1 11.6000 1.27000   1
   3  13  -1 10.0900 1.75000   1
  -6   7 -11 1.34000 0.78000   1
   6  -7  11 1.48000 0.63000   1
  -8  -4  -5 10.2500 1.35000   1
   8   4   5 5.00000 1.48000   1
   5   9 -14 0.33000 0.81000   1
   5   9 -14 0.33000 1.04000   1
  -5  -9  14 2.58000 1.15000   1
   5   9 -14 0.86000 0.98000   1
 -11  -3  11 12.1900 1.80000   1
  11   3 -11 11.2600 1.91000   1
   8   9  -2 2.25000 1.23000   1
   8   9  -2 5.31000 1.13000   1
  -3 -13  10 15.0600 2.01000   1
   3  13 -10 16.6000 2.05000   1
   3  13 -10 16.2800 1.93000   1
   2  14  -3 11.0400 1.12000   1
   2  14  -3 11.7800 1.63000   1
  -6   0 -10 14.2400 1.79000   1
   6   0  10 11.4800 1.65000   1
   1  -9  -9 12.0200 1.70000   1
  -1   9   9 13.7400 1.60000   1
  -1   9   9 12.9100 1.53000   1
   0   3 -15 0.74000 0.62000   1
   0  -3  15 -0.6000 0.93000   1
   0   3 -15 1.40000 0.96000   1
   1  13 -11 14.5000 1.66000   1
   1  13 -11 14.1800 2.11000   1
  -1 -13  11 13.9200 1.56000   1
  -8   2  14 3.90000 1.04000   1
   8  -2 -14 2.39000 1.34000   1
  -9   5  12 5.90000 1.02000   1
   9  -5 -12 5.37000 1.56000   1
  -6  10 -10 9.96000 1.43000   1
   4  12   0 5.83000 1.03000   1
   4  12   0 7.86000 1.54000   1
   8   6   3 0.19000 0.99000   1
   8   6   3 1.43000 0.91000   1
  -8  -6  -3 1.13000 0.86000   1
  -1  -1  15 0.56000 0.50000   1
   1   1 -15 -0.6300 0.82000   1
   1   1 -15 1.16000 0.82000   1
  -1  -1  15 0.37000 0.86000   1
  -5   4 -12 1.48000 1.04000   1
   5  -4  12 0.63000 0.92000   1
  -1  14   1 3.86000 0.90000   1
  -1  14   1 -0.3700 0.48000   1
  -7   4 -10 1.01000 0.76000   1
   7  -4  10 -0.4500 0.62000   1
  -2  15  -3 -0.1800 0.73000   1
   6   7   5 9.92000 1.36000   1
  -6  -7  -5 8.68000 1.52000   1
   6   7   5 10.2200 1.40000   1
  -5   0 -11 0.66000 1.00000   1
   5   0  11 2.20000 1.01000   1
  -3  15  -4 7.64000 1.51000   1
  -3  15  -4 11.7900 1.31000   1
   1  -8 -10 1.60000 0.78000   1
   1  -8 -10 0.94000 0.94000   1
  -1   8  10 -0.8200 1.00000   1
  -1   8  10 0.89000 0.81000   1
  -3  15  -3 8.16000 1.11000   1
  -3  15  -3 3.44000 1.02000   1
  -3  13 -10 23.8500 2.14000   1
  -2  15  -5 8.60000 1.29000   1
  -2  15  -5 1.27000 1.13000   1
  10 -11  -3 11.4200 1.50000   1
 -10  11   3 11.6600 1.08000   1
  -1 -10  14 9.47000 1.25000   1
   1  10 -14 5.97000 1.41000   1
   1  10 -14 4.43000 1.22000   1
   1  10 -14 5.03000 0.88000   1
  -9  -6  -1 9.63000 1.39000   1
   9   6   1 8.73000 1.33000   1
   9   6   1 8.86000 1.54000   1
  11  -5 -10 14.3100 2.01000   1
 -11   5  10 12.9600 1.18000   1
  -5  10 -11 12.0300 1.53000   1
  -5 -12  10 4.09000 1.42000   1
   5  12 -10 6.63000 1.42000   1
   4 -14  -2 4.91000 1.28000   1
  -4  14   2 3.23000 1.16000   1
   1  14  -1 11.6300 1.14000   1
   1  14  -1 11.1000 1.64000   1
   0  -1 -14 16.2700 1.61000   1
   0  -1 -14 16.4100 1.44000   1
   0   1  14 13.1900 1.24000   1
   0   1  14 13.0600 1.53000   1
  -1  -4 -12 7.03000 1.04000   1
  -1  -4 -12 4.88000 1.10000   1
   1   4  12 4.74000 0.88000   1
   1   4  12 5.84000 1.02000   1
  11  -8  -7 1.20000 0.95000   1
   7  -3 -14 4.09000 1.38000   1
  -7   3  14 6.93000 1.12000   1
   1  -2 -14 2.79000 0.83000   1
  -1   2  14 2.08000 0.77000   1
  -1   2  14 3.24000 0.98000   1
   1  -2 -14 2.80000 0.99000   1
  -8  10   8 5.42000 0.92000   1
   8 -10  -8 2.50000 1.37000   1
   5  11 -12 1.27000 0.98000   1
   5  11 -12 1.07000 1.01000   1
   5  11 -12 0.70000 0.89000   1
  -5 -11  12 -0.9600 0.87000   1
  12  -5  -8 7.25000 1.29000   1
 -12   5   8 7.19000 0.82000   1
   7  10 -11 0.60000 0.98000   1
   7  10 -11 -0.3000 1.09000   1
  -7 -10  11 0.88000 1.13000   1
   5  -9 -10 0.45000 0.85000   1
  -5   9  10 0.06000 0.51000   1
  -5   9  10 0.49000 0.87000   1
   3 -12  -6 7.02000 1.36000   1
  -3  12   6 7.79000 0.84000   1
  -3  12   6 6.85000 1.40000   1
   7  11  -7 -0.5700 0.97000   1
  -7 -11   7 -0.4200 1.14000   1
 -12   1   0 3.69000 0.72000   1
  12  -1   0 3.48000 0.84000   1
   4   2  11 -0.7000 0.87000   1
  -4  -2 -11 1.14000 0.90000   1
  -9  -2  -5 8.13000 1.37000   1
   9   2   5 8.44000 1.29000   1
  -2 -14   8 6.24000 1.15000   1
   2  14  -8 5.63000 1.42000   1
   5  12  -2 9.46000 1.25000   1
   5  12  -2 9.52000 1.72000   1
  -7 -11   6 9.05000 1.70000   1
   7  11  -6 5.59000 1.64000   1
  12  -6  -7 16.4200 1.69000   1
  -3   5  13 2.38000 0.80000   1
  -3   5  13 1.95000 0.84000   1
   3  -5 -13 0.81000 0.62000   1
   3  -5 -13 2.06000 0.88000   1
  -7   0  15 5.40000 1.01000   1
   7   0 -15 5.11000 1.36000   1
  -6  13   4 2.59000 0.86000   1
   6 -13  -4 1.70000 1.19000   1
  -9   8  -7 9.26000 1.42000   1
  11   5  -4 0.90000 0.78000   1
  11   5  -4 3.63000 1.20000   1
  11   5  -4 0.37000 0.84000   1
  -3  14   2 10.0400 1.49000   1
   3 -14  -2 11.7900 1.40000   1
  -3 -10  14 0.64000 0.93000   1
   3  10 -14 -0.3500 1.00000   1
   3  10 -14 0.73000 0.95000   1
  -1  15  -4 3.65000 1.22000   1
  -1   4  13 16.3300 1.46000   1
   1  -4 -13 6.98000 1.40000   1
   1  -4 -13 10.5900 1.28000   1
  -1   4  13 8.21000 1.30000   1
  -9   0  14 2.78000 1.15000   1
   9   0 -14 5.37000 1.47000   1
  -5   7 -12 13.0600 1.69000   1
   5  -7  12 9.33000 1.18000   1
  -1   9 -14 1.19000 1.05000   1
  -1   9 -14 1.09000 0.64000   1
   1  -9  14 0.54000 0.70000   1
   3  -1  13 7.95000 1.47000   1
  -3   1 -13 10.5600 1.64000   1
  -7   7 -10 2.24000 0.84000   1
   7  -7  10 0.28000 0.56000   1
  -8  13  -3 5.43000 0.87000   1
  -8  13  -3 15.0300 0.96000   1
   9  -2   7 6.26000 1.10000   1
  -9   2  -7 6.89000 1.16000   1
  -6  14   1 6.32000 0.81000   1
   6 -14  -1 4.76000 1.47000   1
  -6  14   1 8.69000 1.13000   1
  -1 -14   9 7.15000 1.04000   1
   1  14  -9 10.4700 1.55000   1
   1  14  -9 4.48000 1.22000   1
   9   3 -14 -0.3100 1.17000   1
  -9  -3  14 1.43000 0.91000   1
  -1  15  -5 1.14000 0.84000   1
  -2  14  -9 15.6100 1.56000   1
  -2  14  -9 18.4500 1.86000   1
   6 -12  -6 12.0800 1.63000   1
  -6  12   6 10.0000 1.38000   1
   6  -1 -15 10.8600 1.73000   1
  -6   1  15 12.3600 1.51000   1
  -3 -12  12 14.1200 1.99000   1
   3  12 -12 14.1200 1.89000   1
   3  12 -12 11.4500 1.97000   1
   4   8 -15 -0.5000 0.95000   1
   4   8 -15 2.04000 0.98000   1
   4   8 -15 -0.2100 0.79000   1
  -4  -8  15 2.23000 1.05000   1
 -12   4  -1 3.93000 0.67000   1
  -6  -5  -7 12.7300 1.73000   1
   6   5   7 13.7900 1.66000   1
   6   5   7 11.9600 1.20000   1
  -8 -10   7 0.78000 1.16000   1
   8  10  -7 0.56000 1.18000   1
 -10  -5   0 2.40000 0.97000   1
  10   5   0 1.30000 0.91000   1
  10   5   0 1.95000 1.08000   1
   3  -9  13 11.4800 1.26000   1
  -3   9 -13 14.0400 1.59000   1
   2   3  12 8.01000 1.31000   1
  -2  -3 -12 6.41000 1.01000   1
   2   3  12 4.12000 0.77000   1
  -2  -3 -12 6.49000 1.19000   1
  -1  13 -11 3.90000 1.31000   1
  -1  13 -11 5.34000 0.91000   1
   1 -13  11 4.59000 0.81000   1
  10  -1 -13 2.57000 1.23000   1
 -10   1  13 1.06000 0.83000   1
  12   2  -3 0.88000 0.83000   1
  12   2  -3 0.65000 0.90000   1
 -12  -2   3 1.07000 0.74000   1
   5  -8 -11 0.26000 0.88000   1
  -5   8  11 1.60000 0.75000   1
  -5   8  11 -0.4900 0.53000   1
   2   6  10 1.19000 0.78000   1
  -2  -6 -10 2.26000 0.95000   1
  -2  -6 -10 4.55000 1.16000   1
   2   6  10 2.82000 0.85000   1
  -7  -5  15 5.12000 1.39000   1
   7   5 -15 4.57000 1.32000   1
   7   5 -15 3.31000 0.74000   1
  -2  13   4 7.53000 0.84000   1
  -2  13   4 9.73000 1.34000   1
   2 -13  -4 9.21000 1.53000   1
  -9  12   3 9.02000 1.10000   1
   9 -12  -3 8.66000 1.46000   1
  -3  -5 -10 1.02000 0.96000   1
  -3  -5 -10 0.32000 0.58000   1
   3   5  10 0.94000 0.60000   1
   3   5  10 0.76000 0.86000   1
  -7   5  13 7.98000 1.13000   1
   7  -5 -13 10.7100 1.69000   1
   8  10  -6 9.57000 2.10000   1
  -8 -10   6 14.2600 2.03000   1
   3  10   5 1.28000 0.86000   1
   3  10   5 0.56000 0.85000   1
  -3 -10  -5 0.93000 1.03000   1
   4  13  -3 0.95000 1.09000   1
   4  13  -3 1.34000 0.92000   1
  -3  15  -5 1.99000 0.83000   1
  -3  15  -5 2.28000 1.10000   1
  -8  -9  11 1.12000 1.04000   1
   8   9 -11 -0.2300 0.78000   1
   8   9 -11 -1.4200 1.08000   1
  -4   9  10 4.63000 0.85000   1
  -4   9  10 6.23000 1.28000   1
   4  -9 -10 3.10000 1.19000   1
   3 -11  12 5.15000 1.00000   1
  -3  11 -12 6.26000 1.13000   1
  -3  11 -12 7.12000 1.27000   1
  -5  -9  -4 -0.9700 0.87000   1
   5   9   4 1.34000 0.72000   1
   5   9   4 1.73000 0.99000   1
   1 -10  -8 11.7300 1.45000   1
   1 -10  -8 5.34000 1.19000   1
  -1  10   8 5.14000 0.92000   1
  -1  10   8 3.64000 1.31000   1
 -10   1  -5 2.85000 0.88000   1
  10  -1   5 2.60000 1.07000   1
  -6   3 -11 8.72000 1.53000   1
   6  -3  11 9.97000 1.31000   1
  10   7  -9 2.86000 1.38000   1
  10   7  -9 3.42000 1.42000   1
 -10  -7   9 2.14000 1.02000   1
  11   5  -9 -0.0500 1.13000   1
  11   5  -9 -0.3600 0.88000   1
 -11  -5   9 1.37000 0.96000   1
  -8   6  12 0.20000 0.72000   1
   8  -6 -12 1.92000 1.09000   1
  -3  15  -2 6.39000 1.14000   1
  -9  12  -3 0.29000 0.49000   1
  -6  14  -5 11.2500 1.02000   1
  -6  14  -5 11.8800 1.37000   1
 -12   5  -1 0.34000 0.50000   1
   3  -1 -15 6.35000 1.24000   1
   3  -1 -15 5.70000 0.89000   1
  -3   1  15 11.2100 1.30000   1
  -1  -8  15 0.16000 0.87000   1
   1   8 -15 1.93000 0.96000   1
   1   8 -15 -0.6100 0.68000   1
  -6   9  10 9.41000 0.98000   1
  -6   9  10 11.9700 1.61000   1
   6  -9 -10 15.0800 1.79000   1
  -7  10  -9 7.24000 1.26000   1
   7   0   9 4.97000 1.32000   1
  -7   0  -9 5.05000 1.06000   1
  -2  -1 -13 6.81000 0.91000   1
  -2  -1 -13 7.99000 1.46000   1
   2   1  13 7.55000 1.24000   1
  -5  10   9 4.36000 0.74000   1
  -5  10   9 7.60000 1.29000   1
   5 -10  -9 8.40000 1.41000   1
  -7 -11   8 19.3600 2.51000   1
   7  11  -8 24.1300 2.79000   1
  -1  11 -13 2.02000 0.85000   1
  -1  11 -13 0.59000 0.93000   1
   1 -11  13 2.69000 0.81000   1
   0   7 -15 10.4900 1.30000   1
   0   7 -15 11.2400 1.54000   1
   0  -7  15 12.5400 1.42000   1
   5 -14  -2 8.18000 1.59000   1
  -5  14   2 7.69000 1.34000   1
  10   6 -11 2.77000 1.30000   1
 -10  -6  11 4.33000 1.17000   1
  10   6 -11 -0.3000 1.16000   1
   2  10   6 1.87000 0.81000   1
  -2 -10  -6 0.86000 0.98000   1
   2  10   6 -0.0100 0.79000   1
  -2 -10  -6 0.16000 0.88000   1
 -12   3  -1 8.42000 1.02000   1
  12  -3   1 7.51000 0.99000   1
  -4 -13   9 14.7600 1.83000   1
   4  13  -9 15.8800 1.98000   1
  12   3  -6 1.09000 0.76000   1
  12   3  -6 -0.6100 0.94000   1
 -12  -3   6 1.30000 0.97000   1
  10   3 -13 11.4000 1.88000   1
 -10  -3  13 11.5700 1.72000   1
  10   5 -12 3.19000 1.29000   1
  10   5 -12 3.51000 1.21000   1
 -10  -5  12 4.26000 1.34000   1
  -1  15  -3 12.3000 1.73000   1
 -11  10   2 8.80000 0.89000   1
   1  13   2 0.54000 0.79000   1
   1  13   2 0.13000 0.73000   1
  -2  15  -2 6.95000 1.28000   1
   1   8   9 9.88000 1.36000   1
  -1  -8  -9 11.2800 1.33000   1
  -1  -8  -9 11.7300 1.61000   1
   1   8   9 10.9900 1.27000   1
  -4   5 -13 0.56000 1.00000   1
   4  -5  13 0.58000 0.70000   1
 -10  11  -2 4.03000 0.63000   1
 -11  10   1 6.16000 0.70000   1
  11  -1   3 8.50000 1.20000   1
 -11   1  -3 8.57000 1.29000   1
   7  11  -5 6.52000 1.30000   1
   7  11  -5 5.90000 1.56000   1
   0  -5 -12 23.7400 2.26000   1
   0   5  12 24.3400 2.08000   1
   0  -5 -12 21.3500 1.83000   1
   0   5  12 21.3800 1.82000   1
  10   7  -4 1.06000 1.11000   1
  10   7  -4 3.28000 1.27000   1
  -6 -11  11 4.62000 1.45000   1
   6  11 -11 4.08000 1.35000   1
   8   6 -14 10.7200 1.57000   1
   8   6 -14 5.45000 0.93000   1
   8   6 -14 5.17000 1.58000   1
  -8  -6  14 12.1800 1.78000   1
   8  10  -8 3.83000 1.61000   1
  -8 -10   8 9.28000 1.50000   1
  -8   5  -9 8.89000 1.24000   1
   8  -5   9 5.96000 0.99000   1
   6  -8 -11 23.7500 2.37000   1
  -6   8  11 21.5100 1.80000   1
  -6   8  11 23.6700 2.34000   1
  -4   8  11 2.65000 0.96000   1
   4  -8 -11 3.80000 1.06000   1
  -4   8  11 6.37000 1.06000   1
  -9  10  -6 7.95000 1.16000   1
  -4  15  -3 6.84000 1.16000   1
  -4  15  -3 7.01000 1.17000   1
 -11   0  12 7.74000 1.24000   1
  11   0 -12 8.56000 1.67000   1
   7   2   8 4.48000 1.22000   1
  -7  -2  -8 4.49000 1.22000   1
  -2  15  -6 1.98000 0.88000   1
  -2  15  -6 0.91000 0.76000   1
   2  13 -11 -0.6100 0.71000   1
  -2 -13  11 -0.3200 0.73000   1
   2  13 -11 1.62000 0.96000   1
  12  -1 -10 1.49000 1.00000   1
 -12   1  10 1.27000 0.82000   1
  -9  -7  12 3.87000 1.25000   1
   9   7 -12 6.83000 1.22000   1
   9   7 -12 2.19000 1.48000   1
   9   7 -12 2.48000 0.94000   1
 -12   4   9 4.76000 0.76000   1
  12  -4  -9 2.81000 1.13000   1
  10 -10  -6 11.3100 1.68000   1
 -10  10   6 13.1300 1.36000   1
   1  -7 -11 2.53000 1.04000   1
   1  -7 -11 2.51000 0.93000   1
  -1   7  11 3.34000 0.82000   1
  -1   7  11 2.15000 0.94000   1
  10   1   4 1.08000 1.01000   1
 -10  -1  -4 1.10000 0.90000   1
  -8  13   2 15.7400 1.60000   1
   8 -13  -2 15.1900 1.65000   1
  -4   6 -13 13.6400 1.85000   1
   4  -6  13 13.3900 1.49000   1
  -1  15  -6 14.1500 1.79000   1
  -1  15  -6 16.8600 1.89000   1
  12   2  -9 12.9900 1.94000   1
 -12  -2   9 13.3100 1.61000   1
   6   8   4 2.92000 1.17000   1
  -6  -8  -4 4.18000 1.23000   1
   6   8   4 5.07000 0.94000   1
 -12  -3   7 6.49000 1.14000   1
  12   3  -7 4.41000 1.57000   1
  12   3  -7 6.25000 1.19000   1
  -1  -9  -8 2.77000 1.36000   1
  -1  -9  -8 4.28000 1.21000   1
   1   9   8 8.89000 1.34000   1
   1   9   8 4.51000 1.08000   1
   8  -6   9 5.20000 0.83000   1
  -8   6  -9 5.38000 0.98000   1
  -9  11  -5 1.92000 0.85000   1
   2  12   3 4.08000 1.32000   1
   2  12   3 3.92000 0.92000   1
   8   3   6 14.3400 1.90000   1
  -8  -3  -6 14.1700 1.67000   1
  -4  10   9 3.04000 0.71000   1
   4 -10  -9 2.00000 0.96000   1
  -4  10   9 4.04000 1.01000   1
  -6 -12   6 0.88000 1.20000   1
   6  12  -6 1.79000 1.25000   1
  -5   3 -12 9.20000 1.62000   1
   5  -3  12 11.3200 1.59000   1
   4   0  12 3.69000 1.17000   1
  -4   0 -12 2.35000 1.16000   1
  12   0 -10 4.69000 1.21000   1
 -12   0  10 4.10000 1.20000   1
 -10   4  12 8.60000 1.10000   1
  10  -4 -12 9.76000 1.69000   1
   6  12  -7 1.41000 0.89000   1
  -6 -12   7 -1.2000 0.84000   1
   7  -3  10 7.53000 1.28000   1
  -7   3 -10 6.04000 1.21000   1
  11   1 -12 1.54000 0.99000   1
 -11  -1  12 1.60000 0.92000   1
  12  -7  -6 0.40000 0.68000   1
  -1   0 -14 8.53000 1.06000   1
  -1   0 -14 11.8700 1.64000   1
   1   0  14 10.7300 1.38000   1
  -4  15  -4 0.24000 0.70000   1
  -4  15  -4 0.25000 0.63000   1
   2  -2  14 4.16000 1.04000   1
  -2   2 -14 3.09000 0.96000   1
  -2   2 -14 1.01000 0.61000   1
   4 -10  12 14.4100 1.25000   1
  -4  10 -12 15.7800 1.75000   1
 -11   9  -2 3.49000 0.60000   1
   8   7   2 0.78000 0.92000   1
  -8  -7  -2 0.44000 0.83000   1
   8   7   2 0.17000 0.81000   1
   6  -8  11 -0.1500 0.52000   1
  -6   8 -11 1.00000 0.80000   1
 -11  -2  -1 1.59000 0.88000   1
  11   2   1 0.94000 1.05000   1
  -6 -10  -1 2.25000 0.86000   1
   6  10   1 3.46000 1.10000   1
   6  10   1 3.12000 1.11000   1
   0   2 -15 0.71000 0.66000   1
   0   2 -15 -0.6200 0.89000   1
   0  -2  15 1.03000 0.88000   1
  12   3  -5 8.42000 1.11000   1
 -12  -3   5 7.87000 1.43000   1
  12   3  -5 4.94000 1.58000   1
 -10   5  -6 8.37000 1.23000   1
  10  -5   6 6.86000 0.85000   1
   1  12   4 4.35000 1.22000   1
   1  12   4 1.40000 0.94000   1
 -12   8   3 3.96000 0.61000   1
   0  10 -14 12.0500 1.48000   1
   0  10 -14 5.63000 1.56000   1
   0 -10  14 7.78000 1.39000   1
   8  10  -5 2.85000 0.97000   1
   8  10  -5 -0.9800 1.23000   1
 -11   8  -3 14.7900 1.28000   1
  -4 -10  -4 -0.5900 0.88000   1
   4  10   4 -0.1900 0.88000   1
   4  10   4 0.39000 0.64000   1
  -4  15  -2 1.37000 0.80000   1
  -4  15  -2 -0.1300 0.70000   1
  -2   8 -14 9.10000 1.58000   1
  -2   8 -14 7.07000 0.89000   1
   2  -8  14 9.64000 1.17000   1
  -7  14  -1 1.51000 0.63000   1
  -7  14  -1 1.50000 0.56000   1
   6 -10  -9 3.68000 1.36000   1
  -6  10   9 4.01000 1.21000   1
  -6  10   9 6.25000 0.73000   1
 -12   8   2 1.03000 0.47000   1
  -7  14  -2 6.66000 0.96000   1
  -7  14  -2 7.06000 0.98000   1
  -5  -4  -9 11.2300 1.76000   1
   5   4   9 11.4200 1.62000   1
  -2   3  14 1.89000 0.92000   1
  -2   3  14 2.15000 0.75000   1
   2  -3 -14 1.64000 0.72000   1
   2  -3 -14 2.85000 1.04000   1
  -4  -4  16 12.1400 1.74000   1
   4   4 -16 11.7200 1.74000   1
   4   4 -16 11.0500 1.26000   1
  -2  14   2 0.69000 0.95000   1
  -2  14   2 1.68000 0.51000   1
   0  13   3 0.79000 1.04000   1
   0  13   3 2.74000 0.80000   1
 -11   5  -4 1.79000 0.75000   1
   2  13   1 8.06000 1.38000   1
   2  13   1 3.13000 1.04000   1
   4  -4  13 0.24000 0.91000   1
  -4   4 -13 1.09000 1.04000   1
 -11   1  12 13.4000 1.56000   1
  11  -1 -12 14.1500 2.04000   1
  -4  14  -8 12.8600 1.80000   1
  -4  14  -8 13.2300 1.10000   1
  -8  12   5 9.07000 1.25000   1
   8 -12  -5 13.1200 1.66000   1
  11   3   0 3.74000 1.12000   1
  11   3   0 3.90000 0.92000   1
 -11  -3   0 2.14000 0.93000   1
   9   6 -13 0.00000 1.09000   1
   9   6 -13 1.67000 1.02000   1
  -9  -6  13 0.48000 1.02000   1
   9   6 -13 0.75000 0.60000   1
  11 -10  -3 10.0500 1.12000   1
 -11  10   3 7.84000 0.87000   1
   8  -4   9 -0.8100 0.68000   1
  -8   4  -9 0.83000 0.74000   1
 -12   2  10 1.31000 0.80000   1
  12  -2 -10 2.92000 1.17000   1
   4  11 -13 18.3100 2.03000   1
   4  11 -13 19.8300 2.36000   1
  -4 -11  13 23.7400 2.36000   1
   4  11 -13 24.3300 2.50000   1
   4   3 -16 7.82000 1.12000   1
  -4  -3  16 8.86000 1.51000   1
   4   3 -16 11.6100 1.61000   1
  -8  11  -7 5.48000 1.18000   1
  -7  13  -6 5.13000 0.93000   1
  11  -4   4 0.46000 0.53000   1
 -11   4  -4 0.21000 0.72000   1
 -10   6  -6 0.54000 0.81000   1
 -12   6  -1 0.64000 0.50000   1
  -9   1  14 0.36000 0.78000   1
   9  -1 -14 1.31000 1.09000   1
 -10   4  -6 12.5400 1.44000   1
  10  -4   6 8.11000 1.06000   1
  -1  -7 -10 4.56000 1.19000   1
   1   7  10 4.52000 1.09000   1
   1   7  10 3.92000 1.06000   1
  -1  -7 -10 3.03000 1.06000   1
   0  15  -5 1.78000 0.84000   1
  -3  -4  16 0.38000 0.93000   1
   3   4 -16 1.29000 0.96000   1
   3   4 -16 0.43000 0.75000   1
   2  14  -2 1.07000 0.63000   1
   2  14  -2 -1.1100 0.87000   1
  -5   7  12 4.51000 0.92000   1
   5  -7 -12 2.69000 1.08000   1
  -5   7  12 0.78000 0.80000   1
  -5  14  -7 2.39000 1.10000   1
  -9  -4  14 0.79000 1.06000   1
   9   4 -14 1.43000 1.21000   1
 -10  10  -4 6.82000 0.92000   1
  -8  -2  15 7.72000 1.30000   1
   8   2 -15 3.42000 1.55000   1
   6  12  -5 7.00000 1.33000   1
   6  12  -5 10.5300 1.84000   1
  10 -11  -4 2.25000 0.94000   1
 -10  11   4 2.57000 0.71000   1
  -7   8 -10 3.98000 1.08000   1
  11  -4 -11 8.86000 1.74000   1
 -11   4  11 9.70000 1.19000   1
  -5   8 -12 0.70000 0.87000   1
   5  -8  12 0.29000 0.61000   1
 -10   8   9 2.77000 1.03000   1
  10  -8  -9 2.92000 1.27000   1
  -4  -4 -10 5.63000 0.74000   1
  -4  -4 -10 0.52000 1.08000   1
   4   4  10 2.54000 1.18000   1
   6   7 -15 5.68000 1.08000   1
  -6  -7  15 5.26000 1.54000   1
   6   7 -15 8.76000 1.47000   1
   6   7 -15 7.56000 1.43000   1
   6  12  -8 7.54000 1.41000   1
  -6 -12   8 9.90000 1.78000   1
  10  -7 -10 2.27000 1.37000   1
 -10   7  10 4.45000 0.62000   1
  -7  -9  -1 10.9800 1.45000   1
   7   9   1 7.65000 1.62000   1
   7   9   1 8.31000 1.41000   1
  -4 -10  14 -0.6800 0.90000   1
   4  10 -14 1.38000 1.07000   1
   4  10 -14 0.42000 0.94000   1
   4  10 -14 1.17000 0.90000   1
   7  10  -1 1.25000 0.86000   1
   7  10  -1 0.23000 0.96000   1
  -3 -14   6 5.44000 1.39000   1
   3  14  -6 5.92000 1.29000   1
  -3  15  -6 8.55000 1.50000   1
  -3  15  -6 11.0000 1.31000   1
   4  -7  13 2.13000 0.79000   1
  -4   7 -13 3.88000 1.19000   1
  -8   7  -9 13.8200 1.70000   1
   9   9  -7 0.98000 1.26000   1
  -9  -9   7 1.03000 1.18000   1
   6  11  -1 2.28000 1.23000   1
   6  11  -1 2.16000 0.86000   1
   0  15  -4 7.49000 1.31000   1
 -12   2  -1 1.42000 0.71000   1
  12  -2   1 2.71000 0.72000   1
   3  12   2 16.1400 1.86000   1
   3  12   2 8.12000 1.46000   1
 -12  -3   8 18.2100 2.07000   1
  12   3  -8 18.0300 2.43000   1
  12   3  -8 17.7100 2.12000   1
 -11   6  -4 6.01000 1.00000   1
   5  11   1 11.0700 1.62000   1
   5  11   1 14.3800 1.57000   1
  12   1 -10 2.88000 1.06000   1
 -12  -1  10 1.12000 1.09000   1
 -11   9   6 0.62000 0.62000   1
  11  -9  -6 0.31000 0.71000   1
   4   5 -16 14.0800 1.72000   1
   4   5 -16 15.1100 1.69000   1
  -4  -5  16 15.2100 1.94000   1
  -3   9  10 4.34000 1.08000   1
   3  -9 -10 4.74000 1.19000   1
  -3   9  10 4.41000 0.94000   1
   3  -9 -10 3.77000 0.83000   1
  -5   4  14 2.38000 0.96000   1
   5  -4 -14 -0.0700 1.09000   1
  -5   4  14 3.76000 0.99000   1
  -3  15  -1 0.41000 0.79000   1
  11   1   2 8.78000 1.40000   1
 -11  -1  -2 7.65000 1.13000   1
   8   3 -15 7.81000 1.50000   1
  -8  -3  15 4.65000 1.17000   1
   5   3 -16 0.99000 0.58000   1
   5   3 -16 1.01000 1.02000   1
  -5  -3  16 0.99000 0.98000   1
  -2  12 -12 -0.7500 0.92000   1
  -2  12 -12 0.42000 0.63000   1
   2 -12  12 0.13000 0.52000   1
  -7  14   0 1.40000 0.57000   1
  -7  14   0 2.05000 0.81000   1
  -7 -11   9 -0.4300 1.01000   1
   7  11  -9 0.28000 0.91000   1
  11   2 -12 15.1200 2.04000   1
 -11  -2  12 21.9000 2.20000   1
   3   5 -16 19.1300 1.82000   1
   3   5 -16 19.8700 2.11000   1
  -3  -5  16 16.9100 2.14000   1
  -3  -3  16 -0.0300 1.01000   1
   3   3 -16 1.37000 0.78000   1
   3   3 -16 7.27000 1.19000   1
   6   4   8 5.07000 1.38000   1
  -6  -4  -8 8.53000 1.42000   1
  -2  12   6 0.98000 0.56000   1
  -2  12   6 0.70000 1.02000   1
   2 -12  -6 1.83000 0.97000   1
  -3 -14   5 0.69000 0.80000   1
   3  14  -5 -0.0300 0.90000   1
  -3  -2 -12 12.5400 1.62000   1
  -3  -2 -12 9.21000 1.18000   1
   3   2  12 9.24000 1.53000   1
  -7  14  -3 1.69000 0.67000   1
  -7  14  -3 3.93000 0.63000   1
  10  -2 -13 9.13000 1.73000   1
 -10   2  13 7.62000 1.33000   1
 -12  -1   1 4.14000 0.77000   1
  12   1  -1 3.24000 0.87000   1
  12   1  -1 4.38000 1.14000   1
   9   9  -6 11.9600 2.02000   1
  -9  -9   6 12.3400 1.96000   1
   5   4 -16 1.76000 1.07000   1
  -5  -4  16 1.96000 1.03000   1
   5   4 -16 1.13000 0.67000   1
   9   8  -2 2.41000 1.27000   1
   9   8  -2 2.10000 1.09000   1
 -13   3   5 11.8100 1.14000   1
  -1  15  -2 0.36000 0.75000   1
   0  15  -6 4.33000 1.19000   1
  11   5  -3 9.47000 1.17000   1
  11   5  -3 10.9600 1.46000   1
  11   5  -3 5.95000 1.48000   1
 -11  -5   3 9.47000 1.38000   1
  -8  13  -4 0.93000 0.64000   1
   6  -7 -12 14.0900 1.78000   1
  -6   7  12 12.1000 1.73000   1
  -6   7  12 11.0400 1.12000   1
 -10   9  -5 1.48000 0.81000   1
   8  10  -9 5.70000 1.78000   1
  -8 -10   9 6.46000 1.61000   1
  -9  11   6 6.72000 1.16000   1
   9 -11  -6 5.08000 1.15000   1
  -4  15  -5 17.7500 1.79000   1
  -4  15  -5 17.9600 1.80000   1
   8   1 -15 8.79000 1.56000   1
  -8  -1  15 5.06000 1.28000   1
  -1 -10  -7 7.07000 1.30000   1
   1  10   7 3.10000 1.10000   1
  -1 -10  -7 8.62000 1.30000   1
   1  10   7 8.05000 1.43000   1
 -13   2   5 10.0900 1.11000   1
   7   6   5 11.4600 1.32000   1
   7   6   5 11.6100 1.77000   1
  -7  -6  -5 14.0400 1.77000   1
  -8  12  -6 2.31000 0.82000   1
 -13   3   4 5.38000 1.02000   1
  -7   1  15 8.05000 1.30000   1
   7  -1 -15 8.93000 1.65000   1
  -2  13 -11 14.8400 1.63000   1
   9   7   0 13.9500 1.74000   1
   9   7   0 17.1600 1.92000   1
  -9  -7   0 12.2200 1.55000   1
  -9   8  10 1.30000 1.04000   1
  -9   8  10 3.38000 0.53000   1
   9  -8 -10 0.72000 1.06000   1
   9   8 -11 4.99000 1.60000   1
   9   8 -11 5.98000 1.60000   1
  -9  -8  11 5.39000 1.60000   1
   7  -9 -10 6.49000 1.22000   1
  -7   9  10 2.51000 1.15000   1
  -7   9  10 5.03000 0.64000   1
   5   8 -15 3.96000 1.13000   1
   5   8 -15 4.09000 1.01000   1
   5   8 -15 7.29000 1.16000   1
  -5  -8  15 1.90000 1.17000   1
  11   4 -11 0.16000 1.19000   1
  11   4 -11 0.22000 1.12000   1
 -11  -4  11 1.00000 1.01000   1
  -2 -14   9 -0.3600 0.74000   1
   2  14  -9 1.64000 0.82000   1
   2  14  -9 -0.5300 1.08000   1
  -4   7  12 2.31000 1.10000   1
  -4   7  12 2.67000 0.90000   1
   4  -7 -12 2.88000 1.06000   1
   5 -11  -8 4.96000 1.35000   1
  -5  11   8 5.97000 0.70000   1
  -5  11   8 3.95000 1.25000   1
  -1  11   7 0.25000 0.57000   1
   1 -11  -7 0.42000 0.73000   1
  -1  11   7 0.17000 0.89000   1
   8 -11  -7 0.42000 1.00000   1
  -8  11   7 0.70000 0.83000   1
   3  14  -7 13.2100 1.79000   1
  -3 -14   7 12.6500 1.82000   1
   7  11  -4 0.49000 1.01000   1
   7  11  -4 1.35000 0.86000   1
  -3  14  -9 11.3800 1.42000   1
  -3  14  -9 6.10000 0.96000   1
   4   2 -16 1.17000 0.82000   1
   4   2 -16 0.36000 0.59000   1
  -4  -2  16 0.08000 0.94000   1
   9   9  -8 10.0000 1.86000   1
  -9  -9   8 8.80000 1.80000   1
   7 -12  -6 4.18000 1.50000   1
  -7  12   6 5.70000 1.16000   1
 -12  -3   4 2.26000 0.74000   1
  12   3  -4 0.79000 0.79000   1
  12   3  -4 3.38000 1.06000   1
 -11   3  -4 5.56000 0.96000   1
  11  -3   4 4.82000 0.90000   1
  -4  15  -1 4.07000 1.14000   1
   7  -8 -11 7.88000 1.47000   1
  -7   8  11 5.09000 1.20000   1
  -7   8  11 6.79000 0.84000   1
   7   9 -13 0.45000 0.96000   1
  -7  -9  13 0.86000 1.25000   1
   7   9 -13 2.17000 0.96000   1
   7   9 -13 1.39000 1.26000   1
   3  -8 -11 5.96000 1.03000   1
  -3   8  11 7.43000 1.24000   1
  -3   8  11 7.99000 1.16000   1
   3  -8 -11 4.54000 1.29000   1
  -3  10   9 3.75000 1.14000   1
   3 -10  -9 2.61000 1.03000   1
  -3  10   9 3.47000 0.83000   1
  -1  15  -7 -0.1500 0.83000   1
  -1  15  -7 -0.3700 0.79000   1
  12   0   0 7.75000 1.17000   1
 -12   0   0 8.45000 1.12000   1
  -4   4  14 6.74000 1.38000   1
   4  -4 -14 7.34000 1.39000   1
  -4   4  14 9.37000 1.19000   1
  -5  12 -10 8.46000 1.35000   1
  -6   4  14 3.59000 0.96000   1
   6  -4 -14 1.51000 1.17000   1
 -13   2   4 1.90000 0.67000   1
   1   0 -15 1.02000 0.88000   1
   1   0 -15 1.82000 0.81000   1
  -1   0  15 0.69000 0.58000   1
  -1   0  15 0.08000 0.89000   1
  -7  -5  -6 1.97000 1.08000   1
   7   5   6 3.40000 1.20000   1
 -13   2   6 7.30000 0.96000   1
  -2  15  -1 0.19000 0.80000   1
   6  -2  11 10.6800 1.55000   1
  -6   2 -11 9.53000 1.68000   1
 -10  -7  10 14.7300 1.93000   1
  10   7 -10 11.3900 1.86000   1
  10   7 -10 11.6300 1.90000   1
  -9  -1  -6 8.54000 1.31000   1
   9   1   6 8.81000 1.49000   1
  -6  14   2 11.9500 1.60000   1
  -6  14   2 13.2500 1.12000   1
   6 -14  -2 12.5900 1.89000   1
  -4  11   8 4.40000 0.77000   1
   4 -11  -8 7.13000 1.37000   1
  -4  11   8 11.7500 1.47000   1
   0 -12  -5 1.63000 1.09000   1
   0  12   5 3.81000 0.91000   1
   0  12   5 1.85000 1.15000   1
   2  -5 -13 0.59000 0.91000   1
   2  -5 -13 1.14000 0.69000   1
  -2   5  13 1.41000 0.90000   1
  -2   5  13 2.04000 0.86000   1
  10   6  -1 1.28000 0.89000   1
  10   6  -1 0.45000 0.89000   1
 -10  -6   1 0.89000 0.79000   1
   7   6 -15 6.92000 1.05000   1
   7   6 -15 8.68000 1.62000   1
  -7  -6  15 8.94000 1.65000   1
  -7  13   4 14.0800 1.66000   1
   7 -13  -4 15.0800 2.06000   1
   5   2 -16 2.20000 1.10000   1
  -5  -2  16 1.42000 0.94000   1
  -1   5 -15 13.9700 1.93000   1
  -1   5 -15 14.5000 1.36000   1
   1  -5  15 16.2600 1.91000   1
  -9   9  -7 1.36000 0.89000   1
 -10   7  -6 4.74000 1.09000   1
  11   4  -1 0.74000 0.94000   1
 -11  -4   1 0.69000 0.73000   1
  11   4  -1 0.80000 0.90000   1
  -9   9   9 3.60000 1.02000   1
   9  -9  -9 2.73000 1.27000   1
   0  14 -10 -0.7500 0.94000   1
   0  14 -10 0.68000 0.70000   1
   0 -14  10 0.62000 0.63000   1
  -5   2  15 8.60000 1.20000   1
   5  -2 -15 8.20000 1.53000   1
  -2  15  -7 7.23000 1.27000   1
  -2  15  -7 8.85000 1.47000   1
  -6  12  -9 4.19000 1.08000   1
 -11   2  12 4.99000 0.97000   1
  11  -2 -12 3.15000 1.26000   1
  12   2  -2 7.27000 1.26000   1
  12   2  -2 1.71000 1.04000   1
 -12  -2   2 4.93000 0.87000   1
 -13   3   6 6.97000 0.88000   1
   9  -4 -13 2.96000 1.05000   1
  -9   4  13 1.60000 0.76000   1
  -8  10  -8 1.11000 0.89000   1
  10   4 -13 2.07000 1.32000   1
 -10  -4  13 2.63000 1.26000   1
  11   5 -10 -0.0100 1.23000   1
  11   5 -10 1.02000 1.27000   1
 -11  -5  10 3.08000 1.07000   1
   4  -3  13 5.33000 1.34000   1
  -4   3 -13 7.74000 1.46000   1
  -2  -5 -11 3.06000 1.08000   1
   2   5  11 8.61000 1.26000   1
  -2  -5 -11 6.15000 1.35000   1
   2   5  11 6.02000 0.91000   1
  10  -3   6 2.49000 0.83000   1
 -10   3  -6 6.85000 1.09000   1
   2   9 -15 3.29000 1.10000   1
  -2  -9  15 2.07000 0.88000   1
   2   9 -15 0.82000 0.97000   1
   2   9 -15 1.23000 0.72000   1
 -10   9   8 3.12000 0.97000   1
  10  -9  -8 3.01000 1.18000   1
   9  -1   7 6.82000 1.27000   1
  -9   1  -7 3.81000 1.10000   1
   0  14   1 4.61000 1.09000   1
   0  14   1 4.72000 0.80000   1
 -10   6  11 7.76000 0.91000   1
  10  -6 -11 7.25000 1.63000   1
   9  -7 -11 13.3800 1.93000   1
  -9   7  11 10.8300 1.06000   1
 -12   3  10 1.38000 0.74000   1
  12  -3 -10 1.83000 1.02000   1
   0  -8  15 10.4700 1.55000   1
   0   8 -15 10.9700 1.27000   1
   0   8 -15 9.78000 1.63000   1
  -8   0  -8 10.4000 1.46000   1
   8   0   8 12.8400 1.73000   1
  -2   1  15 1.51000 0.76000   1
  -2   1  15 3.01000 0.86000   1
   2  -1 -15 1.26000 0.75000   1
   2  -1 -15 2.41000 0.91000   1
   8  10  -4 6.33000 1.17000   1
   8  10  -4 2.41000 1.52000   1
  -8   3  -9 3.11000 1.09000   1
   8  -3   9 4.73000 1.10000   1
   7   7   4 5.99000 1.25000   1
   7   7   4 4.93000 1.34000   1
  -7  -7  -4 4.05000 1.12000   1
   8  -3 -14 2.10000 1.19000   1
  -8   3  14 1.59000 0.94000   1
   0  15  -3 1.69000 1.04000   1
   0 -15   3 1.06000 0.87000   1
   4  13  -2 10.7500 1.45000   1
   4  13  -2 12.2900 1.84000   1
  -9  12   4 5.56000 1.01000   1
   9 -12  -4 5.55000 1.16000   1
 -11  10   4 11.6800 1.03000   1
  11 -10  -4 10.2900 1.22000   1
   3   9 -15 -1.5300 0.88000   1
   3   9 -15 1.42000 0.98000   1
   3   9 -15 0.43000 0.72000   1
  -3  -9  15 1.15000 0.92000   1
  -5  -5  16 4.99000 1.36000   1
   5   5 -16 5.08000 1.29000   1
   5   5 -16 3.87000 0.88000   1
   6  10 -13 0.20000 0.98000   1
   6  10 -13 -0.4300 0.98000   1
  -6 -10  13 1.78000 1.13000   1
   6  10 -13 2.73000 1.02000   1
  -5  13  -9 7.20000 1.23000   1
 -13   1   5 -0.3200 0.61000   1
   3  14  -4 8.41000 1.41000   1
   3  14  -4 7.53000 1.25000   1
  -1   4 -15 4.24000 0.71000   1
  -1   4 -15 2.42000 1.18000   1
   1  -4  15 0.22000 1.11000   1
  -1  14 -10 15.5900 1.90000   1
  -1  14 -10 13.3900 1.59000   1
  -2  -4  16 2.33000 1.07000   1
   2   4 -16 3.26000 0.97000   1
   2   4 -16 1.81000 1.11000   1
  -5  15  -3 6.79000 1.18000   1
  -5  15  -3 5.31000 0.93000   1
   9   9  -5 9.36000 1.31000   1
   9   9  -5 -0.0300 1.55000   1
   5  12 -11 2.75000 1.30000   1
   5  12 -11 3.42000 1.32000   1
  -5 -12  11 4.01000 1.19000   1
  10   7  -3 13.7600 1.97000   1
  10   7  -3 11.2000 1.84000   1
  -4   2  15 6.20000 1.15000   1
   4  -2 -15 4.42000 1.35000   1
   1  14   0 7.56000 1.36000   1
   1  14   0 4.09000 0.91000   1
   8   4 -15 2.68000 1.47000   1
  -8  -4  15 6.67000 1.30000   1
  -6  11   8 2.51000 1.01000   1
   6 -11  -8 3.11000 1.20000   1
  -9  12  -4 9.32000 1.13000   1
   7 -10  -9 -0.3300 0.99000   1
  -7  10   9 -0.7600 0.71000   1
   4  12 -12 -0.2100 0.90000   1
   4  12 -12 -0.2800 0.84000   1
  -4 -12  12 0.40000 0.96000   1
   1  -6  15 1.23000 0.94000   1
  -1   6 -15 1.00000 1.07000   1
  -1   6 -15 0.97000 0.61000   1
   4 -13  -5 7.74000 1.61000   1
  -4  13   5 8.98000 1.39000   1
 -13   3   3 2.80000 0.66000   1
   1 -13  -4 1.25000 1.03000   1
  -1  13   4 1.03000 0.61000   1
  -1  13   4 2.58000 0.93000   1
  12  -6  -8 1.78000 1.08000   1
   8   9  -1 2.22000 1.30000   1
   8   9  -1 2.66000 1.02000   1
   1  -6 -12 4.36000 1.01000   1
   1  -6 -12 5.67000 1.13000   1
  -1   6  12 8.23000 1.17000   1
  -1   6  12 5.75000 1.05000   1
  -6  14  -6 -0.5100 0.83000   1
   7   8 -14 34.6600 2.81000   1
  -7  -8  14 37.7200 3.51000   1
   7   8 -14 33.0500 3.28000   1
   7   8 -14 33.1000 2.94000   1
 -13   1   6 13.4100 1.41000   1
  -5   2 -12 12.4900 1.77000   1
   5  -2  12 14.1500 1.79000   1
   3  13   0 7.04000 1.21000   1
   3  13   0 6.59000 1.60000   1
   6  12  -4 0.50000 0.80000   1
   6  12  -4 -0.1900 1.08000   1
  -8   5  13 0.20000 0.71000   1
   8  -5 -13 0.66000 1.02000   1
  -3  -6  16 4.10000 1.40000   1
   3   6 -16 7.14000 1.21000   1
   3   6 -16 4.38000 1.12000   1
   3   2 -16 7.00000 1.22000   1
  -3  -2  16 4.74000 1.18000   1
   3   2 -16 2.07000 0.84000   1
  -5  15  -2 14.9300 1.67000   1
  -5  15  -2 13.6600 1.33000   1
  -2  -5  16 0.81000 1.00000   1
   2   5 -16 0.58000 0.81000   1
   2   5 -16 1.85000 0.86000   1
  11  -7  -9 3.66000 1.27000   1
 -10  11  -3 11.1100 1.07000   1
   7  -2  10 23.0700 2.44000   1
  -7   2 -10 29.0100 2.35000   1
   6   9 -14 2.18000 0.95000   1
  -6  -9  14 1.86000 1.18000   1
   6   9 -14 3.66000 1.29000   1
   6   9 -14 3.05000 1.27000   1
   3  13 -11 15.0300 1.92000   1
   3  13 -11 12.6400 1.77000   1
  -3 -13  11 10.5100 1.82000   1
  12  -8  -5 0.18000 0.60000   1
  -5  13   5 0.70000 0.91000   1
   5 -13  -5 1.28000 1.11000   1
  -6  -9  -3 -1.1400 0.73000   1
   6   9   3 0.58000 0.79000   1
   6   9   3 0.84000 0.87000   1
   6  12  -9 -0.1900 1.01000   1
  -6 -12   9 1.53000 1.16000   1
  -8  13   3 0.85000 0.72000   1
   8 -13  -3 0.92000 0.89000   1
 -11   7  -4 9.11000 1.26000   1
  11   6  -7 -0.5500 1.02000   1
 -11  -6   7 0.34000 0.95000   1
  11   6  -7 1.69000 0.98000   1
   8   8 -13 2.63000 1.22000   1
   8   8 -13 5.01000 1.26000   1
  -8  -8  13 2.74000 1.42000   1
   8   8 -13 2.17000 0.99000   1
   5  10   3 2.06000 0.91000   1
   5  10   3 -0.3900 1.03000   1
  -5 -10  -3 0.61000 0.96000   1
   5  12  -1 2.75000 1.01000   1
   5  12  -1 1.30000 1.20000   1
   4  13 -10 4.53000 1.23000   1
  -4 -13  10 1.29000 1.27000   1
   2  11   5 -0.6800 0.79000   1
   2  11   5 -0.1000 0.91000   1
  -2 -11  -5 -1.0100 0.96000   1
  -4  -6  16 0.64000 1.01000   1
   4   6 -16 0.79000 0.78000   1
   4   6 -16 1.27000 0.83000   1
   0  15  -7 2.12000 1.12000   1
   0  15  -7 6.61000 1.16000   1
   5  13  -6 2.93000 1.06000   1
  -5 -13   6 -0.5900 1.07000   1
 -12   7  -1 10.6400 0.96000   1
   8   0 -15 4.05000 1.38000   1
  -8   0  15 2.83000 1.17000   1
  -3  -4 -11 2.50000 1.09000   1
  -3  -4 -11 1.38000 0.64000   1
   3   4  11 0.30000 0.82000   1
   3   4  11 2.02000 0.89000   1
   6  -2 -15 15.4000 2.00000   1
  -6   2  15 14.6500 1.66000   1
  11   6  -6 2.31000 1.25000   1
 -11  -6   6 1.63000 1.11000   1
  11   6  -6 1.72000 0.99000   1
   3  11   4 -0.2500 0.70000   1
   3  11   4 0.71000 0.89000   1
  -3 -11  -4 1.67000 0.73000   1
   1  14 -10 2.16000 1.56000   1
  -1 -14  10 6.19000 1.00000   1
   1  14 -10 4.21000 1.05000   1
   7 -14  -1 17.7500 2.13000   1
  -7  14   1 19.6100 1.86000   1
  -7  14   1 18.1000 1.36000   1
  -5 -13   7 7.54000 1.47000   1
   5  13  -7 10.1200 1.60000   1
  -4  12 -11 8.99000 1.23000   1
  -1  -6 -11 5.43000 1.30000   1
   1   6  11 8.36000 1.14000   1
  -1  -6 -11 9.43000 1.46000   1
   1   6  11 8.20000 1.27000   1
   8   2   7 7.45000 1.30000   1
  -8  -2  -7 2.39000 1.06000   1
   3   0  13 8.12000 1.31000   1
  -3   0 -13 9.00000 1.49000   1
  12  -5  -9 2.52000 1.19000   1
 -12   5   9 5.49000 0.71000   1
  -8   8  -9 0.49000 0.70000   1
  -7  14  -4 0.48000 0.47000   1
  -7  14  -4 0.64000 0.59000   1
   4  -8  13 1.35000 0.80000   1
  -4   8 -13 3.61000 1.19000   1
   3  14  -8 1.87000 1.13000   1
  -3 -14   8 2.33000 1.08000   1
  -4  13 -10 5.51000 1.23000   1
 -13   1   4 4.87000 1.08000   1
   0   1 -15 4.62000 1.37000   1
   0   1 -15 5.41000 0.93000   1
   0  -1  15 8.49000 1.36000   1
  -6   9 -11 2.90000 1.05000   1
  -6  13  -8 6.62000 1.23000   1
   6   3 -16 0.20000 0.96000   1
  -6  -3  16 0.78000 0.89000   1
 -13   2   3 7.83000 1.17000   1
  12   2 -10 2.25000 1.28000   1
 -12  -2  10 1.80000 1.12000   1
   9   9  -9 9.43000 1.85000   1
   9   9  -9 13.0000 2.00000   1
  -9  -9   9 9.54000 1.85000   1
  12   3  -9 2.42000 1.25000   1
 -12  -3   9 6.66000 1.09000   1
  12   3  -9 3.98000 1.53000   1
  10   0   5 4.52000 1.01000   1
 -10   0  -5 2.15000 1.04000   1
 -11   6  10 -0.2600 0.42000   1
  11  -6 -10 1.12000 0.81000   1
  13  -2  -7 0.88000 0.95000   1
 -13   2   7 4.82000 0.82000   1
  -5  15  -4 5.92000 1.15000   1
  -5  15  -4 10.4100 1.14000   1
   1  12 -13 5.97000 0.96000   1
   1  12 -13 5.16000 1.50000   1
   1  12 -13 3.23000 1.44000   1
  -1 -12  13 5.30000 1.10000   1
   2   3 -16 2.18000 1.01000   1
  -2  -3  16 1.10000 1.06000   1
   2   3 -16 1.60000 1.02000   1
   4 -14  -3 11.7700 1.68000   1
  -4  14   3 11.4500 1.56000   1
  -7   7  12 14.3000 1.29000   1
   7  -7 -12 14.9900 1.82000   1
  -7   7  12 11.6700 1.83000   1
   3 -10  13 4.98000 0.80000   1
  -3  10 -13 2.77000 1.11000   1
  12  -7  -7 6.93000 1.35000   1
  -3   5 -14 3.31000 1.22000   1
   3  -5  14 1.54000 0.91000   1
  -1  14   2 6.91000 1.28000   1
  -1  14   2 5.10000 0.75000   1
   1   9 -15 0.93000 0.85000   1
   1   9 -15 -0.2200 0.75000   1
  -1  -9  15 0.98000 0.84000   1
  -2  11 -13 1.87000 0.67000   1
  -2  11 -13 4.53000 1.13000   1
   2 -11  13 0.51000 0.67000   1
   6   1  10 2.82000 1.29000   1
  -6  -1 -10 6.77000 1.26000   1
  11  -8  -8 8.59000 1.42000   1
  11   3 -12 4.38000 1.34000   1
 -11  -3  12 4.67000 1.24000   1
   7  10 -12 9.72000 1.43000   1
   7  10 -12 5.42000 1.82000   1
   7  10 -12 9.30000 1.44000   1
  -7 -10  12 11.9400 1.93000   1
  -6  11 -10 1.77000 0.84000   1
   8   8   1 0.74000 0.98000   1
  -8  -8  -1 1.52000 0.93000   1
   8   8   1 0.89000 0.89000   1
  11   0   3 5.82000 1.06000   1
 -11   0  -3 3.03000 1.08000   1
  -2   1 -14 11.8700 1.11000   1
   2  -1  14 14.5500 1.53000   1
  -2   1 -14 9.40000 1.49000   1
  -1  10 -14 0.55000 0.66000   1
   1 -10  14 -0.7000 0.65000   1
  -1  10 -14 1.01000 0.93000   1
   9  -5   8 7.29000 0.98000   1
  -9   5  -8 8.50000 1.29000   1
   9  -2 -14 8.47000 1.79000   1
  -9   2  14 7.62000 1.30000   1
  -5  -1 -11 3.93000 1.18000   1
   5   1  11 1.75000 0.96000   1
  11   6  -8 5.16000 1.44000   1
  11   6  -8 2.75000 1.22000   1
 -11  -6   8 1.38000 1.17000   1
  -3   6 -14 10.5300 1.72000   1
   3  -6  14 9.43000 1.26000   1
 -12   1  -1 1.62000 0.73000   1
  12  -1   1 0.52000 0.82000   1
  -4  15  -6 9.68000 1.48000   1
  -4  15  -6 8.26000 1.06000   1
  -7  -4  -7 3.47000 1.23000   1
   7   4   7 2.88000 1.17000   1
  -9   6  -8 5.33000 1.00000   1
   6   4 -16 1.60000 1.28000   1
  -6  -4  16 5.15000 1.17000   1
  -5  11 -11 1.45000 0.85000   1
  -9  -5  14 20.3000 2.30000   1
   9   5 -14 14.8800 2.08000   1
  -2   9 -14 -0.4100 1.15000   1
   2  -9  14 3.09000 0.83000   1
  -2   9 -14 2.17000 0.62000   1
   5  13  -5 28.3200 3.01000   1
  -3   7  12 5.12000 0.90000   1
  -3   7  12 3.16000 1.16000   1
   3  -7 -12 2.38000 1.15000   1
  13  -1  -7 4.02000 0.99000   1
 -13   1   7 3.62000 1.01000   1
  -3  15  -7 7.26000 1.22000   1
  -3  15  -7 6.34000 0.98000   1
  -3  11   8 5.64000 0.84000   1
  -3  11   8 2.81000 1.31000   1
   3 -11  -8 8.69000 1.35000   1
  -3  13   5 12.1500 1.09000   1
  -3  13   5 16.1500 1.86000   1
   3 -13  -5 18.9600 2.04000   1
  -5  15  -1 7.01000 0.88000   1
  -5  15  -1 0.69000 1.05000   1
  -6  -2  16 2.23000 0.90000   1
   6   2 -16 2.52000 1.18000   1
  -4  -1  16 6.08000 1.16000   1
   4   1 -16 5.25000 0.91000   1
   4   1 -16 4.89000 1.16000   1
   0   9   9 5.68000 1.42000   1
   0  -9  -9 10.8000 1.54000   1
   0   9   9 6.32000 1.25000   1
   0  -9  -9 10.4800 1.39000   1
   4  12   1 3.14000 0.96000   1
   4  12   1 1.12000 1.22000   1
 -13   3   7 19.5300 1.53000   1
  13  -3  -7 16.6100 1.86000   1
   2  12 -13 4.12000 1.44000   1
   2  12 -13 3.96000 1.50000   1
   2  12 -13 6.98000 1.12000   1
  -2 -12  13 5.12000 1.19000   1
  -5   6  13 1.68000 1.09000   1
   5  -6 -13 2.65000 1.16000   1
  -5   6  13 3.63000 0.79000   1
  -2  -6  16 11.4800 1.65000   1
   2   6 -16 11.0400 1.46000   1
   2   6 -16 10.6100 1.41000   1
  -5  -1  16 16.0800 1.65000   1
   5   1 -16 17.7400 2.21000   1
 -10  -4  -2 15.9100 1.89000   1
  10   4   2 19.6800 1.90000   1
  -7  12  -8 5.38000 1.05000   1
   3  -4 -14 1.94000 1.04000   1
  -3   4  14 1.04000 0.74000   1
  -3   4  14 2.09000 0.96000   1
   3  -4 -14 1.62000 0.65000   1
   4   9 -15 1.92000 1.13000   1
  -4  -9  15 1.34000 1.25000   1
   4   9 -15 4.31000 0.91000   1
   4   9 -15 3.59000 1.28000   1
  -1   3 -15 0.88000 0.88000   1
  -1   3 -15 -0.4800 0.51000   1
   1  -3  15 0.95000 0.81000   1
  -9  -5  -3 0.07000 0.80000   1
   9   5   3 2.04000 0.87000   1
   9   5   3 0.29000 0.75000   1
 -11   2  -4 7.52000 1.13000   1
  11  -2   4 2.29000 1.00000   1
   9 -10  -8 0.95000 1.13000   1
  -9  10   8 5.91000 0.98000   1
  -7 -11  10 0.81000 1.20000   1
   7  11 -10 1.38000 0.98000   1
  -8  -9  12 3.70000 1.39000   1
   8   9 -12 2.17000 1.11000   1
   8   9 -12 1.54000 1.34000   1
   8   9 -12 1.78000 1.20000   1
   7  -4 -14 2.06000 1.03000   1
  -7   4  14 3.24000 1.01000   1
 -12   4  -2 9.58000 1.20000   1
   9   4   4 15.8800 1.97000   1
  -9  -4  -4 15.6200 1.73000   1
  -7   9 -10 4.75000 1.18000   1
  -3  15   0 0.73000 0.77000   1
  -8 -10  10 2.86000 1.40000   1
   8  10 -10 1.62000 1.27000   1
   5  -9  12 0.93000 0.60000   1
  -5   9 -12 1.26000 0.76000   1
   3 -14  -3 0.51000 1.17000   1
  -3  14   3 2.95000 1.00000   1
  -5  14   3 13.4300 1.53000   1
   5 -14  -3 14.0000 1.96000   1
   1  15  -5 8.06000 1.47000   1
  -1 -15   5 7.13000 1.15000   1
 -12   5  -2 18.2100 1.54000   1
 -10  -3  -3 3.84000 0.96000   1
  10   3   3 0.90000 1.13000   1
  -1  15  -1 5.56000 1.22000   1
  -1   7 -15 2.25000 1.05000   1
  -1   7 -15 3.45000 0.76000   1
   1  -7  15 4.41000 1.02000   1
   0  -2 -14 8.10000 1.21000   1
   0  -2 -14 5.82000 1.11000   1
   0   2  14 6.65000 1.24000   1
   0   2  14 5.33000 0.86000   1
   1   3  13 9.89000 1.08000   1
   1   3  13 10.3000 1.45000   1
  -1  -3 -13 8.40000 1.54000   1
  -1  -3 -13 8.68000 1.14000   1
   0   8  10 6.51000 1.13000   1
   0  -8 -10 5.25000 1.11000   1
   0  -8 -10 4.12000 1.33000   1
   0   8  10 6.49000 1.22000   1
  -5 -13   8 -0.2600 0.94000   1
   5  13  -8 1.90000 1.00000   1
   3  -4  14 4.83000 1.20000   1
  -3   4 -14 4.70000 1.33000   1
  11   6  -5 1.52000 1.11000   1
  11   6  -5 0.81000 0.84000   1
   0  12 -13 2.39000 1.37000   1
   0  12 -13 5.04000 1.09000   1
   0  12 -13 5.74000 0.85000   1
   0 -12  13 3.69000 1.03000   1
 -11   9  -3 6.71000 0.90000   1
  -4  15   0 15.7800 1.84000   1
  12   3  -3 18.1300 2.08000   1
  12   3  -3 17.5800 2.04000   1
 -12  -3   3 22.4200 1.72000   1
  -1 -11  -6 0.58000 1.16000   1
  -1 -11  -6 2.52000 1.02000   1
   1  11   6 1.55000 1.06000   1
   1  11   6 2.43000 0.94000   1
   1  15  -6 0.43000 0.96000   1
  -1 -15   6 1.48000 0.76000   1
   8   7 -14 5.72000 1.02000   1
   8   7 -14 7.60000 1.47000   1
   8   7 -14 9.29000 1.64000   1
  -8  -7  14 2.83000 1.61000   1
  -9   6  12 3.80000 0.77000   1
   9  -6 -12 3.83000 1.34000   1
   9  -4   8 -0.3000 0.62000   1
  -9   4  -8 1.16000 0.79000   1
  10 -11  -5 11.0700 1.41000   1
 -10  11   5 11.0100 1.42000   1
  -2  14 -10 7.03000 1.10000   1
  -2  14 -10 2.22000 0.79000   1
   6  -6 -13 2.32000 1.18000   1
  -6   6  13 5.18000 0.85000   1
  -6   6  13 2.46000 1.07000   1
  -6  13   5 6.19000 0.98000   1
   6 -13  -5 0.98000 1.30000   1
  -9  13   0 3.15000 0.65000   1
 -13   0   6 2.86000 0.89000   1
   2  14  -1 0.63000 0.89000   1
   2  14  -1 0.42000 0.74000   1
  10   6 -12 2.06000 1.50000   1
 -10  -6  12 7.90000 1.45000   1
  10   6 -12 3.02000 1.56000   1
   3  -2 -15 0.89000 0.59000   1
   3  -2 -15 0.59000 0.90000   1
  -3   2  15 0.36000 0.81000   1
  -3   2  15 -0.3800 0.66000   1
 -10  12   0 2.17000 0.56000   1
   2  11 -14 1.87000 0.96000   1
  -2 -11  14 0.54000 1.04000   1
   2  11 -14 1.27000 1.05000   1
   2  11 -14 0.87000 0.77000   1
   7   8   3 7.79000 1.16000   1
   7   8   3 5.13000 1.19000   1
  -7  -8  -3 2.78000 1.16000   1
  10 -12  -1 4.36000 0.91000   1
 -10  12   1 4.98000 0.72000   1
  -5  -3 -10 0.22000 0.94000   1
   5   3  10 1.85000 1.07000   1
 -10   8  -6 23.4400 2.20000   1
   7  11  -3 21.2200 2.31000   1
   7  11  -3 17.4400 1.84000   1
 -13   0   5 1.74000 0.80000   1
   0  15  -2 6.48000 0.82000   1
   0  15  -2 8.98000 1.47000   1
   2  -9 -10 1.67000 1.03000   1
  -2   9  10 2.60000 0.85000   1
  -2   9  10 1.81000 0.89000   1
   2  -9 -10 0.32000 0.79000   1
  -5  -6  16 10.5800 1.81000   1
   5   6 -16 9.22000 1.25000   1
   5   6 -16 12.5500 1.74000   1
   1  13 -12 1.17000 0.81000   1
  -1 -13  12 0.63000 0.79000   1
   1  13 -12 1.19000 1.12000   1
  10  -3 -13 2.23000 1.51000   1
 -10   3  13 3.16000 0.85000   1
   0   4  13 6.54000 1.00000   1
   0  -4 -13 7.44000 1.28000   1
   0  -4 -13 3.86000 1.26000   1
   0   4  13 8.42000 1.21000   1
  -9  13  -1 0.53000 0.46000   1
  -9  13  -1 0.30000 0.49000   1
   5  10 -14 6.71000 1.52000   1
   5  10 -14 8.00000 1.57000   1
   5  10 -14 10.3500 1.74000   1
  -5 -10  14 6.25000 1.71000   1
 -13   3   2 5.85000 0.85000   1
   1  11 -14 -0.4000 0.60000   1
   1  11 -14 1.15000 0.95000   1
   1  11 -14 0.85000 1.02000   1
  -1 -11  14 0.58000 0.89000   1
 -10   2  -6 2.50000 0.99000   1
  10  -2   6 2.20000 0.86000   1
   3  14  -3 3.21000 1.09000   1
   3  14  -3 1.12000 0.79000   1
   0  13 -12 5.01000 1.27000   1
   0 -13  12 1.78000 0.81000   1
   0  13 -12 3.00000 0.82000   1
  -6 -11  12 11.3100 1.88000   1
   6  11 -12 9.13000 1.52000   1
   6  11 -12 12.5900 1.78000   1
   6  11 -12 7.35000 1.78000   1
   9   9  -4 5.22000 1.53000   1
   9   9  -4 2.78000 1.11000   1
   4  11   3 4.79000 1.17000   1
   4  11   3 3.16000 1.19000   1
  -1  15  -8 1.62000 0.95000   1
  -1  15  -8 2.15000 0.99000   1
  -7  11  -9 2.22000 0.82000   1
   4  -6 -13 2.86000 1.15000   1
  -4   6  13 3.57000 1.00000   1
  -4   6  13 3.27000 0.89000   1
  -1 -15   4 -0.7400 0.69000   1
   1  15  -4 0.26000 0.90000   1
 -11   3  12 2.90000 0.95000   1
  11  -3 -12 3.66000 1.22000   1
  -7  -1  -9 7.41000 1.43000   1
   7   1   9 8.02000 1.55000   1
   3  -7  14 0.45000 0.72000   1
  -3   7 -14 1.47000 1.06000   1
  -9   7  -8 0.87000 0.78000   1
 -10  10   7 6.60000 1.12000   1
  10 -10  -7 4.36000 1.40000   1
   0  10   8 3.09000 1.01000   1
   0 -10  -8 6.03000 1.05000   1
   0 -10  -8 4.33000 1.17000   1
   0  10   8 2.53000 1.04000   1
  -1   3  14 8.90000 1.26000   1
  -1   3  14 9.88000 1.37000   1
   1  -3 -14 9.18000 1.27000   1
   1  -3 -14 10.0800 1.43000   1
  -6  -3  -9 8.81000 1.51000   1
   6   3   9 4.65000 1.47000   1
  10  -5 -12 1.80000 1.18000   1
 -10   5  12 1.04000 0.64000   1
  12   4  -6 13.3300 1.73000   1
  12   4  -6 8.85000 1.32000   1
 -12  -4   6 10.6700 1.65000   1
 -12  -4   7 1.37000 0.96000   1
  12   4  -7 0.26000 1.21000   1
  12   4  -7 0.05000 0.83000   1
  12  -3   2 -0.3800 0.55000   1
 -12   3  -2 1.07000 0.66000   1
  -5 -11  13 3.73000 1.14000   1
   5  11 -13 1.79000 1.03000   1
   5  11 -13 2.65000 1.26000   1
   5  11 -13 1.09000 1.19000   1
   4  -2  13 0.91000 0.99000   1
  -4   2 -13 0.84000 0.90000   1
  10   8  -7 1.77000 1.34000   1
 -10  -8   7 1.42000 1.22000   1
  10   8  -7 3.05000 1.34000   1
   8   5 -15 8.39000 1.59000   1
  -8  -5  15 7.90000 1.52000   1
 -12   0  11 0.83000 0.80000   1
  12   0 -11 0.76000 1.10000   1
  -8  13  -5 3.72000 0.91000   1
 -13   1   3 7.44000 1.21000   1
  -7  11   8 18.7900 2.00000   1
   7 -11  -8 18.2000 2.25000   1
  12  -4 -10 0.56000 1.03000   1
 -12   4  10 -0.6600 0.58000   1
  10   5   1 8.91000 1.49000   1
  10   5   1 9.28000 1.28000   1
 -10  -5  -1 6.67000 1.35000   1
  11   5  -2 0.58000 1.03000   1
  11   5  -2 1.05000 0.89000   1
 -11  -5   2 0.98000 0.73000   1
  12  -1 -11 9.24000 1.69000   1
 -12   1  11 7.85000 1.24000   1
  -5  15  -5 14.8800 1.38000   1
  -5  15  -5 16.9900 1.68000   1
  -8   2  -9 12.8200 1.50000   1
   8  -2   9 9.63000 1.64000   1
   5 -12  -7 2.70000 1.14000   1
  -5  12   7 2.24000 0.90000   1
   2 -10  -9 7.64000 1.48000   1
  -2  10   9 9.50000 1.06000   1
  -2  10   9 6.96000 1.28000   1
   2 -10  -9 8.28000 1.16000   1
  -8   9  10 8.20000 1.10000   1
  -8   9  10 4.10000 0.66000   1
   8  -9 -10 1.20000 1.33000   1
   1   1  14 4.39000 1.06000   1
  -1  -1 -14 3.32000 1.16000   1
  -1  -1 -14 3.12000 0.78000   1
  11 -10  -5 0.21000 0.72000   1
 -11  10   5 0.91000 0.66000   1
 -12   6  -2 1.16000 0.59000   1
  -2  -2  16 2.13000 1.12000   1
   2   2 -16 0.64000 0.82000   1
   2   2 -16 3.75000 0.89000   1
  -9  13   1 0.51000 0.60000   1
   9 -13  -1 1.22000 0.76000   1
   6   5 -16 8.50000 1.57000   1
  -6  -5  16 7.18000 1.52000   1
   6   5 -16 7.28000 1.01000   1
  -3  -7  16 0.11000 0.89000   1
   3   7 -16 0.34000 0.85000   1
   3   7 -16 -0.8600 0.82000   1
   3   1 -16 1.64000 1.14000   1
  -3  -1  16 2.06000 0.96000   1
   3   1 -16 2.80000 0.81000   1
  -2  15   0 3.46000 0.97000   1
 -13   0   7 13.2300 1.48000   1
  13   0  -7 10.9600 1.40000   1
  -9  -6  -2 1.01000 0.95000   1
   9   6   2 0.06000 0.81000   1
   9   6   2 2.66000 1.08000   1
 -11   5  11 5.28000 0.80000   1
  11  -5 -11 8.37000 1.52000   1
   8  -8 -11 1.74000 0.96000   1
  -8   8  11 2.43000 0.90000   1
  -8   8  11 0.36000 0.51000   1
   2  -8 -11 0.42000 0.69000   1
   2  -8 -11 0.43000 0.91000   1
  -2   8  11 1.55000 0.92000   1
  -2   8  11 1.31000 0.69000   1
   8  10  -3 11.2700 1.94000   1
   8  10  -3 11.9900 1.62000   1
   4   1  12 0.27000 0.85000   1
  -4  -1 -12 -0.1400 0.89000   1
  10   8  -6 2.52000 1.42000   1
 -10  -8   6 3.33000 1.27000   1
  11   6  -9 15.0500 2.22000   1
  11   6  -9 13.2800 2.05000   1
 -11  -6   9 17.5000 2.05000   1
   1 -12  -6 9.31000 1.27000   1
  -1  12   6 19.7300 1.95000   1
  -1  12   6 7.71000 1.20000   1
   6   1 -16 18.2300 2.15000   1
  -6  -1  16 17.0500 1.87000   1
  -7   2  15 11.8800 1.58000   1
   7  -2 -15 11.6700 1.68000   1
  13  -4  -7 12.1000 1.46000   1
   4   8   7 13.4600 1.65000   1
  -4  -8  -7 8.35000 1.49000   1
   4   8   7 10.9200 1.41000   1
  -9  -3  -5 16.9400 1.85000   1
   9   3   5 21.5900 2.20000   1
  -4  12   7 18.5800 1.44000   1
   4 -12  -7 23.1700 2.25000   1
  -4  12   7 19.8200 1.99000   1
  -9  11  -6 11.1100 1.27000   1
 -11  10  -2 0.22000 0.44000   1
  -2  15  -8 0.16000 0.96000   1
  -2  15  -8 0.91000 0.74000   1
   2  14 -10 11.8700 1.94000   1
  -2 -14  10 9.08000 1.47000   1
   2  14 -10 9.98000 1.65000   1
   1  15  -7 4.41000 1.19000   1
  -1 -15   7 2.83000 0.90000   1
   0  15  -8 1.74000 0.86000   1
   0  15  -8 -0.3000 0.90000   1
  -3  13 -11 0.41000 0.88000   1
   2   2  13 3.01000 1.31000   1
  -2  -2 -13 5.46000 0.84000   1
  -2  -2 -13 7.14000 1.27000   1
 -10  12   2 9.64000 1.03000   1
  10 -12  -2 11.3300 1.25000   1
  10   8  -8 1.46000 1.15000   1
  10   8  -8 1.18000 1.27000   1
 -10  -8   8 2.48000 1.20000   1
  -4  -7  -8 2.11000 0.74000   1
  -4  -7  -8 0.82000 1.11000   1
   4   7   8 2.34000 0.92000   1
   4   7   8 1.06000 0.81000   1
   6  12  -3 6.98000 1.15000   1
   6  12  -3 8.66000 1.68000   1
 -11   9   7 6.29000 1.26000   1
  11  -9  -7 8.16000 1.34000   1
  12  -8  -6 2.99000 0.87000   1
   5  13  -4 5.79000 1.11000   1
   5  13  -4 11.9000 1.84000   1
  -4  11 -12 1.96000 0.84000   1
 -12   9   2 0.45000 0.42000   1
   8  -1 -15 3.50000 1.15000   1
  -8   1  15 2.72000 0.90000   1
 -11   8  -4 7.92000 1.12000   1
 -13   0   4 3.70000 0.97000   1
   6   8 -15 11.6300 1.61000   1
  -6  -8  15 9.42000 1.60000   1
   6   8 -15 6.90000 1.42000   1
   6   8 -15 8.55000 1.33000   1
  -7  13  -7 1.69000 0.93000   1
  10   2   4 -0.7400 0.85000   1
 -10  -2  -4 0.67000 0.76000   1
  -1  -5  16 -0.1700 0.75000   1
   1   5 -16 -0.0300 0.78000   1
   1   5 -16 0.94000 0.76000   1
  -4  -3 -11 6.19000 1.25000   1
   4   3  11 8.64000 1.41000   1
 -13   2   2 -0.1000 0.56000   1
  10   1 -14 0.55000 1.13000   1
 -10  -1  14 1.12000 0.98000   1
  -5  14  -8 0.34000 0.89000   1
 -10  -7  11 15.3100 1.91000   1
  10   7 -11 11.2300 2.13000   1
  10   7 -11 10.1900 2.03000   1
   3  11 -14 10.7400 1.35000   1
   3  11 -14 2.14000 1.20000   1
   3  11 -14 3.59000 1.09000   1
  -3 -11  14 4.55000 1.42000   1
  -6   1 -11 17.4500 1.84000   1
   6  -1  11 17.5600 1.97000   1
   6  12 -10 10.4200 1.65000   1
  -6 -12  10 6.80000 1.82000   1
   4   7 -16 14.0000 1.91000   1
   4   7 -16 25.2700 2.26000   1
  -4  -7  16 17.0800 2.21000   1
  13  -2  -8 19.4400 1.99000   1
 -13   2   8 17.8500 1.63000   1
   9   7 -13 2.75000 0.83000   1
   9   7 -13 0.13000 1.16000   1
  -9  -7  13 3.16000 1.41000   1
   9   7 -13 2.93000 1.44000   1
 -12   9   3 5.55000 0.72000   1
  -9  13  -2 2.64000 0.59000   1
   3  14  -9 2.26000 1.21000   1
  -3 -14   9 3.49000 1.06000   1
  10   5 -13 5.05000 1.48000   1
  10   5 -13 4.68000 1.51000   1
 -10  -5  13 2.92000 1.42000   1
  -1  -4  16 8.96000 1.52000   1
   1   4 -16 6.59000 1.16000   1
   1   4 -16 9.39000 1.30000   1
   0   7  11 -0.2200 0.83000   1
   0   7  11 1.60000 0.86000   1
   0  -7 -11 1.00000 0.78000   1
   0  -7 -11 0.53000 0.79000   1
   3  12 -13 2.19000 1.16000   1
   3  12 -13 2.94000 1.16000   1
   3  12 -13 2.63000 1.09000   1
  -3 -12  13 2.89000 1.08000   1
   2  13 -12 10.0300 1.65000   1
   2  13 -12 10.0300 1.57000   1
  -2 -13  12 7.68000 1.40000   1
 -12  -1  11 7.86000 1.34000   1
  12   1 -11 3.46000 1.30000   1
  12   4  -5 10.8800 1.58000   1
 -12  -4   5 9.59000 1.43000   1
  12   4  -5 8.17000 1.22000   1
  -4  14  -9 0.05000 0.89000   1
  13  -1  -8 5.17000 1.18000   1
 -13   1   8 6.88000 1.06000   1
   9   9 -10 2.98000 1.33000   1
  -9  -9  10 7.86000 1.39000   1
   9   9 -10 2.65000 1.49000   1
 -12  -4   8 8.30000 1.34000   1
  12   4  -8 8.52000 1.80000   1
  12   4  -8 10.3200 1.62000   1
  -5  15   0 0.10000 0.67000   1
  -5  15   0 0.37000 0.73000   1
  -3  12 -12 12.6100 1.57000   1
  -3  12 -12 9.23000 1.13000   1
  -3  -8  -8 14.5500 1.92000   1
   3   8   8 13.9600 1.62000   1
  -3  -8  -8 13.2100 1.51000   1
   3   8   8 13.2400 1.71000   1
   7 -14  -2 0.29000 1.01000   1
  -7  14   2 -0.7200 0.68000   1
  -3   3 -14 7.49000 1.46000   1
   3  -3  14 6.02000 1.17000   1
 -10  -2  14 -0.3000 0.78000   1
  10   2 -14 0.94000 0.90000   1
  -5  -7  -7 1.81000 0.92000   1
   5   7   7 0.24000 0.70000   1
   5   7   7 0.06000 0.85000   1
   8 -12  -6 1.11000 1.19000   1
  -8  12   6 2.39000 1.00000   1
  -7  14  -5 13.6800 1.47000   1
   2   7 -16 8.31000 1.42000   1
   2   7 -16 10.9200 1.63000   1
  -2  -7  16 9.38000 1.56000   1
   9   8  -1 4.59000 1.43000   1
   9   8  -1 9.57000 1.36000   1
  -9  -8   1 1.19000 1.03000   1
   7   7 -15 8.79000 1.42000   1
   7   7 -15 9.58000 1.42000   1
  -7  -7  15 6.49000 1.77000   1
   7   7 -15 8.67000 1.15000   1
  11   5 -11 0.19000 1.22000   1
 -11  -5  11 1.86000 1.16000   1
  11   5 -11 2.31000 1.29000   1
 -12  -1   0 -0.3500 0.65000   1
  12   1   0 -0.6600 0.75000   1
   0   9 -15 3.75000 1.11000   1
   0   9 -15 3.61000 1.28000   1
   0  -9  15 3.44000 1.19000   1
 -10  10  -5 8.31000 1.06000   1
  12  -2 -11 1.17000 1.16000   1
 -12   2  11 1.24000 0.88000   1
  -9   3  -8 4.18000 0.97000   1
   9  -3   8 3.62000 1.08000   1
   2 -14  -3 13.5800 1.48000   1
  -2  14   3 15.0500 1.72000   1
  -2  14   3 10.6800 1.05000   1
   6 -14  -3 0.39000 0.95000   1
  -6  14   3 1.56000 0.90000   1
  -6  12   7 2.48000 0.94000   1
   6 -12  -7 -0.0200 1.16000   1
   5  13  -9 2.30000 1.15000   1
  -5 -13   9 1.20000 1.03000   1
  12   2  -1 0.39000 0.84000   1
 -12  -2   1 -0.3600 0.62000   1
  12   2  -1 0.96000 0.72000   1
   9   8 -12 4.47000 1.63000   1
  -9  -8  12 3.68000 1.34000   1
   9   8 -12 4.93000 1.42000   1
   0 -11  14 17.0800 1.80000   1
   0  11 -14 21.7800 2.40000   1
   0  11 -14 19.7500 1.87000   1
  -1  13 -12 12.9000 1.97000   1
   1 -13  12 16.0500 1.38000   1
  -1  13 -12 7.91000 1.15000   1
  11   6  -4 7.26000 1.40000   1
  11   6  -4 7.04000 1.20000   1
  11   6  -4 3.82000 1.45000   1
  -7   6  13 8.47000 1.71000   1
   7  -6 -13 10.1400 1.55000   1
  -7   6  13 10.7500 1.16000   1
  -8  10   9 23.1700 2.14000   1
   8 -10  -9 23.2500 2.56000   1
  10   0 -14 7.76000 1.44000   1
 -10   0  14 5.76000 1.12000   1
  -8   9  -9 1.62000 0.99000   1
   1  13   3 5.08000 1.46000   1
   1  13   3 6.61000 1.14000   1
 -11  -3  -1 19.3000 1.88000   1
  11   3   1 25.4100 2.40000   1
  -4   9 -13 1.07000 0.97000   1
   4  -9  13 0.05000 0.59000   1
   1  -2  15 7.10000 1.21000   1
  -1   2 -15 9.41000 1.45000   1
  -1   2 -15 6.01000 0.91000   1
   6  11   0 11.4600 1.81000   1
   6  11   0 13.3000 1.62000   1
   7  10   0 9.57000 1.55000   1
   7  10   0 7.48000 1.40000   1
  -5   1 -12 0.62000 0.80000   1
   5  -1  12 -1.3800 0.86000   1
   2 -13  -5 0.11000 0.86000   1
  -2  13   5 -0.0100 0.90000   1
  -2  13   5 0.18000 0.47000   1
  -8  -5  -5 10.4700 1.52000   1
   8   5   5 11.0200 1.66000   1
 -10  -7   2 0.91000 0.78000   1
  10   7  -2 0.14000 1.00000   1
  10   7  -2 -0.9100 0.71000   1
   5   8   6 11.4000 1.66000   1
   5   8   6 20.4700 1.82000   1
  -5  -8  -6 16.2300 2.08000   1
  12   3 -10 14.5400 2.16000   1
  12   3 -10 11.8000 2.08000   1
 -12  -3  10 15.6400 1.86000   1
   1   6 -16 0.03000 0.93000   1
   1   6 -16 0.77000 0.86000   1
  -1  -6  16 0.68000 0.81000   1
   1  15  -3 5.64000 1.24000   1
   1  15  -3 6.39000 0.99000   1
  -9  10  -7 2.25000 0.91000   1
  -7   1 -10 2.14000 1.05000   1
   7  -1  10 2.97000 1.14000   1
  -1  12 -13 5.06000 1.18000   1
  -1  12 -13 6.62000 1.57000   1
   1 -12  13 8.68000 1.12000   1
   8   6   4 4.89000 1.19000   1
   8   6   4 7.31000 1.45000   1
  -8  -6  -4 8.43000 1.16000   1
   4  13  -1 7.89000 1.57000   1
   4  13  -1 7.43000 1.30000   1
  -3  -7  -9 2.29000 1.20000   1
   3   7   9 2.19000 0.95000   1
   3   7   9 2.35000 0.83000   1
  -3  -7  -9 1.60000 0.76000   1
  13  -3  -8 10.0800 1.60000   1
 -13   3   8 7.41000 1.05000   1
  -6  15  -2 5.91000 1.12000   1
  -6  15  -2 7.93000 1.00000   1
   9 -12  -5 7.00000 1.35000   1
  -9  12   5 6.62000 1.20000   1
  -3  -9  -7 30.0800 2.56000   1
   3   9   7 25.6900 2.33000   1
   3   9   7 29.7200 2.67000   1
  -3  -9  -7 27.1800 2.73000   1
   2  13   2 0.73000 0.83000   1
   2  13   2 1.22000 1.10000   1
  -1   8 -15 1.13000 0.89000   1
  -1   8 -15 0.57000 0.63000   1
   1  -8  15 -0.0900 0.74000   1
   4   9   6 7.53000 1.26000   1
   4   9   6 6.24000 1.25000   1
  -4  -9  -6 6.86000 1.50000   1
  -1   1  15 1.27000 0.63000   1
   1  -1 -15 0.64000 0.77000   1
   1  -1 -15 0.92000 0.77000   1
  -1   1  15 2.91000 0.93000   1
  10   8  -5 1.88000 1.21000   1
  10   8  -5 1.34000 1.08000   1
  -9   0  -7 11.3500 1.37000   1
   9   0   7 10.6600 1.61000   1
 -11  -2  -2 5.76000 0.97000   1
  11   2   2 2.44000 1.20000   1
   2   4  12 -0.0900 0.52000   1
   2   4  12 0.18000 0.72000   1
  -2  -4 -12 0.09000 0.86000   1
 -11  -4  12 0.40000 0.88000   1
  11   4 -12 0.30000 1.11000   1
  11   4 -12 1.32000 1.15000   1
   5   0 -16 3.85000 1.22000   1
  -5   0  16 6.16000 1.17000   1
  -7  -3  16 8.23000 1.18000   1
   7   3 -16 1.59000 1.18000   1
   8  -7 -12 0.47000 1.08000   1
  -8   7  12 0.51000 0.58000   1
  -8   7  12 0.06000 0.79000   1
 -10  11  -4 1.26000 0.74000   1
   7   3   8 0.57000 1.08000   1
  -7  -3  -8 2.42000 1.12000   1
  -1   5  13 4.51000 1.12000   1
  -1   5  13 7.53000 1.26000   1
   1  -5 -13 8.61000 1.37000   1
   1  -5 -13 9.02000 1.17000   1
  -6  15  -3 1.83000 0.72000   1
  -6  15  -3 2.83000 0.76000   1
  12  -2   2 1.02000 0.69000   1
 -12   2  -2 0.30000 0.77000   1
   1   5  12 1.58000 0.92000   1
  -1  -5 -12 0.26000 0.99000   1
  -1  -5 -12 1.20000 0.75000   1
   1   5  12 2.70000 0.79000   1
  -8  14  -1 2.46000 0.74000   1
  -8  14  -1 4.92000 0.70000   1
  -9  13   2 -0.0200 0.59000   1
   9 -13  -2 0.84000 0.87000   1
 -11  11   1 4.00000 0.67000   1
  -8  13   4 11.4900 1.33000   1
   8 -13  -4 10.8400 1.77000   1
   5   6   8 5.12000 0.92000   1
   5   6   8 6.75000 1.27000   1
  -5  -6  -8 5.58000 1.19000   1
  -9  12  -5 1.55000 0.68000   1
 -12   9   4 0.34000 0.58000   1
  -1  -3  16 0.33000 0.85000   1
   1   3 -16 -0.1000 0.69000   1
   1   3 -16 0.40000 0.85000   1
  -4  15  -7 2.78000 1.18000   1
  -4  15  -7 2.73000 0.71000   1
  -4  -6  -9 0.63000 0.85000   1
  -4  -6  -9 0.76000 0.62000   1
   4   6   9 -0.2700 0.62000   1
   4   6   9 1.32000 0.82000   1
  -5  -9  15 1.62000 1.21000   1
   5   9 -15 0.95000 1.14000   1
   5   9 -15 0.51000 0.95000   1
   5   9 -15 2.69000 0.93000   1
   4   0 -16 9.68000 1.80000   1
  -4   0  16 13.9700 1.53000   1
  13   0  -8 10.2000 1.41000   1
 -13   0   8 7.99000 1.24000   1
  10   8  -9 19.1500 2.35000   1
 -10  -8   9 22.1800 2.52000   1
  10   8  -9 22.6200 2.62000   1
  -6  14  -7 1.13000 0.90000   1
 -11  -1  13 7.32000 1.53000   1
  11   1 -13 10.9500 1.80000   1
  -9   8  -8 0.99000 0.89000   1
  -7  -2  16 -0.1000 0.92000   1
   7   2 -16 2.53000 1.08000   1
  -2  11   8 8.26000 1.41000   1
   2 -11  -8 4.01000 1.33000   1
  -2  11   8 8.00000 1.06000   1
 -11   0  13 3.47000 1.25000   1
  11   0 -13 4.96000 1.28000   1
  -3   8 -14 -0.6100 0.95000   1
   3  -8  14 0.00000 0.65000   1
  -3   6  13 -0.4100 0.91000   1
  -3   6  13 -0.00000 0.8400   1
   3  -6 -13 4.00000 0.94000   1
  -6 -10  -2 3.26000 1.39000   1
   6  10   2 5.36000 1.40000   1
   6  10   2 3.45000 1.18000   1
 -11  11   2 0.24000 0.50000   1
  -3  12   7 2.62000 0.61000   1
   3 -12  -7 2.79000 1.07000   1
  -3  12   7 3.47000 1.18000   1
 -13  -1   6 1.26000 0.90000   1
  11  -1   4 1.08000 0.82000   1
 -11   1  -4 1.93000 0.90000   1
 -12   7  -2 0.24000 0.52000   1
   0 -11  -7 1.19000 0.95000   1
   0  11   7 -0.0800 1.05000   1
   0  11   7 1.49000 0.83000   1
  -9  -2  15 8.13000 1.49000   1
   9   2 -15 6.62000 1.73000   1
  -9  11   7 6.22000 1.10000   1
   9 -11  -7 7.96000 1.32000   1
  12   0   1 8.71000 1.25000   1
 -12   0  -1 9.51000 1.30000   1
 -10  12  -2 0.52000 0.49000   1
  -4 -13  11 12.8800 1.78000   1
   4  13 -11 17.0100 2.03000   1
   4  13 -11 14.2700 1.93000   1
  -8  12  -7 3.91000 1.10000   1
  -6  15  -1 17.5300 1.55000   1
  -6  15  -1 12.2100 1.26000   1
  -8  14  -2 4.13000 0.71000   1
  -8  14  -2 5.05000 0.76000   1
  10   3 -14 1.40000 1.24000   1
 -10  -3  14 1.25000 1.09000   1
   0   0  15 7.79000 1.40000   1
   0   0 -15 5.84000 1.00000   1
   0   0 -15 5.84000 1.36000   1
  11   4   0 14.3000 1.59000   1
 -11  -4   0 13.7400 1.55000   1
  11   4   0 13.9200 1.84000   1
  -8  14   0 1.46000 0.66000   1
   2  -7 -12 7.28000 1.20000   1
  -2   7  12 4.30000 1.23000   1
   2  -7 -12 3.57000 0.94000   1
  -2   7  12 2.23000 0.96000   1
  10 -12  -3 2.46000 0.87000   1
 -10  12   3 2.36000 0.81000   1
  -7  13   5 1.10000 0.90000   1
   7 -13  -5 0.76000 1.15000   1
   2  -4 -14 0.10000 0.71000   1
  -2   4  14 0.40000 0.79000   1
   2  -4 -14 1.39000 0.84000   1
  -2   4  14 -0.1600 0.65000   1
  -6  10 -11 13.3900 1.66000   1
  10   6   0 0.62000 0.99000   1
 -10  -6   0 0.56000 0.90000   1
  10   6   0 1.25000 1.05000   1
  -9  -1  15 1.40000 1.01000   1
   9   1 -15 1.61000 1.24000   1
   8  -4 -14 1.23000 1.17000   1
  -8   4  14 0.80000 0.73000   1
   7   4 -16 1.07000 1.05000   1
  -7  -4  16 1.00000 1.00000   1
   9  -3 -14 4.47000 1.21000   1
  -9   3  14 3.49000 1.11000   1
  -3  15  -8 0.24000 0.61000   1
  -3  15  -8 0.85000 0.95000   1
 -13  -1   5 7.37000 1.18000   1
  -8  11  -8 3.21000 1.08000   1
   1  15  -8 7.27000 1.30000   1
   1  15  -8 2.84000 1.20000   1
  -1 -15   8 3.02000 0.90000   1
  12  -6  -9 8.36000 1.66000   1
   6   6 -16 7.29000 1.44000   1
   6   6 -16 4.57000 1.10000   1
  -6  -6  16 5.38000 1.48000   1
  -3  14 -10 1.00000 0.91000   1
  -5   3  15 5.91000 1.03000   1
   5  -3 -15 4.51000 1.35000   1
 -11   5  -5 9.98000 1.21000   1
 -13   0   3 2.57000 0.63000   1
 -13   0   3 2.16000 0.84000   1
  -2 -10  15 11.5300 1.61000   1
   2  10 -15 12.4300 1.66000   1
   2  10 -15 12.4700 1.80000   1
   2  10 -15 13.0000 1.37000   1
   0  13   4 10.0400 1.22000   1
   0  13   4 11.5600 1.64000   1
 -13   1   2 0.71000 0.52000   1
  13   1  -7 11.9900 1.48000   1
 -13  -1   7 12.2400 1.44000   1
  -5  -7  16 13.9600 1.71000   1
   5   7 -16 12.7400 1.71000   1
   5   7 -16 14.2300 1.76000   1
  -8 -10  11 2.18000 1.09000   1
   8  10 -11 -1.1100 1.06000   1
   8  10 -11 -0.8000 0.92000   1
 -13   3   1 0.52000 0.50000   1
 -13   3   1 1.15000 0.55000   1
  -4  15   1 1.97000 1.05000   1
   2  12   4 11.3200 1.89000   1
   2  12   4 14.3500 1.48000   1
  -8  -4  -6 15.1900 1.80000   1
   8   4   6 12.6500 1.86000   1
   0  15  -1 1.77000 0.90000   1
   0  15  -1 1.56000 0.62000   1
  -7 -11  11 1.47000 1.26000   1
   7  11 -11 1.04000 1.19000   1
 -12  -2  11 6.60000 1.46000   1
  12   2 -11 7.55000 1.52000   1
  -8  -1  -8 1.81000 1.02000   1
   8   1   8 3.12000 1.09000   1
  -2   2  15 5.96000 1.05000   1
   2  -2 -15 3.03000 0.85000   1
   2  -2 -15 2.07000 0.98000   1
  -2   2  15 2.49000 0.92000   1
  12  -7  -8 2.64000 1.06000   1
  -9  -6  14 3.30000 1.52000   1
   9   6 -14 7.32000 1.40000   1
   9   6 -14 5.37000 1.64000   1
  12   4  -4 12.8900 1.52000   1
  12   4  -4 7.40000 1.82000   1
   1  14   1 4.18000 0.91000   1
   1  14   1 0.91000 1.30000   1
   9  -5 -13 6.15000 1.56000   1
  -9   5  13 5.02000 0.89000   1
  -5 -12  12 4.53000 1.17000   1
   5  12 -12 0.83000 1.12000   1
   5  12 -12 3.69000 1.30000   1
  12   3  -2 12.8700 1.69000   1
  12   3  -2 13.9800 1.66000   1
 -12  -3   2 12.3500 1.49000   1
  -5  15  -6 2.78000 0.74000   1
  -5  15  -6 3.36000 0.91000   1
   0  14 -11 11.2600 1.86000   1
   0 -14  11 6.05000 1.07000   1
   0  14 -11 7.65000 1.20000   1
  12   4  -9 22.1400 2.76000   1
  12   4  -9 26.2400 2.51000   1
 -12  -4   9 25.5500 2.57000   1
   4  14  -6 0.47000 0.86000   1
  -4 -14   6 -0.2500 0.96000   1
  -1  15   0 8.35000 1.47000   1
   9   7   1 10.1000 1.68000   1
  -9  -7  -1 12.6600 1.53000   1
   9   7   1 10.4100 1.73000   1
   3  14  -2 3.19000 1.19000   1
   3  14  -2 0.17000 0.89000   1
  -9  13  -3 0.84000 0.55000   1
  -3  15   1 12.8000 1.47000   1
   9   9  -3 1.54000 1.22000   1
   9   9  -3 1.13000 0.94000   1
   6   0 -16 13.6800 1.64000   1
  -6   0  16 3.35000 1.28000   1
  -2   0 -14 1.95000 1.11000   1
   2   0  14 2.62000 1.18000   1
  -2   0 -14 2.84000 0.67000   1
   9   3 -15 9.44000 1.77000   1
  -9  -3  15 7.95000 1.56000   1
  13  -5  -7 -0.4500 0.87000   1
  -2  -8  -9 7.74000 1.05000   1
   2   8   9 4.19000 1.08000   1
   2   8   9 1.48000 1.03000   1
  -2  -8  -9 3.47000 1.17000   1
   8   7   3 4.04000 1.00000   1
   8   7   3 4.26000 1.31000   1
  -8  -7  -3 3.09000 1.16000   1
   2   1 -16 0.73000 0.76000   1
  -2  -1  16 0.99000 0.92000   1
   2   1 -16 0.16000 0.74000   1
   0  14   2 18.5800 2.00000   1
   0  14   2 20.0000 1.67000   1
  11   2 -13 3.71000 1.27000   1
 -11  -2  13 4.04000 1.16000   1
  10  -1 -14 2.96000 1.38000   1
 -10   1  14 2.63000 1.05000   1
 -10   9  -6 3.47000 0.99000   1
   5  11   2 10.2900 1.38000   1
   5  11   2 11.3800 1.84000   1
   7   9   2 1.09000 0.94000   1
  -7  -9  -2 0.47000 0.85000   1
   7   9   2 -0.0700 0.88000   1
  11   6 -10 0.51000 1.20000   1
  11   6 -10 0.28000 0.95000   1
 -11  -6  10 0.58000 1.08000   1
  -6  15  -4 3.71000 0.76000   1
  -6  15  -4 3.63000 0.89000   1
  -6  -7  -6 3.27000 1.28000   1
   6   7   6 6.26000 1.04000   1
   6   7   6 4.49000 1.22000   1
  -4 -14   7 15.1200 2.07000   1
   4  14  -7 14.3400 1.75000   1
 -11   1  13 -0.4400 0.92000   1
  11  -1 -13 -1.2400 1.15000   1
  -2  -9  -8 12.8200 1.83000   1
  -2  -9  -8 14.0500 1.52000   1
   2   9   8 13.4900 1.70000   1
   2   9   8 11.7100 1.51000   1
 -11   6  -5 0.72000 0.72000   1
   3  10 -15 0.95000 0.79000   1
  -3 -10  15 0.70000 1.02000   1
   3  10 -15 1.36000 0.98000   1
   3  10 -15 1.13000 1.04000   1
   9   2   6 13.7400 1.90000   1
  -9  -2  -6 15.8500 1.72000   1
 -11   4  -5 6.79000 1.00000   1
  11  -4   5 5.47000 0.96000   1
   5  12   0 0.84000 1.22000   1
   5  12   0 1.58000 0.83000   1
  -7  10 -10 14.9500 1.77000   1
  10  -1   6 10.3200 1.42000   1
 -10   1  -6 9.59000 1.45000   1
  -8  -9   0 4.25000 1.17000   1
   8   9   0 5.06000 1.43000   1
   8   9   0 3.35000 1.16000   1
 -12   3  11 1.51000 0.74000   1
  12  -3 -11 1.75000 1.23000   1
  -5  10 -12 9.06000 1.41000   1
   6  -3 -15 0.71000 0.91000   1
  -6   3  15 0.39000 0.83000   1
  -5  -9  -5 10.9100 1.66000   1
   5   9   5 9.27000 1.41000   1
   5   9   5 10.6300 1.44000   1
  -7  -1  16 6.69000 1.35000   1
   7   1 -16 7.44000 1.34000   1
  -2  10 -14 3.53000 0.76000   1
  -2  10 -14 4.10000 1.29000   1
   2 -10  14 3.26000 1.10000   1
  10  -8 -10 1.52000 1.04000   1
 -10   8  10 1.60000 0.97000   1
   5  13  -3 8.75000 1.38000   1
   5  13  -3 4.17000 1.53000   1
   4  11 -14 2.36000 1.08000   1
   4  11 -14 3.41000 1.02000   1
  -4 -11  14 0.29000 1.08000   1
   4  11 -14 1.68000 1.15000   1
   8   6 -15 2.09000 1.26000   1
  -8  -6  15 0.11000 1.26000   1
  -5   5  14 2.16000 1.21000   1
   5  -5 -14 4.25000 1.25000   1
  -5   5  14 3.15000 0.99000   1
   6  -6  12 3.78000 0.91000   1
  -6   6 -12 1.69000 1.10000   1
   1   7 -16 8.14000 1.27000   1
  -1  -7  16 3.63000 1.33000   1
   1   7 -16 5.18000 1.49000   1
   3   3  12 8.85000 1.27000   1
  -3  -3 -12 3.18000 1.18000   1
  -3  -3 -12 1.60000 0.71000   1
  11 -11  -3 6.90000 1.17000   1
 -11  11   3 8.83000 1.03000   1
   1  14 -11 1.10000 1.20000   1
   1  14 -11 0.65000 1.00000   1
  -1 -14  11 1.45000 0.82000   1
   6   6   7 1.17000 0.70000   1
   6   6   7 -0.8000 1.01000   1
  -6  -6  -7 1.38000 0.99000   1
 -11  -1  -3 2.64000 0.94000   1
  11   1   3 0.75000 0.83000   1
   3  13   1 1.98000 0.89000   1
   3  13   1 4.73000 1.33000   1
   3  12   3 4.53000 1.19000   1
   3  12   3 5.63000 1.00000   1
   4  -3 -15 9.59000 1.58000   1
  -4   3  15 8.54000 1.39000   1
  -4   3  15 7.63000 1.39000   1
  13  -4  -8 -0.2500 0.94000   1
 -13   4   8 0.55000 0.56000   1
   7  11  -2 0.22000 0.93000   1
   7  11  -2 0.66000 0.82000   1
  -6   5 -12 2.31000 1.02000   1
   6  -5  12 -0.0700 0.76000   1
  -3 -13  12 1.49000 1.05000   1
   3  13 -12 2.40000 1.29000   1
   3  13 -12 2.64000 1.17000   1
 -10  -1  -5 3.70000 1.15000   1
  10   1   5 2.65000 1.18000   1
  11  -4 -12 3.03000 1.44000   1
 -11   4  12 2.86000 0.85000   1
  -3  -6 -10 2.48000 0.79000   1
   3   6  10 3.38000 1.08000   1
  -3  -6 -10 3.51000 1.15000   1
   3   6  10 2.68000 0.95000   1
   4  14  -5 3.35000 1.06000   1
  -4 -14   5 1.50000 1.06000   1
   1  12   5 5.16000 0.90000   1
   1  12   5 2.64000 1.31000   1
  -1 -12  -5 4.05000 0.98000   1
   7  -6  11 0.58000 0.69000   1
  -7   6 -11 1.54000 0.87000   1
   3   1  13 -0.1700 1.06000   1
  -3  -1 -13 1.77000 0.97000   1
  -1 -10  15 16.8600 1.90000   1
   1  10 -15 13.9100 1.96000   1
   1  10 -15 12.8500 1.37000   1
   1  10 -15 16.5300 1.98000   1
   3  10   6 8.16000 1.12000   1
  -3 -10  -6 1.62000 1.25000   1
   3  10   6 9.14000 1.24000   1
  -1  14 -11 5.28000 1.19000   1
  -1  14 -11 1.09000 0.82000   1
   2  15  -6 16.8100 1.96000   1
  -2 -15   6 14.2400 1.91000   1
  -3  -8  16 0.98000 0.93000   1
   3   8 -16 1.85000 1.08000   1
   3   8 -16 1.02000 0.91000   1
   3   0 -16 9.32000 1.54000   1
  -3   0  16 9.14000 1.36000   1
   3   0 -16 8.56000 1.13000   1
  -1  15  -9 1.46000 0.86000   1
  -1  15  -9 2.60000 1.14000   1
  -8  14  -3 5.20000 0.91000   1
   4  -1  13 0.09000 0.86000   1
  -4   1 -13 0.14000 0.92000   1
  -7   5 -11 0.96000 0.84000   1
   7  -5  11 0.33000 0.70000   1
  -7  12   7 12.6900 1.71000   1
   7 -12  -7 15.7700 1.88000   1
  -3   2 -14 1.48000 1.03000   1
   3  -2  14 0.67000 0.84000   1
  -6   5  14 4.16000 1.05000   1
  -6   5  14 1.74000 1.23000   1
   6  -5 -14 2.40000 1.22000   1
   0  -6 -12 8.28000 1.30000   1
   0  -6 -12 7.73000 1.38000   1
   0   6  12 9.41000 1.19000   1
   0   6  12 6.65000 1.27000   1
 -12   5  10 8.74000 0.95000   1
  12  -5 -10 9.08000 1.77000   1
  -9   0  15 -0.7700 0.82000   1
   9   0 -15 1.37000 1.05000   1
   2  -5  15 1.02000 0.90000   1
  -2   5 -15 0.28000 1.03000   1
  -8  11   8 15.5400 1.80000   1
   8 -11  -8 18.8200 2.17000   1
 -10  11   6 0.56000 0.68000   1
  10 -11  -6 0.43000 0.95000   1
  -8  14   1 5.38000 0.98000   1
   8 -14  -1 8.04000 1.47000   1
   2  15  -5 9.13000 1.34000   1
  -2 -15   5 3.30000 1.33000   1
  -8   1  -9 1.72000 0.87000   1
   8  -1   9 2.19000 0.89000   1
  -3  11 -13 6.36000 1.41000   1
  -5  15   1 3.38000 1.19000   1
  -5  15   1 5.40000 0.88000   1
 -13   1   9 5.92000 1.06000   1
  13  -1  -9 7.99000 1.34000   1
  10  -4 -13 4.08000 1.06000   1
 -10   4  13 0.04000 0.70000   1
  11 -10  -6 14.3700 1.71000   1
 -11  10   6 14.7700 1.42000   1
  10  -7 -11 1.23000 1.31000   1
 -10   7  11 3.02000 0.62000   1
 -10   5  -7 7.14000 1.16000   1
  -6  15   0 0.51000 0.82000   1
  -6  15   0 0.43000 0.55000   1
 -10   9   9 1.67000 0.85000   1
  10  -9  -9 3.09000 1.18000   1
   0  15  -9 15.5900 1.81000   1
   0  15  -9 21.2300 2.03000   1
  13   1  -4 2.41000 0.91000   1
 -13  -1   4 0.33000 0.78000   1
 -13  -1   4 0.76000 0.57000   1
  -9   2  -8 10.7700 1.56000   1
   9  -2   8 10.6900 1.37000   1
  10   8  -4 15.4800 2.01000   1
  10   8  -4 18.0000 2.33000   1
 -12   9   5 5.27000 0.81000   1
  12  -9  -5 5.66000 0.96000   1
 -13   2   1 0.62000 0.55000   1
  13  -2  -1 1.06000 0.61000   1
  -7  -9  14 5.22000 1.90000   1
   7   9 -14 14.2900 1.89000   1
   7   9 -14 6.39000 1.30000   1
   7   9 -14 9.58000 1.74000   1
  -1  -2  16 0.48000 0.94000   1
   1   2 -16 1.30000 0.85000   1
   1   2 -16 0.81000 0.92000   1
   2  -6  15 11.6400 1.41000   1
  -2   6 -15 12.9200 1.92000   1
   6   8   5 4.98000 1.12000   1
   6   8   5 3.78000 0.98000   1
  -6  -8  -5 1.18000 1.22000   1
 -13   2   9 0.36000 0.71000   1
  13  -2  -9 0.75000 1.00000   1
   2  14   0 5.50000 1.45000   1
   2  14   0 5.30000 0.99000   1
  -5  -5  -9 1.51000 0.96000   1
   5   5   9 -0.2000 0.85000   1
 -10   6  -7 6.67000 1.11000   1
  -2  -7 -10 1.68000 0.78000   1
   2   7  10 -0.2200 0.72000   1
   2   7  10 1.07000 0.81000   1
  -2  -7 -10 -0.3300 0.78000   1
   1  15  -2 16.4300 1.99000   1
   1  15  -2 15.9300 1.56000   1
 -13  -1   8 18.4700 1.70000   1
  13   1  -8 10.4900 1.54000   1
   8  -2 -15 7.22000 1.63000   1
  -8   2  15 4.49000 0.98000   1
  -4 -12  13 9.76000 2.02000   1
   4  12 -13 14.4700 2.05000   1
   4  12 -13 13.0900 1.60000   1
   4  12 -13 13.9400 1.85000   1
  -5   9  11 7.73000 0.96000   1
  -5   9  11 6.16000 1.50000   1
   5  -9 -11 9.18000 1.55000   1
   6  -7  12 0.67000 0.85000   1
  -6   7 -12 2.25000 0.95000   1
  -5 -13  10 9.47000 1.53000   1
   5  13 -10 8.24000 1.62000   1
   4  10   5 3.81000 1.14000   1
   4  10   5 5.09000 1.11000   1
  -4 -10  -5 2.22000 1.14000   1
   2   8 -16 4.31000 1.36000   1
   2   8 -16 6.95000 1.30000   1
  -2  -8  16 3.28000 1.36000   1
  12  -8  -7 1.85000 0.86000   1
  -4 -14   8 0.87000 1.06000   1
   4  14  -8 4.74000 1.27000   1
   3  14 -10 -0.8100 0.84000   1
   3  14 -10 2.26000 1.14000   1
  -3 -14  10 0.17000 0.85000   1
  -2  13 -12 8.26000 1.39000   1
  -2  13 -12 10.8800 1.34000   1
   6  12  -2 9.17000 1.37000   1
   6  12  -2 5.86000 1.73000   1
 -11  10  -3 2.28000 0.65000   1
   8  10  -2 -0.7400 1.12000   1
   8  10  -2 0.92000 0.80000   1
   7   5 -16 0.57000 0.93000   1
  -7  -5  16 1.81000 0.98000   1
  -1  11 -14 6.27000 1.43000   1
  -1  11 -14 3.97000 1.16000   1
   1 -11  14 4.79000 0.99000   1
  -4   5  14 -0.6200 0.82000   1
  -4   5  14 1.60000 0.79000   1
   4  -5 -14 1.01000 0.96000   1
   4 -14  -4 1.95000 1.13000   1
  -4  14   4 0.48000 0.93000   1
  11   6  -3 1.96000 0.85000   1
  11   6  -3 0.57000 1.14000   1
  11   6  -3 1.36000 1.06000   1
 -11   9  -4 4.85000 0.92000   1
  11  -7 -10 0.07000 0.81000   1
   9   9 -11 18.5100 2.47000   1
   9   9 -11 19.7600 2.25000   1
  -9  -9  11 16.6000 2.40000   1
   1  -9 -10 16.7900 1.78000   1
  -1   9  10 12.7700 1.66000   1
   1  -9 -10 15.9200 1.77000   1
  -1   9  10 13.9700 1.65000   1
   2  15  -7 0.32000 0.92000   1
  -2 -15   7 -0.7400 0.76000   1
   7  10 -13 10.8800 1.43000   1
  -7 -10  13 7.85000 1.94000   1
   7  10 -13 11.7600 1.81000   1
   7  10 -13 7.59000 1.97000   1
  -5  10  10 -0.0700 1.03000   1
   5 -10 -10 1.89000 0.86000   1
  -5  10  10 1.36000 0.72000   1
   7  -7  11 6.76000 0.96000   1
  -7   7 -11 6.77000 1.36000   1
 -10  -8  10 -0.4400 1.13000   1
  10   8 -10 0.22000 1.19000   1
  10   8 -10 1.46000 1.22000   1
  11  -8  -9 -0.3400 1.02000   1
  -2  15   1 2.66000 1.09000   1
  -8  13  -6 1.18000 0.76000   1
   4   8 -16 9.40000 1.40000   1
  -4  -8  16 9.74000 1.70000   1
   4   8 -16 7.89000 1.63000   1
   9 -13  -3 12.5500 1.57000   1
  -9  13   3 11.3000 1.26000   1
 -11   7  -5 4.28000 0.94000   1
  -2 -10  -7 11.3500 1.79000   1
  -2 -10  -7 11.6300 1.46000   1
   2  10   7 13.0300 1.32000   1
   2  10   7 8.18000 1.59000   1
   6  12 -11 1.00000 1.21000   1
  -6 -12  11 1.86000 1.05000   1
   6  -4  12 13.3700 1.46000   1
  -6   4 -12 11.0900 1.81000   1
  -2   4 -15 10.5800 1.69000   1
   2  -4  15 8.57000 1.33000   1
  -5  13 -10 -0.7200 0.79000   1
  -6   9  11 0.45000 0.61000   1
  -6   9  11 -0.2600 0.83000   1
   6  -9 -11 -0.6100 0.93000   1
  -9  -4  15 2.28000 1.17000   1
   9   4 -15 2.26000 1.35000   1
   5 -14  -4 9.35000 1.69000   1
  -5  14   4 9.38000 1.49000   1
   8  -6 -13 9.33000 1.93000   1
  -8   6  13 13.1500 1.23000   1
  -5   6 -13 0.32000 0.91000   1
   5  -6  13 -0.2100 0.64000   1
  10   4 -14 10.3000 2.04000   1
 -10  -4  14 13.6000 1.93000   1
   8  11  -7 3.97000 1.62000   1
  -8 -11   7 3.69000 1.34000   1
 -11   3  -5 2.30000 0.97000   1
  11  -3   5 2.19000 0.79000   1
  -4  -5 -10 -0.0500 0.57000   1
  -4  -5 -10 1.02000 0.97000   1
   4   5  10 1.28000 0.93000   1
  11   5  -1 9.89000 1.59000   1
  11   5  -1 10.9200 1.66000   1
 -11  -5   1 9.47000 1.42000   1
  -1  14   3 10.2500 1.39000   1
  -1  14   3 5.81000 0.93000   1
   7 -14  -3 9.28000 1.64000   1
  -7  14   3 10.6100 1.43000   1
  12  -1   2 3.43000 1.07000   1
 -12   1  -2 3.45000 0.99000   1
 -13   0   9 2.76000 0.91000   1
  13   0  -9 1.02000 0.96000   1
  -5   5 -13 9.92000 1.77000   1
   5  -5  13 10.6400 1.37000   1
 -10   4  -7 0.68000 0.72000   1
  10  -4   7 0.25000 0.67000   1
  -2  15  -9 0.27000 0.89000   1
  -2  15  -9 -0.0900 0.61000   1
   6  10 -14 9.43000 1.43000   1
   6  10 -14 7.59000 1.51000   1
  -6 -10  14 7.71000 1.58000   1
   6  10 -14 9.80000 1.57000   1
   7  -4  11 6.72000 1.31000   1
  -7   4 -11 5.09000 1.23000   1
  -1   1 -15 8.89000 1.43000   1
   1  -1  15 8.06000 1.45000   1
  -1   1 -15 6.15000 0.97000   1
   8   9 -13 8.50000 1.31000   1
   8   9 -13 -0.0300 1.24000   1
   8   9 -13 1.90000 1.09000   1
  -8  -9  13 1.08000 1.39000   1
  -6  13  -9 0.75000 0.88000   1
   1 -10  -9 1.75000 0.90000   1
   1 -10  -9 0.29000 1.02000   1
  -1  10   9 -0.0800 0.98000   1
  -1  10   9 1.28000 0.82000   1
  -7  14  -6 0.92000 0.86000   1
 -12   5  -3 6.30000 0.91000   1
   6   2  10 8.84000 1.56000   1
  -6  -2 -10 8.31000 1.53000   1
  -6  10  10 0.83000 0.52000   1
   6 -10 -10 -0.6000 1.00000   1
  -6  10  10 -0.1200 0.90000   1
 -11  -3  13 1.54000 1.08000   1
  11   3 -13 -0.0400 1.21000   1
  -6  12 -10 7.13000 1.11000   1
   0   5 -16 6.94000 1.03000   1
   0  -5  16 6.30000 1.18000   1
   0   5 -16 5.03000 1.45000   1
   5 -13  -6 0.92000 1.17000   1
  -5  13   6 4.36000 1.10000   1
  -7 -12   7 1.10000 1.14000   1
   7  12  -7 -0.7600 1.15000   1
   8   8 -14 9.66000 1.88000   1
   8   8 -14 8.11000 1.32000   1
   8   8 -14 10.3500 1.72000   1
  -8  -8  14 10.1500 1.91000   1
  -2 -15   4 11.3700 1.58000   1
   2  15  -4 12.4500 1.65000   1
  -4 -10  15 1.09000 1.14000   1
   4  10 -15 1.41000 1.00000   1
   4  10 -15 1.13000 1.20000   1
   4  10 -15 1.58000 0.84000   1
  -6  -5  -8 0.18000 0.91000   1
   6   5   8 0.22000 0.74000   1
  -5  -2 -11 5.03000 1.11000   1
   5   2  11 3.74000 1.34000   1
 -10  12  -3 12.3000 1.15000   1
 -11   2  13 1.44000 0.92000   1
  11  -2 -13 0.29000 1.20000   1
 -12   4  -3 0.35000 0.73000   1
  -8 -11   8 4.01000 1.51000   1
   8  11  -8 2.84000 1.51000   1
   8  11  -6 5.27000 1.68000   1
  -8 -11   6 4.71000 1.57000   1
  -9   9  -8 7.75000 1.16000   1
  -1   9 -15 0.87000 0.67000   1
  -1   9 -15 1.56000 1.06000   1
   1  -9  15 1.02000 0.80000   1
   9  -9 -10 6.71000 1.62000   1
  -9   9  10 9.04000 1.33000   1
  -4  13   6 11.7300 1.52000   1
   4 -13  -6 10.3800 1.81000   1
   4  14  -4 3.45000 1.26000   1
   4  14  -4 2.23000 0.97000   1
  -6  15  -5 0.39000 0.73000   1
  -6  15  -5 -0.3900 0.49000   1
  -5  12 -11 7.47000 1.24000   1
 -13   3   9 4.69000 0.88000   1
  13  -3  -9 4.47000 1.26000   1
   4  -9 -11 10.6000 1.36000   1
  -4   9  11 7.34000 1.09000   1
  -4   9  11 5.15000 1.51000   1
   2  -7  15 6.92000 1.12000   1
  -2   7 -15 4.32000 1.34000   1
  -2  12 -13 13.0700 1.95000   1
  -2  12 -13 10.1800 1.33000   1
   3  -9  14 1.08000 0.89000   1
  -3   9 -14 1.53000 1.18000   1
 -10   7  -7 0.00000 0.62000   1
  -9   8  11 9.60000 1.00000   1
  -9   8  11 9.98000 1.45000   1
   9  -8 -11 10.9500 1.69000   1
  -1   8  11 13.6500 1.43000   1
  -1   8  11 16.4700 1.81000   1
   1  -8 -11 15.6000 1.65000   1
   1  -8 -11 11.1400 1.59000   1
 -12   8  -2 7.54000 0.92000   1
  -7   3  15 4.51000 0.97000   1
   7  -3 -15 4.55000 1.34000   1
   2 -12  -7 7.54000 1.42000   1
  -2  12   7 8.11000 1.54000   1
  -2  12   7 7.29000 0.98000   1
  -8  -3  -7 2.07000 0.84000   1
   8   3   7 1.88000 1.18000   1
  -5   8  12 16.5900 1.89000   1
   5  -8 -12 18.5600 1.98000   1
  -5   8  12 17.6500 1.74000   1
  10 -12  -4 5.47000 1.29000   1
 -10  12   4 10.3100 1.20000   1
  -2 -14  11 15.1400 1.76000   1
   2  14 -11 10.4700 1.57000   1
   2  14 -11 13.6400 2.07000   1
   4 -10 -10 3.81000 1.29000   1
  -4  10  10 6.99000 1.33000   1
  -4  10  10 3.89000 0.82000   1
  -8   6 -10 6.22000 1.03000   1
   8  -6  10 2.20000 0.89000   1
 -10  -7  12 0.85000 1.15000   1
  10   7 -12 0.44000 1.12000   1
  10   7 -12 3.28000 1.36000   1
   7  12  -6 10.2100 1.91000   1
  -7 -12   6 7.93000 1.89000   1
  10   6 -13 1.75000 1.27000   1
  10   6 -13 1.01000 1.10000   1
 -10  -6  13 0.36000 1.13000   1
   0  -4  16 0.69000 0.82000   1
   0   4 -16 -0.2800 0.93000   1
   0   4 -16 0.59000 0.66000   1
  -3  14   4 10.1200 1.61000   1
   3 -14  -4 13.0400 1.72000   1
   7   0 -16 1.98000 1.11000   1
  -7   0  16 2.03000 1.07000   1
  -8  10  -9 7.02000 1.29000   1
  -1  13   5 2.39000 0.77000   1
   1 -13  -5 4.40000 1.02000   1
  -1  13   5 2.46000 1.21000   1
   6   0  11 4.17000 1.16000   1
  -6   0 -11 0.96000 1.03000   1
   8  -5  10 12.8000 1.35000   1
  -8   5 -10 10.0600 1.55000   1
   0   6 -16 13.2200 1.36000   1
   0   6 -16 12.6900 1.87000   1
   0  -6  16 12.6000 1.78000   1
   5  -7  13 2.95000 1.05000   1
  -5   7 -13 2.53000 1.22000   1
 -11  11   4 8.76000 1.02000   1
  11 -11  -4 7.34000 1.24000   1
   7  12  -8 0.41000 1.16000   1
  -7 -12   8 0.28000 1.18000   1
  -4  10 -13 19.4700 2.14000   1
  -7   5  14 7.96000 1.19000   1
   7  -5 -14 3.29000 1.44000   1
  -5   1  16 2.76000 1.15000   1
   5  -1 -16 3.30000 1.28000   1
  -3   3  15 9.10000 1.23000   1
   3  -3 -15 8.55000 1.37000   1
  -3   3  15 9.83000 1.45000   1
  12   4  -3 10.3400 1.63000   1
  12   4  -3 8.92000 1.63000   1
 -12  -4   3 13.1100 1.35000   1
   6  -8 -12 -0.3600 0.90000   1
  -6   8  12 4.14000 0.69000   1
  -6   8  12 1.61000 1.16000   1
  12   3 -11 1.70000 1.05000   1
 -12  -3  11 0.50000 0.99000   1
  10  -2 -14 4.24000 1.38000   1
 -10   2  14 0.76000 0.81000   1
   4  12   2 2.33000 1.23000   1
   4  12   2 1.78000 0.87000   1
 -11  -7   7 2.92000 1.13000   1
  11   7  -7 4.24000 1.42000   1
  11   7  -7 6.24000 1.33000   1
 -11   6  11 6.96000 0.84000   1
  11  -6 -11 4.58000 1.68000   1
 -13   0   2 11.6800 1.16000   1
  13   0  -2 10.8300 1.33000   1
 -12   6  -3 10.0200 1.11000   1
  12   4 -10 2.55000 1.50000   1
  12   4 -10 4.62000 1.35000   1
 -12  -4  10 6.97000 1.32000   1
  -1 -15   9 1.50000 0.80000   1
   1  15  -9 0.41000 0.99000   1
   1  15  -9 1.65000 1.02000   1
   8   8   2 0.75000 1.05000   1
  -8  -8  -2 1.15000 0.94000   1
   8   8   2 1.56000 1.01000   1
   6  11 -13 3.56000 1.48000   1
  -6 -11  13 8.29000 1.51000   1
   6  11 -13 4.96000 1.48000   1
   6  11 -13 8.27000 1.57000   1
   2  -6 -13 5.11000 1.14000   1
   2  -6 -13 2.11000 0.83000   1
  -2   6  13 5.25000 1.06000   1
  -2   6  13 1.98000 1.06000   1
  -5   4 -13 7.96000 1.70000   1
   5  -4  13 10.6000 1.53000   1
  -4  13 -11 1.77000 1.06000   1
  -2  14 -11 1.63000 0.93000   1
 -13  -2   6 3.55000 1.24000   1
  13   2  -6 3.69000 1.42000   1
 -11   9   8 3.97000 0.92000   1
  11  -9  -8 0.73000 1.19000   1
  10  -6 -12 1.41000 1.17000   1
 -10   6  12 0.43000 0.56000   1
   0  12   6 1.42000 1.00000   1
   0 -12  -6 0.78000 0.87000   1
   0  12   6 0.91000 0.82000   1
   0   3  14 0.37000 0.72000   1
   0  -3 -14 1.28000 0.75000   1
   0   3  14 0.17000 0.60000   1
   0  -3 -14 0.08000 0.79000   1
   0  10 -15 3.27000 1.07000   1
   0  10 -15 5.16000 1.33000   1
   0 -10  15 2.59000 1.14000   1
  -9  13  -4 1.20000 0.74000   1
 -10  10   8 6.95000 1.09000   1
  10 -10  -8 7.83000 1.32000   1
 -12   0  12 -0.3600 1.03000   1
  12   0 -12 5.00000 1.24000   1
  11   5 -12 0.63000 0.91000   1
 -11  -5  12 0.11000 1.01000   1
  11   5 -12 0.02000 1.16000   1
  -5  11   9 1.14000 0.54000   1
   5 -11  -9 -0.4000 1.05000   1
  -5  11   9 -0.2300 0.99000   1
  -8  14  -4 6.44000 0.94000   1
  12   5  -7 4.33000 1.42000   1
  12   5  -7 5.74000 1.54000   1
 -12  -5   7 3.76000 1.37000   1
  -6  -7  16 0.08000 1.03000   1
   6   7 -16 1.99000 1.17000   1
   6   7 -16 1.67000 0.85000   1
 -13   4   0 10.7800 1.08000   1
  -9   1  15 10.1600 1.33000   1
   9  -1 -15 7.88000 1.82000   1
   6  -8  12 4.38000 0.88000   1
  -6   8 -12 7.30000 1.32000   1
 -11  -7   8 0.39000 0.93000   1
  11   7  -8 0.64000 1.18000   1
  11   7  -8 -0.0300 0.88000   1
  -4  15  -8 19.8300 1.92000   1
  13   2  -7 0.48000 0.81000   1
  13   2  -7 -0.1500 1.12000   1
 -13  -2   7 0.91000 0.86000   1
  -1  -9  -9 6.54000 1.24000   1
  -1  -9  -9 7.32000 1.33000   1
   1   9   9 4.43000 1.36000   1
   1   9   9 6.35000 1.00000   1
  -7  -8  15 0.41000 0.94000   1
   7   8 -15 0.47000 0.98000   1
   7   8 -15 0.08000 0.85000   1
   7   8 -15 0.27000 0.75000   1
  11   7  -6 1.31000 1.35000   1
 -11  -7   6 3.24000 1.22000   1
  11   7  -6 2.48000 1.12000   1
  -9 -10   7 5.47000 1.59000   1
   9  10  -7 3.55000 1.65000   1
  -2 -15   8 3.24000 0.98000   1
   2  15  -8 1.16000 1.19000   1
  -4   1  16 0.43000 0.82000   1
   4  -1 -16 -0.0400 0.92000   1
   6 -13  -6 0.79000 1.00000   1
  -6  13   6 2.93000 0.95000   1
  -1  -8  16 9.69000 1.36000   1
   1   8 -16 10.3000 1.39000   1
   1   8 -16 10.0200 1.65000   1
   5   0  12 1.20000 0.88000   1
  -5   0 -12 0.67000 1.07000   1
  -8   7 -10 9.30000 1.51000   1
  -7  12  -9 6.98000 1.26000   1
  13  -5  -8 1.44000 0.92000   1
  -1  -2 -14 5.04000 1.05000   1
  -1  -2 -14 2.19000 0.80000   1
   1   2  14 2.05000 1.19000   1
  -2  16  -4 0.09000 0.75000   1
  -8  14   2 9.50000 1.26000   1
   8 -14  -2 5.66000 1.34000   1
  13  -1  -1 5.39000 0.98000   1
 -13   1   1 4.74000 0.82000   1
  -7  -2  -9 1.50000 1.09000   1
   7   2   9 1.28000 1.08000   1
  12  -4 -11 10.2100 1.77000   1
 -12   4  11 7.42000 1.01000   1
   7   0  10 13.7500 1.78000   1
  -7   0 -10 9.79000 1.75000   1
 -10  -7   1 11.4200 1.55000   1
  10   7  -1 13.4400 1.59000   1
  10   7  -1 8.83000 1.60000   1
  -7   8 -11 4.26000 0.99000   1
  12   5  -6 3.34000 1.30000   1
  12   5  -6 3.77000 1.13000   1
 -12  -5   6 2.37000 1.30000   1
 -13  -1   3 3.01000 0.74000   1
  13   1  -3 6.38000 1.10000   1
   2  -3  15 6.88000 1.26000   1
  -2   3 -15 6.05000 1.50000   1
  -6  -9  15 1.12000 1.23000   1
   6   9 -15 0.02000 1.00000   1
   6   9 -15 1.95000 1.09000   1
   6   9 -15 0.29000 0.93000   1
   6 -14  -4 2.42000 1.56000   1
  -6  14   4 7.23000 1.14000   1
 -12   3  -3 5.06000 0.96000   1
  12  -3   3 5.86000 0.91000   1
  12   2   0 11.2600 1.41000   1
 -12  -2   0 9.15000 1.17000   1
   5  10   4 3.81000 1.44000   1
  -5 -10  -4 2.05000 1.21000   1
   5  10   4 7.29000 1.25000   1
 -12   1  12 1.75000 1.04000   1
  12  -1 -12 2.92000 1.30000   1
   6   9   4 10.3500 1.52000   1
   6   9   4 13.4100 1.77000   1
  -6  -9  -4 12.2600 1.80000   1
  11   0   4 0.55000 0.86000   1
 -11   0  -4 1.72000 0.88000   1
   4  14  -9 1.60000 1.12000   1
  -4 -14   9 1.12000 0.97000   1
  -7   9  11 5.11000 0.78000   1
  -7   9  11 5.98000 1.42000   1
   7  -9 -11 7.19000 1.33000   1
  -3  16  -4 2.87000 1.10000   1
  -3  16  -4 2.22000 1.12000   1
   7   6   6 1.69000 0.91000   1
  -7  -6  -6 -1.3200 0.95000   1
   6  -1 -16 1.08000 1.02000   1
  -6   1  16 -0.4200 0.83000   1
  -5  15  -7 8.82000 1.35000   1
  -4   8  12 0.50000 0.88000   1
   4  -8 -12 1.90000 0.85000   1
  -4   8  12 0.14000 0.70000   1
   9 -10  -9 0.84000 1.20000   1
  -9  10   9 2.90000 0.94000   1
  -2  16  -5 10.4500 1.66000   1
  -2  16  -5 13.4100 1.83000   1
  13  -6  -7 0.35000 0.67000   1
  -9 -10   8 1.47000 1.12000   1
   9  10  -8 0.86000 1.15000   1
   1   8  10 0.31000 0.81000   1
   1   8  10 -0.2500 0.74000   1
  -1  -8 -10 1.18000 0.95000   1
  -1  -8 -10 0.62000 0.85000   1
  -5  14  -9 2.75000 1.15000   1
  -6  15   1 9.89000 1.41000   1
  -6  15   1 11.0200 1.17000   1
 -12  -1  12 3.13000 1.11000   1
  12   1 -12 3.53000 1.39000   1
  -8 -11   9 7.87000 1.69000   1
   8  11  -9 3.82000 1.74000   1
 -13  -1   9 1.86000 1.00000   1
  13   1  -9 1.07000 1.12000   1
   6 -11  -9 0.47000 1.16000   1
  -6  11   9 2.61000 0.96000   1
  10  -3   7 0.70000 0.85000   1
 -10   3  -7 0.48000 0.83000   1
   8  11  -5 3.04000 1.15000   1
   8  11  -5 -0.4900 0.93000   1
   8  -4  10 10.5400 1.30000   1
  -8   4 -10 10.7000 1.51000   1
   7   7   5 5.65000 1.10000   1
   7   7   5 5.03000 1.44000   1
  -7  -7  -5 9.59000 1.37000   1
 -11  -6  11 6.25000 1.23000   1
  11   6 -11 4.41000 1.63000   1
  11   6 -11 1.91000 1.38000   1
 -13  -2   5 3.73000 1.39000   1
  13   2  -5 8.24000 1.40000   1
  -8  -2  16 7.55000 1.28000   1
   8   2 -16 7.70000 1.51000   1
  -2  -6 -11 0.19000 0.72000   1
   2   6  11 1.31000 0.89000   1
  -2  -6 -11 2.85000 0.86000   1
   2   6  11 1.01000 0.93000   1
   9  -7 -12 13.7800 2.06000   1
  -9   7  12 10.5600 1.10000   1
 -10  -4  -3 15.2000 1.78000   1
  10   4   3 16.4500 2.12000   1
 -13   3   0 4.86000 0.77000   1
   6  -3  12 15.5200 1.83000   1
  -6   3 -12 11.8200 1.96000   1
  -7  13  -8 -0.0700 0.81000   1
  12   5  -8 0.89000 1.04000   1
  12   5  -8 3.14000 1.43000   1
 -12  -5   8 1.54000 0.95000   1
  -1  11   8 2.32000 1.14000   1
  -1  11   8 1.56000 0.91000   1
   1 -11  -8 2.99000 1.09000   1
   7  12  -5 1.56000 0.86000   1
   7  12  -5 2.79000 1.36000   1
   4  13   0 1.14000 0.82000   1
   4  13   0 2.73000 1.23000   1
   8   3 -16 1.29000 1.15000   1
  -8  -3  16 2.74000 1.13000   1
   9  10  -6 2.95000 1.46000   1
  -9 -10   6 2.20000 1.18000   1
  -3  16  -3 3.21000 1.06000   1
  -3  16  -3 0.75000 1.07000   1
   2   0 -16 2.81000 1.15000   1
  -2   0  16 4.07000 1.17000   1
  -2   0  16 4.02000 0.84000   1
   2   0 -16 2.99000 0.92000   1
  -3   5  14 0.41000 0.77000   1
  -3   5  14 0.60000 0.82000   1
   3  -5 -14 0.14000 0.88000   1
   4   2  12 8.38000 1.61000   1
  -4  -2 -12 7.47000 1.37000   1
   9   8   0 3.78000 1.20000   1
   9   8   0 3.99000 1.36000   1
  -9  -8   0 2.60000 1.16000   1
   5   8 -16 13.8700 1.89000   1
   5   8 -16 10.0400 1.48000   1
  -5  -8  16 8.69000 1.61000   1
   9 -12  -6 4.69000 1.20000   1
  -9  12   6 0.54000 0.87000   1
   4 -11  -9 4.68000 1.25000   1
  -4  11   9 6.40000 0.89000   1
  -4  11   9 6.99000 1.46000   1
  -3  13   6 0.22000 0.93000   1
  -3  13   6 0.50000 0.52000   1
   3 -13  -6 -0.1400 0.94000   1
   7 -10 -10 7.58000 1.41000   1
  -7  10  10 7.87000 1.30000   1
   3   5  11 2.91000 0.91000   1
  -3  -5 -11 2.22000 1.12000   1
  -3  -5 -11 0.42000 0.67000   1
  12   1   1 3.33000 0.86000   1
 -12  -1  -1 0.44000 0.75000   1
   0  15   0 1.10000 0.63000   1
   0  15   0 1.10000 0.98000   1
   0  -3  16 2.37000 1.09000   1
   0   3 -16 1.30000 1.09000   1
   0   3 -16 1.38000 0.73000   1
   8 -13  -5 0.71000 1.15000   1
  -8  13   5 6.00000 1.04000   1
 -10  11  -5 24.8400 2.01000   1
  -7  15  -2 3.05000 0.80000   1
  -7  15  -2 4.82000 0.81000   1
  -7   3 -11 18.6800 1.99000   1
   7  -3  11 17.5600 1.84000   1
  -1  -4 -13 1.09000 0.95000   1
   1   4  13 -0.0700 0.59000   1
  -1  -4 -13 0.23000 0.76000   1
   1   4  13 2.27000 0.94000   1
   5  13  -2 1.24000 0.96000   1
   5  13  -2 3.26000 1.27000   1
  -9  11  -7 2.52000 0.98000   1
   3  14  -1 11.4900 2.00000   1
   3  14  -1 19.4200 1.66000   1
  -3 -11  -5 3.48000 1.53000   1
   3  11   5 3.72000 1.40000   1
   3  11   5 7.34000 1.07000   1
 -11   8  -5 5.72000 0.98000   1
   9   9  -2 1.17000 1.17000   1
   9   9  -2 0.56000 0.90000   1
  -2  16  -3 8.14000 1.34000   1
  -3  16  -5 7.52000 1.33000   1
  -3  16  -5 3.18000 1.02000   1
  -4  12 -12 10.6400 1.52000   1
   9   8 -13 5.93000 1.83000   1
   9   8 -13 9.76000 1.65000   1
  -9  -8  13 5.08000 1.75000   1
   9   8 -13 8.51000 1.35000   1
   1  10   8 3.87000 1.35000   1
   1  10   8 6.53000 1.11000   1
  -1 -10  -8 3.27000 1.26000   1
  -1 -10  -8 7.78000 1.25000   1
  12  -9  -6 2.70000 0.91000   1
 -12   9   6 2.09000 0.89000   1
   0   7 -16 1.37000 1.12000   1
   0   7 -16 6.66000 0.94000   1
   0  -7  16 2.07000 1.26000   1
  -6 -13   7 -0.5500 1.23000   1
   6  13  -7 2.51000 1.02000   1
   7  12  -9 13.7900 1.99000   1
  -7 -12   9 11.5600 2.07000   1
   7   6 -16 3.41000 1.04000   1
  -7  -6  16 0.40000 1.29000   1
  -4  15   2 11.3900 1.63000   1
   1  13 -13 5.28000 1.53000   1
  -1 -13  13 7.71000 1.42000   1
   1  13 -13 8.32000 1.13000   1
   1  13 -13 5.29000 1.37000   1
   2  15  -3 10.6300 1.32000   1
   2  15  -3 10.6800 1.60000   1
   1  12 -14 7.55000 1.20000   1
   1  12 -14 0.67000 0.77000   1
  -1 -12  14 0.73000 1.02000   1
   1  12 -14 0.86000 1.10000   1
   1   1 -16 4.79000 0.97000   1
   1   1 -16 2.85000 1.22000   1
  -1  -1  16 2.07000 1.15000   1
 -10  -5  -2 0.60000 1.00000   1
  10   5   2 2.65000 1.08000   1
  -7  15  -1 4.81000 0.79000   1
  -7  15  -1 3.39000 0.88000   1
  -9  12  -6 7.23000 1.22000   1
  -9  -1  -7 3.79000 1.08000   1
   9   1   7 2.42000 1.24000   1
  11  -2   5 -0.3600 0.78000   1
 -11   2  -5 0.17000 0.73000   1
  12   3  -1 10.5200 1.61000   1
 -12  -3   1 8.93000 1.35000   1
   2  12 -14 1.89000 0.97000   1
   2  12 -14 0.23000 1.08000   1
   2  12 -14 0.78000 1.17000   1
  -2 -12  14 1.87000 0.94000   1
  10   8  -3 0.53000 1.05000   1
  10   8  -3 0.62000 0.97000   1
   8  10 -12 -0.1200 0.99000   1
  -8 -10  12 -0.6800 1.12000   1
   8  10 -12 -0.4700 1.14000   1
  13   2  -8 15.6400 1.85000   1
 -13  -2   8 15.8800 1.83000   1
  -4  14 -10 10.3300 1.43000   1
  -1  16  -5 0.81000 0.85000   1
  -3  15  -9 11.8400 1.57000   1
  -3  15  -9 11.0200 1.23000   1
   7  -8 -12 8.54000 1.67000   1
  -7   8  12 6.87000 0.95000   1
  -7   8  12 8.63000 1.47000   1
 -12  10   3 2.43000 0.64000   1
   9   5 -15 0.04000 1.13000   1
  -9  -5  15 0.67000 1.03000   1
  -6  14  -8 9.78000 1.36000   1
  -6 -13   6 3.06000 1.40000   1
   6  13  -6 3.24000 1.50000   1
   5  11 -14 3.69000 1.10000   1
   5  11 -14 1.49000 0.99000   1
   5  11 -14 0.78000 1.16000   1
  -5 -11  14 0.65000 1.34000   1
  -2 -11  -6 1.09000 1.08000   1
   2  11   6 3.34000 1.13000   1
   2  11   6 1.91000 0.82000   1
   1  -4 -14 5.20000 1.01000   1
   1  -4 -14 4.80000 1.16000   1
  -1   4  14 3.11000 1.12000   1
  -1   4  14 3.95000 0.91000   1
 -13   4   9 7.32000 0.92000   1
  13  -4  -9 5.01000 1.44000   1
 -10   8  -7 0.28000 0.78000   1
  -5   8 -13 2.44000 1.17000   1
   5  -8  13 0.85000 0.74000   1
 -12   7  -3 1.39000 0.78000   1
 -10  10  -6 0.52000 0.75000   1
  -7 -11  12 -0.4000 1.19000   1
   7  11 -12 0.65000 1.06000   1
   7  11 -12 0.07000 0.88000   1
   7  11 -12 1.92000 1.20000   1
   2  -8  15 0.88000 0.76000   1
  -2   8 -15 0.60000 1.06000   1
   1  -7 -12 6.06000 1.03000   1
   1  -7 -12 1.84000 0.94000   1
  -1   7  12 3.62000 0.99000   1
  -1   7  12 1.26000 0.87000   1
   1  -2 -15 10.8700 1.36000   1
  -1   2  15 9.47000 1.29000   1
  -1   2  15 8.23000 1.14000   1
   1  -2 -15 10.6500 1.33000   1
   0  -1 -15 3.05000 0.85000   1
   0  -1 -15 2.81000 0.91000   1
   0   1  15 3.63000 1.23000   1
  -4   6 -14 0.79000 1.09000   1
   4  -6  14 1.39000 0.82000   1
 -11  -7   9 7.48000 1.45000   1
  11   7  -9 6.76000 1.63000   1
  11   7  -9 2.53000 1.54000   1
 -10  -3  -4 9.94000 1.50000   1
  10   3   4 8.92000 1.67000   1
   3  -1  14 0.95000 0.87000   1
  -3   1 -14 1.47000 0.97000   1
  -1  15   1 1.85000 0.91000   1
  -9   4  14 2.17000 0.95000   1
   9  -4 -14 2.34000 1.28000   1
   7   5   7 0.52000 0.93000   1
  -7  -5  -7 0.08000 0.96000   1
  -1  16  -4 1.78000 1.15000   1
  -7  15  -3 6.08000 0.91000   1
  -7  15  -3 7.18000 0.97000   1
  -8  -1  16 0.79000 1.01000   1
   8   1 -16 1.66000 0.99000   1
  -9  -5  -4 7.63000 1.50000   1
   9   5   4 9.74000 1.51000   1
  12   5  -5 1.12000 0.86000   1
 -12  -5   5 1.86000 1.09000   1
  12   5  -5 0.89000 1.26000   1
   4  13 -12 5.27000 1.30000   1
   4  13 -12 4.30000 1.78000   1
  -4 -13  12 10.3000 1.52000   1
   4  -5  14 2.52000 1.20000   1
  -4   5 -14 2.32000 1.26000   1
   2   3  13 0.40000 0.91000   1
  -2  -3 -13 0.41000 0.60000   1
  -2  -3 -13 0.45000 0.79000   1
  11   7  -5 0.68000 0.81000   1
  11   7  -5 1.93000 0.97000   1
  11   7  -5 0.52000 0.98000   1
  -6  11 -11 12.8600 1.70000   1
  -2  16  -6 1.71000 0.97000   1
  -2  16  -6 0.94000 0.85000   1
  -8  12   7 9.31000 1.51000   1
   5   4  10 10.3500 1.73000   1
  -5  -4 -10 10.7300 1.70000   1
   0  13 -13 15.7300 1.55000   1
   0 -13  13 16.0400 1.66000   1
   0  13 -13 17.7600 2.40000   1
   0  13 -13 17.7300 1.96000   1
   3  -9 -11 1.26000 1.00000   1
  -3   9  11 -0.3100 0.97000   1
  -3   9  11 1.33000 0.75000   1
   8   7 -15 0.02000 0.68000   1
   8   7 -15 1.87000 1.12000   1
   8   7 -15 -0.1500 0.93000   1
  -8  -7  15 1.48000 1.17000   1
  -3  15   2 0.29000 0.92000   1
 -10   0  -6 6.56000 1.21000   1
  10   0   6 9.20000 1.51000   1
  -3  10  10 2.13000 0.81000   1
  -3  10  10 1.32000 0.94000   1
   3 -10 -10 0.47000 1.13000   1
   1  15  -1 4.63000 1.18000   1
   1  15  -1 2.40000 0.88000   1
  -6 -13   8 17.4000 2.10000   1
   6  13  -8 17.4700 2.16000   1
   9   7 -14 1.91000 1.60000   1
   9   7 -14 2.12000 1.31000   1
  -9  -7  14 13.2900 1.81000   1
   6  11   1 3.09000 1.43000   1
   6  11   1 3.67000 1.15000   1
  -5   7  13 6.54000 1.00000   1
   5  -7 -13 7.68000 1.39000   1
  -5   7  13 4.28000 1.46000   1
  12  -2 -12 8.06000 1.70000   1
 -12   2  12 5.96000 1.13000   1
   9  -1   8 3.81000 1.09000   1
  -9   1  -8 1.84000 0.88000   1
   9  10  -9 12.1800 2.17000   1
  -9 -10   9 10.7400 1.99000   1
   4  14  -3 5.63000 1.57000   1
   4  14  -3 6.66000 1.23000   1
  -8  -4  16 2.19000 1.11000   1
   8   4 -16 1.76000 1.17000   1
  11   4 -13 0.98000 1.17000   1
 -11  -4  13 0.04000 1.10000   1
   7  10   1 1.01000 0.96000   1
  -7 -10  -1 0.29000 0.71000   1
   7  10   1 0.72000 0.87000   1
   5 -15  -2 2.58000 1.33000   1
  -5  15   2 2.45000 0.93000   1
  -4  16  -3 6.15000 1.07000   1
  -4  16  -3 0.96000 0.89000   1
  10   8 -11 15.9500 2.52000   1
 -10  -8  11 15.2400 2.32000   1
  10   8 -11 19.4500 2.38000   1
 -13   1  10 0.11000 0.75000   1
  13  -1 -10 0.45000 0.87000   1
   2  13 -13 0.42000 1.06000   1
   2  13 -13 0.42000 1.27000   1
   2  13 -13 1.70000 0.87000   1
  -2 -13  13 2.01000 0.97000   1
  -5   3 -13 8.18000 1.47000   1
   5  -3  13 10.2400 1.57000   1
   6  -7 -13 4.36000 1.06000   1
  -6   7  13 2.71000 1.22000   1
  -6   7  13 2.44000 0.94000   1
  -4  16  -4 2.57000 0.93000   1
  -4  16  -4 2.25000 1.08000   1
  10   5 -14 2.07000 1.39000   1
 -10  -5  14 3.44000 1.17000   1
   2 -14  -4 0.86000 1.12000   1
  -2  14   4 1.85000 1.07000   1
  -6  -4  -9 5.00000 1.41000   1
   6   4   9 5.47000 1.33000   1
  -3  16  -2 15.7700 1.87000   1
  -1  16  -6 8.12000 1.47000   1
  -1  16  -6 8.78000 1.64000   1
  12  -7  -9 12.9500 1.93000   1
   0  -5 -13 1.80000 0.83000   1
   0   5  13 1.59000 1.00000   1
   0   5  13 2.06000 0.86000   1
   0  -5 -13 3.27000 1.09000   1
  -8   8 -10 7.90000 1.35000   1
 -11   3  13 2.39000 0.91000   1
  11  -3 -13 6.98000 1.62000   1
  -4 -11  -4 9.27000 1.58000   1
   4  11   4 6.75000 1.39000   1
   4  11   4 6.86000 1.34000   1
 -12  -2  12 22.9300 2.52000   1
  12   2 -12 20.2700 2.55000   1
   3   9 -16 8.63000 1.49000   1
  -3  -9  16 3.68000 1.37000   1
   3   9 -16 7.58000 1.51000   1
   3  -1 -16 -0.9100 0.93000   1
  -3   1  16 1.04000 0.82000   1
  -3   1  16 0.32000 0.81000   1
   3  -1 -16 0.42000 0.58000   1
  -9  13   4 -0.3900 0.90000   1
   9 -13  -4 7.20000 1.22000   1
  -4  -4  17 3.38000 1.24000   1
   4   4 -17 4.56000 1.14000   1
   4   4 -17 3.11000 0.91000   1
  -5 -13  11 0.96000 0.85000   1
   5  13 -11 1.07000 1.10000   1
   5  13 -11 -1.8200 0.90000   1
  -7  -8  -4 2.38000 1.35000   1
   7   8   4 8.41000 1.25000   1
   7   8   4 3.44000 1.11000   1
   9   6   3 0.74000 1.00000   1
   9   6   3 -0.2100 0.72000   1
  -9  -6  -3 0.79000 0.90000   1
  11  -5 -12 11.0500 1.88000   1
 -11   5  12 8.50000 1.06000   1
  -1  -7 -11 0.19000 0.71000   1
   1   7  11 0.16000 0.75000   1
   1   7  11 0.03000 0.71000   1
  -1  -7 -11 0.17000 0.76000   1
   9   4   5 13.2700 1.83000   1
  -9  -4  -5 9.18000 1.34000   1
   7  11  -1 16.8500 1.91000   1
   7  11  -1 14.2400 2.20000   1
 -13   2   0 4.60000 0.79000   1
  13  -2   0 2.80000 1.00000   1
 -11  -3  -2 0.38000 0.82000   1
  11   3   2 0.19000 0.78000   1
   9  10  -5 4.48000 1.11000   1
   9  10  -5 0.27000 1.51000   1
  12   5  -9 11.3400 2.13000   1
 -12  -5   9 12.1500 1.62000   1
  12   5  -9 11.0200 1.73000   1
  -6  15  -6 1.96000 0.92000   1
  13   2  -4 1.20000 0.95000   1
 -13  -2   4 1.03000 0.92000   1
 -13  -2   4 0.69000 0.64000   1
  -5 -10  15 1.34000 1.18000   1
   5  10 -15 1.70000 0.91000   1
   5  10 -15 0.98000 1.24000   1
   5  10 -15 0.17000 1.04000   1
  -7  11 -10 7.15000 1.30000   1
  11   6  -2 2.65000 1.11000   1
  11   6  -2 1.63000 0.99000   1
 -11  -6   2 1.48000 0.85000   1
  -2  -1 -14 1.51000 1.04000   1
  -2  -1 -14 0.90000 0.63000   1
   2   1  14 1.03000 1.07000   1
   4  -7  14 23.1000 2.12000   1
  -4   7 -14 24.8400 2.60000   1
 -13   2  10 8.11000 1.22000   1
  13  -2 -10 8.48000 1.68000   1
   2   9 -16 0.79000 0.89000   1
   2   9 -16 0.56000 0.84000   1
  -2  -9  16 0.09000 0.99000   1
  -7  15   0 7.77000 1.23000   1
  -7  15   0 5.47000 0.84000   1
  -5  11 -12 5.17000 1.22000   1
   0  15 -10 3.89000 1.06000   1
   0  15 -10 2.27000 1.02000   1
   0  12 -14 1.43000 0.92000   1
   0  12 -14 0.70000 1.18000   1
   0 -12  14 1.28000 0.90000   1
  13   0 -10 3.07000 1.21000   1
 -13   0  10 1.32000 1.09000   1
  -4   0 -13 -0.2100 0.91000   1
   4   0  13 0.08000 0.86000   1
  -1  15 -10 2.56000 0.94000   1
  -1  15 -10 3.56000 1.25000   1
  12  -6 -10 11.3400 1.84000   1
  12  -2   3 8.14000 1.17000   1
 -12   2  -3 8.40000 1.10000   1
   6  13  -5 1.11000 1.08000   1
   7 -11  -9 2.49000 1.22000   1
  -7  11   9 1.68000 0.90000   1
  -3  16  -6 1.16000 0.73000   1
  -3  16  -6 0.40000 0.99000   1
 -11  -4  -1 0.47000 0.75000   1
  11   4   1 0.18000 0.96000   1
  12   0   2 26.6800 2.07000   1
 -12   0  -2 12.0400 1.47000   1
   4   3 -17 1.55000 0.76000   1
  -4  -3  17 2.20000 1.14000   1
   4   3 -17 2.14000 1.16000   1
  11 -10  -7 11.2800 1.82000   1
 -11  10   7 13.1800 1.44000   1
  11 -11  -5 3.85000 1.32000   1
 -11  11   5 6.68000 1.03000   1
   4   5 -17 12.0100 1.46000   1
   4   5 -17 10.4300 1.55000   1
  -4  -5  17 10.7100 1.70000   1
  -8   0  -9 -0.1800 0.87000   1
   8   0   9 1.52000 1.01000   1
  -9   6  -9 1.37000 0.91000   1
   4  -4  14 11.0700 1.62000   1
  -4   4 -14 7.76000 1.51000   1
  -3  13 -12 8.12000 1.52000   1
  -3  13 -12 8.56000 1.11000   1
  -7   1  16 4.43000 1.32000   1
   7  -1 -16 8.82000 1.62000   1
  -1  16  -3 1.24000 1.03000   1
  -2  16  -2 0.71000 0.88000   1
  -8   3 -10 9.63000 1.32000   1
   8  -3  10 5.63000 1.19000   1
   8  -3 -15 0.99000 1.19000   1
  -8   3  15 0.56000 0.85000   1
 -10  13   0 0.39000 0.50000   1
  -3 -14  11 6.36000 1.41000   1
   3  14 -11 3.26000 1.17000   1
   3  14 -11 4.47000 1.36000   1
   5   4 -17 7.55000 1.31000   1
  -5  -4  17 3.13000 1.23000   1
   5   4 -17 2.32000 0.87000   1
   3  12 -14 0.56000 0.78000   1
   3  12 -14 0.20000 1.13000   1
  -3 -12  14 1.34000 1.09000   1
   3  12 -14 0.28000 1.11000   1
  -2  11 -14 2.65000 1.08000   1
  -2  11 -14 1.27000 0.70000   1
   2 -11  14 1.04000 0.74000   1
  -4  16  -2 0.62000 0.79000   1
  -4  16  -2 1.28000 0.78000   1
   7 -13  -6 11.4100 1.90000   1
  -7  13   6 10.8900 1.44000   1
 -12  10   4 1.30000 0.61000   1
   4   4  11 8.07000 1.46000   1
  -4  -4 -11 5.88000 1.57000   1
  -8   5  14 11.0700 1.42000   1
   8  -5 -14 13.2200 2.03000   1
  -2 -15   9 7.69000 1.27000   1
   2  15  -9 7.19000 1.33000   1
   2  15  -9 2.83000 1.75000   1
   2  13   3 17.9100 2.28000   1
   2  13   3 18.1300 1.86000   1
   9  -5   9 5.33000 0.92000   1
  -9   5  -9 3.38000 1.18000   1
 -10  12  -4 2.22000 0.73000   1
   5 -12  -8 1.77000 1.49000   1
  -5  12   8 8.09000 1.42000   1
   9   9 -12 5.13000 1.56000   1
   9   9 -12 8.38000 1.89000   1
  -9  -9  12 6.32000 1.75000   1
  12  -8  -8 2.15000 0.98000   1
   1  14   2 0.67000 0.74000   1
   1  14   2 0.26000 1.03000   1
   8  11 -10 3.94000 1.46000   1
  -8 -11  10 4.18000 1.67000   1
   5   3 -17 0.36000 0.91000   1
  -5  -3  17 -0.3800 0.90000   1
   5  12 -13 1.23000 1.26000   1
   5  12 -13 4.03000 1.11000   1
  -5 -12  13 0.31000 1.14000   1
   5  12 -13 2.66000 1.28000   1
  -6   9 -12 7.75000 1.32000   1
 -10  -6  -1 0.23000 0.91000   1
  10   6   1 -1.3600 0.85000   1
  10   6   1 -0.2400 0.85000   1
  -3   8  12 8.25000 1.21000   1
  -3   8  12 3.23000 1.14000   1
   3  -8 -12 4.37000 1.35000   1
  -4   7  13 1.57000 0.85000   1
  -4   7  13 -0.1000 0.79000   1
   4  -7 -13 1.57000 1.00000   1
   3   4 -17 3.10000 0.98000   1
  -3  -4  17 1.42000 0.93000   1
   3   4 -17 1.56000 0.85000   1
  -4  16  -5 -0.3600 0.91000   1
  -4  16  -5 -0.3900 0.84000   1
   7  12  -4 15.2300 1.64000   1
   7  12  -4 19.4900 2.56000   1
   8  11  -4 22.0100 2.16000   1
   8  11  -4 20.9100 2.58000   1
   6  12  -1 4.26000 1.56000   1
   6  12  -1 6.21000 1.09000   1
  -8  12  -8 0.86000 0.92000   1
  -9  11   8 -0.1500 0.80000   1
   9 -11  -8 0.25000 0.83000   1
  -3  11   9 9.79000 1.14000   1
   3 -11  -9 11.2500 1.69000   1
  -3  11   9 11.6100 1.52000   1
 -10  13   1 1.95000 0.64000   1
  10 -13  -1 1.48000 0.78000   1
   2  -2  15 1.45000 1.18000   1
  -2   2 -15 2.59000 1.16000   1
   2  11 -15 2.79000 0.81000   1
  -2 -11  15 0.86000 1.00000   1
   2  11 -15 1.36000 1.20000   1
   2  11 -15 1.21000 1.19000   1
   1  13   4 5.94000 0.95000   1
   1  13   4 2.39000 1.39000   1
 -11  10  -4 4.47000 0.82000   1
  -5   4  15 0.75000 0.73000   1
  -5   4  15 1.13000 0.85000   1
   5  -4 -15 0.13000 1.02000   1
  -7  15  -4 0.73000 0.67000   1
  10 -12  -5 3.34000 1.11000   1
 -10  12   5 2.07000 0.83000   1
  -7   9 -11 7.43000 1.33000   1
  -3  -5  17 1.10000 1.09000   1
   3   5 -17 1.11000 0.86000   1
   3   5 -17 1.74000 0.99000   1
  -2   3  15 2.95000 1.08000   1
   2  -3 -15 1.92000 0.97000   1
  -2   3  15 4.00000 1.06000   1
   2  -3 -15 3.54000 0.96000   1
   8   2   8 0.95000 1.04000   1
  -8  -2  -8 0.90000 0.91000   1
 -10   5  13 6.94000 0.98000   1
  10  -5 -13 5.26000 1.65000   1
 -11  -2  -3 5.19000 1.16000   1
  11   2   3 2.86000 1.20000   1
  10  -3 -14 2.07000 0.94000   1
 -10   3  14 -0.8900 0.67000   1
   8  10  -1 10.7500 1.42000   1
   8  10  -1 5.17000 1.82000   1
   1   0  15 0.33000 0.87000   1
  -1   0 -15 -0.2000 0.86000   1
  -1   0 -15 0.07000 0.58000   1
  -1 -11  -7 0.85000 1.13000   1
   1  11   7 2.40000 1.11000   1
  -1 -11  -7 1.70000 1.20000   1
   1  11   7 3.07000 0.97000   1
   0  -2  16 1.73000 1.04000   1
   0   2 -16 1.33000 1.01000   1
   0   2 -16 1.36000 0.76000   1
 -10  11   7 9.62000 1.25000   1
  10 -11  -7 8.75000 1.70000   1
  -4  -9  16 2.97000 1.35000   1
   4   9 -16 3.91000 1.20000   1
   4   9 -16 2.16000 0.98000   1
   4   9 -16 0.65000 1.07000   1
  -9  10  -8 18.0700 1.78000   1
  -8  14  -5 1.56000 0.90000   1
   9  -2 -15 2.90000 1.37000   1
  -9   2  15 1.53000 0.87000   1
   6  12 -12 1.45000 1.30000   1
  -6 -12  12 1.15000 1.45000   1
   6  12 -12 1.32000 1.28000   1
   6  12 -12 5.83000 1.41000   1
   6  13  -9 4.46000 1.36000   1
  -6 -13   9 2.72000 1.44000   1
  10   9  -7 1.57000 1.50000   1
 -10  -9   7 2.94000 1.39000   1
  13   2  -9 3.29000 1.19000   1
 -13  -2   9 3.07000 1.14000   1
  -9   6  13 -0.7500 0.59000   1
   9  -6 -13 1.37000 1.09000   1
  10  -2   7 9.35000 1.28000   1
 -10   2  -7 7.32000 1.32000   1
   5  12   1 15.9300 1.81000   1
   5  12   1 16.4200 2.16000   1
  12   4  -2 0.73000 1.05000   1
  12   4  -2 1.49000 1.08000   1
 -12  -4   2 -0.0700 0.82000   1
   3 -10  14 9.56000 1.24000   1
  -3  10 -14 11.7600 1.69000   1
   6  -4 -15 -0.3000 0.92000   1
  -6   4  15 0.22000 0.65000   1
   3  15  -6 4.24000 1.12000   1
  -3 -15   6 4.93000 1.20000   1
   0  14 -12 7.14000 1.15000   1
   0  14 -12 8.20000 1.71000   1
   8   0 -16 1.38000 0.92000   1
  -8   0  16 0.68000 0.94000   1
   7 -14  -4 0.10000 1.04000   1
  -7  14   4 2.35000 1.03000   1
 -12  -4  11 8.20000 1.68000   1
  12   4 -11 6.04000 1.90000   1
  12   4 -11 9.02000 1.59000   1
  -4 -14  10 19.9600 2.35000   1
   4  14 -10 25.2000 2.67000   1
  -9   7  -9 12.7900 1.66000   1
   7  12 -10 0.43000 1.33000   1
  -7 -12  10 8.47000 1.65000   1
  -7   7  13 0.21000 1.15000   1
  -7   7  13 1.70000 0.84000   1
   7  -7 -13 8.37000 1.38000   1
  -3  14 -11 16.7200 2.02000   1
  -6  12   8 3.33000 1.01000   1
   6 -12  -8 1.84000 1.07000   1
  -5  -5  17 4.34000 1.14000   1
   5   5 -17 2.86000 0.91000   1
   5   5 -17 4.77000 1.35000   1
   0  16  -5 3.96000 1.29000   1
 -13   0   1 7.27000 1.11000   1
  13   0  -1 6.98000 1.37000   1
   0  -8  16 2.30000 1.12000   1
   0   8 -16 1.03000 1.09000   1
   0   8 -16 3.05000 0.86000   1
   4 -12  -8 3.90000 1.41000   1
  -4  12   8 4.86000 0.78000   1
  -4  12   8 7.47000 1.33000   1
   1  14 -12 5.64000 1.21000   1
   1  14 -12 11.1100 1.87000   1
  -1 -14  12 8.91000 1.28000   1
  13   1  -2 1.11000 0.78000   1
 -13  -1   2 0.04000 0.62000   1
   8  -9 -11 5.32000 1.57000   1
  -8   9  11 8.35000 1.31000   1
 -10  -9   8 -0.1800 1.19000   1
  10   9  -8 1.77000 1.23000   1
  10   9  -8 0.78000 1.23000   1
  -1  13 -13 1.83000 1.13000   1
  -1  13 -13 4.12000 1.17000   1
   0  14   3 -0.1100 1.04000   1
   0  14   3 1.36000 0.69000   1
   8 -14  -3 1.29000 1.35000   1
  -8  14   3 8.26000 1.11000   1
  10   2   5 1.94000 1.10000   1
 -10  -2  -5 4.14000 0.99000   1
   1 -10  15 1.23000 0.93000   1
  -1  10 -15 1.09000 0.72000   1
  -1  10 -15 -0.5600 1.06000   1
  -7  14  -7 12.3400 1.64000   1
   2  14   1 -0.3500 0.94000   1
   2  14   1 0.25000 0.65000   1
  -2  15   2 1.17000 1.02000   1
  -2  16  -7 1.91000 0.84000   1
  -2  16  -7 0.83000 1.13000   1
   1  15 -10 1.93000 0.99000   1
   1  15 -10 1.53000 1.13000   1
   1  11 -15 14.7900 1.89000   1
  -1 -11  15 17.3600 1.86000   1
   1  11 -15 13.0400 1.75000   1
  -1  16  -7 5.98000 1.22000   1
  -1  16  -7 2.61000 1.05000   1
   6  -2  12 3.24000 0.92000   1
  -6   2 -12 0.08000 1.12000   1
   8   9   1 1.37000 0.96000   1
   8   9   1 1.45000 0.92000   1
  -8  -9  -1 0.34000 0.96000   1
  12   5  -4 2.51000 1.37000   1
  12   5  -4 3.67000 1.24000   1
  -3  -3  17 9.66000 1.64000   1
   3   3 -17 12.4700 1.69000   1
   3   3 -17 8.88000 1.30000   1
   3  15  -7 9.91000 1.61000   1
  -3 -15   7 9.26000 1.69000   1
   1 -12  -7 3.00000 1.30000   1
  -1  12   7 8.86000 1.48000   1
  -1  12   7 5.35000 0.91000   1
  13  -3 -10 10.6200 2.02000   1
 -13   3  10 12.7900 1.48000   1
  -2  13   6 7.82000 1.42000   1
   2 -13  -6 8.26000 1.48000   1
  -2  13   6 6.13000 0.92000   1
  11   7 -10 5.67000 1.90000   1
  11   7 -10 7.76000 1.87000   1
 -11  -7  10 8.72000 1.68000   1
  -9  14  -1 4.43000 0.74000   1
  -8  -5  16 2.15000 1.12000   1
   8   5 -16 1.19000 1.15000   1
   3  11 -15 1.17000 1.18000   1
  -3 -11  15 0.97000 1.15000   1
   3  11 -15 0.97000 0.85000   1
   3  11 -15 1.73000 1.21000   1
   0  16  -6 0.85000 0.82000   1
  -9  13  -5 9.18000 1.13000   1
  -9   4  -9 8.58000 1.49000   1
   9  -4   9 8.11000 1.20000   1
 -13  -1  10 9.60000 1.44000   1
  13   1 -10 7.17000 1.45000   1
  -7  -4  -8 4.02000 1.35000   1
   7   4   8 5.57000 1.35000   1
  -9  14   0 9.06000 1.02000   1
  11   7  -4 7.85000 1.55000   1
  11   7  -4 1.49000 1.17000   1
  -3  -2 -13 14.8100 1.89000   1
   3   2  13 12.0000 1.87000   1
  -8  13  -7 -0.0300 0.74000   1
  -7   2 -11 1.60000 0.89000   1
   7  -2  11 0.93000 0.87000   1
 -11  -1  14 1.29000 1.07000   1
  11   1 -14 0.92000 1.24000   1
   1   9 -16 1.86000 0.88000   1
  -1  -9  16 0.60000 0.96000   1
   1   9 -16 1.39000 1.15000   1
  -6 -10  -3 2.92000 1.37000   1
   6  10   3 3.61000 1.22000   1
   6  10   3 4.84000 1.15000   1
  -3 -15   5 11.1900 1.62000   1
   3  15  -5 12.6200 1.81000   1
  10   1 -15 15.4400 2.07000   1
 -10  -1  15 12.5700 1.75000   1
  -2  15 -10 9.22000 1.14000   1
  -2  15 -10 11.9700 1.61000   1
   3  13   2 5.62000 1.61000   1
   3  13   2 7.82000 1.25000   1
   9  10 -10 1.98000 1.36000   1
   9  10 -10 1.40000 1.28000   1
  -9 -10  10 2.52000 1.44000   1
  13  -6  -8 4.10000 1.14000   1
 -10  -2  15 6.45000 1.29000   1
  10   2 -15 9.06000 1.85000   1
 -10  -9   6 0.63000 1.13000   1
  10   9  -6 -0.2800 1.13000   1
  -5  -2  17 1.88000 0.98000   1
   5   2 -17 1.37000 1.18000   1
  -6  15   2 5.71000 1.04000   1
   6 -15  -2 2.94000 1.21000   1
  -4  -2  17 -0.2000 0.89000   1
   4   2 -17 0.08000 0.93000   1
   8 -10 -10 0.92000 1.15000   1
  -8  10  10 0.72000 0.86000   1
  -9  -7  -2 4.38000 1.24000   1
   9   7   2 7.61000 1.24000   1
   9   7   2 1.81000 1.41000   1
 -12   8  -3 2.20000 0.72000   1
   2  15  -2 -0.5400 0.60000   1
   2  15  -2 1.17000 0.85000   1
  12  -3 -12 2.36000 1.24000   1
 -12   3  12 3.32000 0.86000   1
  -4  -6  17 5.28000 1.60000   1
   4   6 -17 8.52000 1.27000   1
   4   6 -17 9.79000 1.62000   1
   3  13 -13 26.6200 3.08000   1
   3  13 -13 24.5200 2.88000   1
  -3 -13  13 26.6700 2.65000   1
   3  13 -13 28.2000 2.74000   1
   0  16  -4 3.38000 1.05000   1
  -4   4  15 0.57000 0.66000   1
  -4   4  15 0.73000 0.73000   1
   4  -4 -15 -0.3900 0.81000   1
   4  -8  14 4.78000 1.13000   1
  -4   8 -14 17.4500 1.87000   1
  -5   9 -13 2.16000 1.13000   1
  -3  16  -1 2.45000 1.10000   1
   9   3   6 2.80000 1.16000   1
  -9  -3  -6 4.71000 1.20000   1
  11   5   0 2.68000 1.17000   1
  11   5   0 3.72000 1.18000   1
 -11  -5   0 5.47000 1.00000   1
 -11  11  -3 0.29000 0.50000   1
  -3  -6  17 3.32000 1.16000   1
   3   6 -17 5.89000 1.07000   1
   3   6 -17 3.60000 1.30000   1
 -10  13   2 5.71000 0.88000   1
  10 -13  -2 5.40000 1.07000   1
  -3  12 -13 2.16000 0.96000   1
  11   0 -14 3.27000 1.50000   1
 -11   0  14 2.75000 1.17000   1
 -12   5  11 6.92000 0.98000   1
  12  -5 -11 8.87000 1.51000   1
   5  -2 -16 16.8500 2.09000   1
  -5   2  16 13.7300 1.59000   1
  -8   8  12 7.07000 0.90000   1
  -8   8  12 7.87000 1.54000   1
   8  -8 -12 9.46000 1.70000   1
 -11   9  -5 2.82000 0.80000   1
  -5  16  -3 8.00000 1.21000   1
  -5  16  -3 8.59000 1.39000   1
   6   8 -16 1.13000 0.98000   1
   6   8 -16 1.05000 0.82000   1
  -6  -8  16 1.24000 1.03000   1
   6   8 -16 0.07000 1.04000   1
   2   5  12 3.68000 0.96000   1
   2   5  12 1.60000 0.79000   1
  -2  -5 -12 1.85000 0.93000   1
  -2  -5 -12 1.87000 1.17000   1
  13  -5  -9 -0.0500 0.85000   1
  13   3  -7 8.15000 1.30000   1
  13   3  -7 4.24000 1.69000   1
 -13  -3   7 6.81000 1.26000   1
 -10   9  -7 13.6100 1.49000   1
  -2   5  14 7.72000 1.21000   1
   2  -5 -14 7.18000 1.02000   1
   2  -5 -14 4.93000 1.13000   1
  -2   5  14 3.00000 1.02000   1
  -7  15   1 2.27000 1.02000   1
  -4  16  -1 6.40000 1.26000   1
  -4  16  -1 4.12000 1.13000   1
  -6  -3  17 -0.6700 0.81000   1
   6   3 -17 0.50000 0.83000   1
  -8  11  -9 9.22000 1.25000   1
  13   3  -6 18.5600 2.33000   1
 -13  -3   6 14.7600 1.81000   1
  -2   9 -15 0.08000 1.06000   1
   2  -9  15 -0.2800 0.71000   1
 -13   4  -1 11.4400 1.19000   1
   0   9  10 3.33000 1.07000   1
   0   9  10 2.16000 0.85000   1
   0  -9 -10 2.42000 0.99000   1
   0  -9 -10 0.64000 1.09000   1
 -11  -2  14 11.2300 1.51000   1
  11   2 -14 8.30000 1.71000   1
  12   3 -12 1.10000 1.17000   1
 -12  -3  12 4.01000 1.28000   1
  -1  14 -12 9.14000 1.90000   1
 -11   1  -5 2.38000 1.05000   1
  11  -1   5 1.93000 0.98000   1
 -11  12   2 0.99000 0.61000   1
  -1   5 -16 2.49000 1.25000   1
   1  -5  16 2.99000 1.02000   1
  -9  14  -2 0.18000 0.51000   1
 -13   5  -1 10.9700 1.13000   1
  -4  11 -13 7.35000 1.20000   1
  -6  -4  17 2.24000 1.16000   1
   6   4 -17 2.60000 1.29000   1
   6  13  -4 5.76000 1.51000   1
   6  13  -4 1.78000 1.06000   1
  -4   3 -14 0.46000 1.12000   1
   4  -3  14 1.47000 1.06000   1
   9  10  -4 9.97000 1.59000   1
   9  10  -4 10.1300 2.08000   1
   5  11   3 4.02000 1.06000   1
  -5 -11  -3 -0.0800 0.88000   1
   5  11   3 1.85000 1.04000   1
  -1  16  -2 4.24000 1.26000   1
   7   7 -16 9.97000 1.39000   1
   7   7 -16 13.5000 1.98000   1
  -7  -7  16 14.6600 2.07000   1
 -10  -9   9 4.05000 1.30000   1
  10   9  -9 3.63000 1.26000   1
  10   9  -9 1.90000 1.50000   1
  12   5 -10 -0.2000 1.09000   1
  12   5 -10 0.25000 0.99000   1
 -12  -5  10 1.53000 0.96000   1
  13  -1   0 -0.5600 0.90000   1
 -13   1   0 1.60000 0.67000   1
 -11   5  -6 16.6000 1.80000   1
  -5  16  -2 4.51000 1.26000   1
  -5  16  -2 8.37000 1.12000   1
  -5 -14   7 0.59000 1.17000   1
   5  14  -7 1.19000 1.10000   1
  -8   9 -10 6.65000 1.20000   1
  -5  16  -4 1.10000 0.81000   1
  -5  16  -4 0.87000 0.84000   1
   0  13   5 2.01000 1.13000   1
   0 -13  -5 2.13000 1.07000   1
   0  13   5 0.30000 0.83000   1
  -1   6 -16 7.18000 1.38000   1
   1  -6  16 8.46000 1.44000   1
   6  -2 -16 -0.5400 1.07000   1
  -6   2  16 -0.3000 0.73000   1
  -4  16  -6 11.8500 1.63000   1
  -4  16  -6 8.05000 1.19000   1
   1  -6 -13 0.81000 0.90000   1
   1  -6 -13 0.40000 0.92000   1
  -1   6  13 0.50000 0.87000   1
  -1   6  13 1.90000 0.91000   1
  13  -7  -7 13.9300 1.64000   1
   8   6   5 8.18000 1.28000   1
  -8  -6  -5 1.94000 1.04000   1
 -13  -2   3 4.51000 0.75000   1
  13   2  -3 -0.1600 1.02000   1
  13   2  -3 0.96000 0.89000   1
  10   7 -13 5.65000 1.55000   1
 -10  -7  13 4.87000 1.57000   1
  10   7 -13 9.16000 1.65000   1
   9   6 -15 1.93000 1.27000   1
  -9  -6  15 0.72000 1.12000   1
  10   0 -15 1.26000 1.34000   1
 -10   0  15 2.76000 1.06000   1
  -5   2 -13 -0.1000 0.95000   1
   5  -2  13 0.05000 0.86000   1
 -11   6  -6 13.5600 1.67000   1
  -5  15  -8 1.41000 1.08000   1
   9 -14  -1 -0.3100 0.74000   1
  -9  14   1 0.01000 0.56000   1
 -12   9   7 2.86000 0.88000   1
  12  -9  -7 3.90000 1.21000   1
   0 -10  -9 0.30000 1.03000   1
   0 -10  -9 3.39000 1.03000   1
   0  10   9 0.70000 0.81000   1
   0  10   9 2.87000 1.10000   1
  -7  -9  -3 3.05000 1.27000   1
   7   9   3 3.72000 1.18000   1
   7   9   3 2.96000 1.25000   1
  -3 -15   8 0.19000 0.83000   1
   3  15  -8 0.10000 0.87000   1
   2   5 -17 5.03000 1.30000   1
   2   5 -17 7.46000 1.22000   1
  -2  -5  17 4.09000 1.35000   1
  -3  16  -7 -0.9400 0.68000   1
  -3  16  -7 2.08000 0.86000   1
   5  14  -6 13.6000 2.04000   1
  -5 -14   6 15.7400 1.96000   1
 -10  -3  15 3.55000 1.27000   1
  10   3 -15 1.05000 1.41000   1
   1 -12  14 1.13000 0.86000   1
  -1  12 -14 4.47000 0.98000   1
  -1  12 -14 3.72000 1.34000   1
  -7   4  15 1.12000 0.94000   1
   7  -4 -15 1.47000 1.02000   1
  -5  14   5 1.83000 0.97000   1
   5 -14  -5 1.19000 1.09000   1
   0  16  -7 3.89000 1.39000   1
   0  16  -7 11.1700 1.58000   1
  -2 -14  12 1.41000 0.97000   1
   2  14 -12 1.84000 0.91000   1
   2  14 -12 -0.3800 1.25000   1
 -12  10   5 7.60000 1.08000   1
  12 -10  -5 6.20000 1.14000   1
  11   6 -12 -0.2400 1.24000   1
  11   6 -12 -0.1100 1.03000   1
 -11  -6  12 2.23000 1.03000   1
   2   4 -17 4.76000 1.30000   1
  -2  -4  17 5.38000 1.39000   1
   2   4 -17 5.88000 1.13000   1
   1   0 -16 6.67000 1.19000   1
   1   0 -16 8.60000 1.15000   1
  -1   0  16 6.19000 1.39000   1
  -4  15  -9 0.37000 0.99000   1
   6   1  11 6.13000 1.41000   1
  -6  -1 -11 3.34000 1.33000   1
   4 -14  -5 3.61000 1.42000   1
  -4  14   5 5.96000 1.07000   1
  -4   2  16 -0.2400 0.92000   1
  -4   2  16 0.88000 0.79000   1
   4  -2 -16 1.03000 0.98000   1
  -1  -6 -12 0.94000 0.84000   1
  -1  -6 -12 -0.1200 0.73000   1
   1   6  12 -0.1100 0.75000   1
   1   6  12 -0.4200 0.63000   1
   7  10 -14 -0.4200 0.97000   1
   7  10 -14 -0.2700 0.84000   1
   7  10 -14 -0.2500 1.01000   1
  -7 -10  14 -0.7200 1.15000   1
  -9   8  -9 15.9100 1.85000   1
  -2  16  -1 2.43000 1.09000   1
   4  14  -2 7.40000 1.17000   1
   4  14  -2 9.83000 1.78000   1
  -5  -6  17 -1.2600 0.92000   1
   5   6 -17 0.27000 0.85000   1
   5   6 -17 2.19000 0.86000   1
  13   3  -8 12.3200 1.68000   1
 -13  -3   8 13.7800 1.91000   1
  13   3  -8 13.1700 2.20000   1
  10   8  -2 1.25000 1.10000   1
  10   8  -2 1.55000 1.10000   1
   2 -10 -10 3.18000 1.13000   1
   2 -10 -10 0.45000 0.90000   1
  -2  10  10 1.51000 1.05000   1
  -2  10  10 0.60000 0.69000   1
  11  -8 -10 5.29000 1.52000   1
  -3  -4 -12 1.72000 0.79000   1
   3   4  12 4.89000 1.23000   1
  -3  -4 -12 4.12000 1.34000   1
  -6  -2  17 9.96000 1.52000   1
   6   2 -17 11.7400 1.79000   1
   1  -4  16 5.35000 1.35000   1
  -1   4 -16 7.16000 1.31000   1
   2  12   5 0.88000 0.81000   1
   2  12   5 -0.2900 0.97000   1
  -2   9  11 10.3600 1.69000   1
   2  -9 -11 11.1800 1.62000   1
   2  -9 -11 14.4700 1.55000   1
  -2   9  11 9.09000 1.41000   1
  -5   6  14 1.69000 0.74000   1
  -5   6  14 0.77000 1.10000   1
   5  -6 -14 2.36000 1.18000   1
  -2   1  16 9.50000 1.34000   1
  -2   1  16 7.51000 1.12000   1
   2  -1 -16 7.73000 1.30000   1
   2  -1 -16 7.18000 1.46000   1
   8   5   6 0.49000 1.06000   1
  -8  -5  -6 1.09000 0.92000   1
 -11  -1  -4 5.54000 1.30000   1
  11   1   4 10.2100 1.38000   1
   5  13  -1 -0.0500 1.12000   1
   5  13  -1 0.81000 0.87000   1
   3   2 -17 0.79000 0.86000   1
  -3  -2  17 -0.0500 0.94000   1
   3   2 -17 0.22000 0.68000   1
 -13   3  -1 5.82000 0.89000   1
   3  -7 -13 9.29000 1.55000   1
  -3   7  13 7.34000 1.29000   1
  -3   7  13 8.42000 1.37000   1
   3  15  -4 8.52000 1.45000   1
  -3 -15   4 6.06000 1.52000   1
 -10   8  11 8.85000 1.28000   1
  10  -8 -11 8.48000 1.83000   1
   6  -6 -14 19.0400 2.20000   1
  -6   6  14 15.6900 1.92000   1
  -6   6  14 17.2200 1.71000   1
   0  -8 -11 0.46000 1.02000   1
   0   8  11 3.92000 1.02000   1
   0   8  11 1.55000 0.90000   1
   0  -8 -11 0.23000 1.04000   1
  10  -9 -10 0.07000 1.30000   1
 -10   9  10 6.33000 1.03000   1
   8   9 -14 1.88000 1.00000   1
   8   9 -14 0.36000 1.28000   1
   8   9 -14 0.40000 0.85000   1
  -8  -9  14 1.03000 1.34000   1
 -12   5  -4 3.82000 0.90000   1
  -7  12   8 1.85000 0.98000   1
   7 -12  -8 0.36000 1.03000   1
   3  12   4 0.84000 0.81000   1
   3  12   4 -0.9700 0.98000   1
  -4  -8  -8 -0.2700 0.80000   1
   4   8   8 0.70000 0.68000   1
   4   8   8 -0.2500 0.73000   1
 -13  -3   5 0.47000 0.93000   1
  13   3  -5 0.32000 1.11000   1
  -4 -12  14 11.0900 1.78000   1
   4  12 -14 8.70000 1.31000   1
   4  12 -14 2.70000 1.66000   1
   4  12 -14 5.83000 1.74000   1
  -5 -14   8 -0.1800 1.11000   1
   5  14  -8 -0.4000 1.00000   1
  11  -1 -14 3.99000 1.83000   1
 -11   1  14 8.57000 1.19000   1
 -11   4  -6 6.85000 1.35000   1
  -7  15  -5 5.90000 0.97000   1
  10   9  -5 7.35000 1.63000   1
  10   9  -5 1.83000 1.16000   1
   8   7   4 10.8100 1.76000   1
  -8  -7  -4 8.19000 1.38000   1
   8   7   4 10.1300 1.53000   1
   0  11 -15 5.33000 1.55000   1
   0 -11  15 7.11000 1.17000   1
   0  11 -15 4.52000 1.13000   1
   3 -12  -8 11.7600 1.42000   1
  -3  12   8 10.3300 1.61000   1
  -3  12   8 6.22000 0.96000   1
  12  -1   3 -0.3100 0.80000   1
 -12   1  -3 2.32000 0.74000   1
   0  16  -3 9.03000 1.54000   1
 -11  -5  13 0.35000 1.11000   1
  11   5 -13 -0.0900 1.00000   1
  11   5 -13 1.15000 1.26000   1
   8  -2  10 1.67000 0.87000   1
  -8   2 -10 0.24000 0.92000   1
   3  -6  15 0.07000 0.84000   1
  -3   6 -15 -0.7400 1.05000   1
   5   9 -16 1.70000 1.09000   1
   5   9 -16 0.52000 0.94000   1
   5   9 -16 0.19000 0.81000   1
  -5  -9  16 -0.3400 1.14000   1
  -6  -5  17 0.00000 1.09000   1
   6   5 -17 0.56000 1.01000   1
  -1  14   4 1.12000 0.83000   1
  -1  14   4 -0.3400 0.59000   1
   0  15   1 16.4900 1.90000   1
   0  15   1 18.3300 1.56000   1
   6  13 -10 0.85000 1.34000   1
  -6 -13  10 5.57000 1.28000   1
  -3   5 -15 12.0200 1.82000   1
   3  -5  15 8.51000 1.55000   1
   2   6 -17 0.27000 0.89000   1
   2   6 -17 3.39000 1.02000   1
  -2  -6  17 0.58000 1.11000   1
   5   1  12 2.27000 1.11000   1
  -5  -1 -12 1.00000 1.16000   1
   8 -11  -9 9.77000 1.66000   1
  -8  11   9 9.60000 1.46000   1
  11  -7 -11 1.54000 1.11000   1
   3  14   0 0.49000 0.73000   1
   3  14   0 1.06000 1.11000   1
   9   9  -1 3.92000 1.21000   1
   9   9  -1 2.49000 1.47000   1
  -9   3  -9 10.6800 1.48000   1
   9  -3   9 8.48000 1.33000   1
   7   1  10 7.81000 1.47000   1
  -7  -1 -10 4.32000 1.43000   1
 -12   6  -4 0.04000 0.69000   1
   4  11 -15 8.01000 1.41000   1
   4  11 -15 3.19000 1.12000   1
  -4 -11  15 4.77000 1.48000   1
   4  11 -15 -0.0800 1.26000   1
  10   7   0 -1.3300 0.91000   1
  10   7   0 1.60000 1.00000   1
 -10  -7   0 0.83000 0.88000   1
 -11   4  13 8.51000 1.17000   1
  11  -4 -13 3.82000 1.83000   1
  -7  -9  15 3.90000 1.69000   1
   7   9 -15 4.58000 1.43000   1
   7   9 -15 2.93000 1.44000   1
   7   9 -15 8.10000 1.51000   1
   1  -7  16 2.04000 1.07000   1
  -1   7 -16 1.80000 1.28000   1
 -11   7  -6 0.66000 0.76000   1
   5   8   7 0.81000 1.03000   1
   5   8   7 1.99000 0.96000   1
  -5  -8  -7 0.12000 1.14000   1
 -12   4  -4 17.2100 1.65000   1
   5  14  -5 10.0500 1.96000   1
  -5 -14   5 10.1800 1.66000   1
 -11   9   9 7.06000 1.17000   1
  11  -9  -9 1.64000 1.13000   1
   7  12  -3 12.6100 1.84000   1
   7  12  -3 11.2700 2.17000   1
 -11  12   3 3.93000 0.80000   1
  11 -12  -3 4.15000 0.98000   1
   8  11 -11 2.13000 1.35000   1
   8  11 -11 1.62000 1.66000   1
  -8 -11  11 8.68000 1.46000   1
   3   0  14 -0.1600 0.95000   1
  -3   0 -14 -2.6200 1.08000   1
   5   1 -17 2.67000 1.38000   1
  -5  -1  17 4.53000 1.11000   1
   4   9   7 2.57000 1.13000   1
  -4  -9  -7 -0.1300 1.23000   1
   4   9   7 3.49000 1.08000   1
  10   8 -12 10.8600 1.87000   1
  10   8 -12 10.5600 2.20000   1
 -10  -8  12 12.5800 2.06000   1
  10   6 -14 0.42000 1.28000   1
  10   6 -14 0.93000 1.09000   1
 -10  -6  14 0.63000 0.92000   1
   1  15   0 9.14000 1.82000   1
   1  15   0 13.8700 1.31000   1
  13  -4 -10 4.01000 1.52000   1
 -11  -3  14 1.23000 1.16000   1
  11   3 -14 1.52000 1.31000   1
   2   3 -17 1.91000 0.92000   1
  -2  -3  17 0.97000 1.03000   1
   2   3 -17 3.14000 0.98000   1
  -5  16  -1 5.58000 1.03000   1
  -5  16  -1 2.95000 0.92000   1
   8  11  -3 0.00000 1.01000   1
   8  11  -3 1.60000 1.24000   1
  -8   1  16 5.41000 1.27000   1
   8  -1 -16 3.83000 1.21000   1
  -6  -3 -10 13.0100 1.76000   1
   6   3  10 15.8800 1.89000   1
  -5  16  -5 9.09000 1.18000   1
  -5  16  -5 10.2400 1.60000   1
  -6  15  -7 2.14000 1.07000   1
  -5  -7  -8 3.01000 1.13000   1
   5   7   8 4.01000 1.10000   1
   5   7   8 2.06000 0.91000   1
  -1  16  -8 1.32000 0.92000   1
  -1  16  -8 0.11000 1.14000   1
  -6  13 -10 7.01000 1.35000   1
 -12  -2  -1 0.11000 0.70000   1
  12   2   1 0.61000 0.78000   1
   4   7   9 6.86000 1.07000   1
  -4  -7  -9 0.98000 0.93000   1
   4   7   9 2.75000 0.89000   1
  -4  -7  -9 0.92000 1.22000   1
  -4  15   3 1.23000 0.89000   1
   4 -15  -3 0.96000 1.23000   1
   2  15 -10 -0.1700 0.95000   1
   2  15 -10 0.52000 1.08000   1
  -2 -15  10 0.35000 0.78000   1
  13   2 -10 2.63000 1.30000   1
 -13  -2  10 2.36000 1.21000   1
   6 -14  -5 4.81000 1.57000   1
  -6  14   5 4.82000 1.13000   1
  -5  -3 -11 13.7700 1.95000   1
   5   3  11 15.9900 2.05000   1
  -9  14  -3 6.77000 0.92000   1
   3   7 -17 8.16000 1.43000   1
  -3  -7  17 12.2300 1.90000   1
   3   7 -17 13.8300 1.77000   1
   8  -7 -13 3.97000 1.40000   1
  -8   7  13 3.14000 1.28000   1
  -8   7  13 2.53000 0.78000   1
  -9   0  -8 0.91000 0.97000   1
   9   0   8 0.74000 1.00000   1
   4   1 -17 1.47000 1.41000   1
  -4  -1  17 6.49000 1.21000   1
 -10  13   3 2.33000 0.90000   1
  10 -13  -3 3.21000 1.01000   1
 -12  -3   0 0.86000 0.75000   1
  12   3   0 1.24000 1.07000   1
   4   7 -17 -1.5000 0.84000   1
  -4  -7  17 -0.3100 1.02000   1
   4   7 -17 1.14000 0.90000   1
   9   2 -16 2.59000 1.43000   1
  -9  -2  16 2.33000 1.18000   1
  -5  13 -11 8.82000 1.31000   1
  -2  11   9 1.40000 0.86000   1
  -2  11   9 2.92000 1.14000   1
   2 -11  -9 1.29000 1.15000   1
  -3  -8  -9 3.63000 0.96000   1
   3   8   9 3.19000 0.96000   1
   3   8   9 3.06000 1.14000   1
  -3  -8  -9 2.66000 1.13000   1
   9 -13  -5 17.8700 2.16000   1
  -9  13   5 11.9700 1.67000   1
   0   1 -16 3.10000 0.98000   1
   0  -1  16 4.20000 1.04000   1
   0   1 -16 1.93000 0.82000   1
  11 -11  -6 7.54000 1.37000   1
 -11  11   6 9.56000 1.29000   1
  -3   4  15 3.00000 1.09000   1
  -3   4  15 3.14000 1.04000   1
   3  -4 -15 4.65000 1.24000   1
   3   9   8 2.78000 1.08000   1
   3   9   8 2.09000 1.05000   1
  -3  -9  -8 1.98000 1.17000   1
  -3  -9  -8 2.91000 0.90000   1
   0  11   8 8.97000 1.64000   1
   0 -11  -8 10.1300 1.53000   1
   0 -11  -8 9.96000 1.62000   1
   0  11   8 9.09000 1.34000   1
   3  -7  15 8.14000 1.36000   1
  -3   7 -15 10.4900 1.68000   1
  -2  16  -8 8.53000 1.62000   1
  -2  16  -8 5.82000 1.14000   1
 -14   2   5 -0.0500 0.60000   1
   8 -13  -6 1.40000 1.35000   1
  -8  13   6 3.74000 1.00000   1
   8  10 -13 11.2000 1.87000   1
   8  10 -13 11.8700 2.16000   1
   8  10 -13 11.1600 1.69000   1
  -8 -10  13 9.83000 1.78000   1
   6  11 -14 7.43000 1.23000   1
   6  11 -14 1.59000 1.30000   1
   6  11 -14 1.50000 1.29000   1
  -6 -11  14 1.34000 1.46000   1
  -6  10 -12 1.24000 0.97000   1
  -5  15   3 3.45000 1.13000   1
   5 -15  -3 2.34000 1.38000   1
   3 -14  -5 4.20000 1.54000   1
  -3  14   5 5.38000 1.33000   1
  -2   1 -15 0.08000 0.98000   1
   2  -1  15 0.55000 0.82000   1
   4  13   1 9.94000 1.75000   1
   4  13   1 6.53000 1.16000   1
  -4   6  14 0.33000 0.83000   1
  -4   6  14 0.71000 0.83000   1
   4  -6 -14 1.26000 0.89000   1
 -13   1  11 2.64000 0.90000   1
  13  -1 -11 1.46000 1.12000   1
 -14   2   6 6.46000 0.96000   1
 -10  11  -6 7.69000 1.27000   1
   1  12   6 0.21000 0.82000   1
   1  12   6 0.80000 1.02000   1
  -1 -12  -6 0.82000 1.02000   1
  -7   2  16 2.24000 0.96000   1
   7  -2 -16 0.82000 1.24000   1
 -10   7  12 12.0800 1.19000   1
  10  -7 -12 16.1700 2.03000   1
   2  -8 -12 10.0400 1.65000   1
  -2   8  12 11.4900 1.68000   1
  -2   8  12 10.7000 1.33000   1
 -12   0  13 0.58000 0.93000   1
  12   0 -13 5.12000 1.42000   1
 -12  -5   3 0.99000 0.91000   1
  12   5  -3 0.81000 1.02000   1
  12   5  -3 1.88000 0.97000   1
   8   6 -16 5.45000 1.49000   1
  -8  -6  16 7.59000 1.78000   1
  -9  12   7 0.91000 0.77000   1
   9 -12  -7 -0.2500 1.09000   1
  10  -1 -15 1.37000 1.31000   1
 -10   1  15 0.68000 1.07000   1
   7  12 -11 8.64000 1.72000   1
  -7 -12  11 6.40000 1.82000   1
  -3  15 -10 1.12000 1.08000   1
  10   9 -10 5.74000 1.61000   1
  10   9 -10 6.45000 1.77000   1
 -10  -9  10 5.76000 1.78000   1
  10 -10  -9 1.49000 1.21000   1
 -10  10   9 1.01000 0.92000   1
  -7  10 -11 1.18000 0.99000   1
  -2  13 -13 7.05000 1.18000   1
  -2  13 -13 6.40000 1.62000   1
   3  -4  15 8.49000 1.52000   1
  -3   4 -15 8.14000 1.75000   1
   8   8 -15 11.8200 2.10000   1
   8   8 -15 14.4600 1.96000   1
  -8  -8  15 13.3100 2.16000   1
   8   8 -15 9.28000 1.43000   1
  -9  14   2 5.47000 1.01000   1
   9 -14  -2 8.17000 1.31000   1
  -6 -10  15 0.02000 1.31000   1
   6  10 -15 0.85000 0.96000   1
   6  10 -15 1.94000 0.91000   1
   6  10 -15 1.93000 1.25000   1
   7  11 -13 2.25000 1.29000   1
  -7 -11  13 2.85000 1.51000   1
   7  11 -13 2.94000 1.53000   1
   7  11 -13 3.25000 1.21000   1
 -13   0  11 1.01000 0.85000   1
  13   0 -11 0.51000 1.13000   1
   5  13 -12 2.40000 1.27000   1
   5  13 -12 4.78000 1.29000   1
  -5 -13  12 -1.3000 1.11000   1
  -9  -3  16 1.43000 1.04000   1
   9   3 -16 1.05000 1.29000   1
   5 -13  -7 0.57000 1.09000   1
  -5  13   7 0.31000 0.76000   1
   0  -9  16 0.68000 0.91000   1
   0   9 -16 -0.0500 0.66000   1
   0   9 -16 0.60000 1.01000   1
  12   6  -7 8.88000 1.81000   1
  12   6  -7 3.79000 1.32000   1
 -12  -6   7 4.17000 1.48000   1
  10   4 -15 -0.6100 1.04000   1
 -10  -4  15 0.53000 0.95000   1
   7  -6 -14 0.75000 0.86000   1
  -7   6  14 0.43000 1.00000   1
  -7   6  14 0.20000 0.65000   1
  -1  15   2 12.4300 1.46000   1
   4  -9  14 9.02000 1.19000   1
  -4   9 -14 13.8800 1.73000   1
   1  16  -6 12.0900 1.72000   1
 -11  -7  11 13.3500 1.97000   1
  11   7 -11 13.1800 2.20000   1
  11   7 -11 9.78000 2.20000   1
 -10  -1  -6 2.02000 1.04000   1
  10   1   6 1.66000 1.13000   1
  13   3  -9 9.40000 1.73000   1
  13   3  -9 9.86000 1.66000   1
 -13  -3   9 14.0700 1.63000   1
  12   1 -13 0.83000 1.20000   1
 -12  -1  13 0.75000 0.90000   1
  10  -1   7 8.38000 1.44000   1
 -10   1  -7 7.07000 1.33000   1
  -1   3 -16 8.83000 1.70000   1
   1  -3  16 7.49000 1.51000   1
   1  16  -5 8.18000 1.55000   1
   9   1 -16 4.74000 1.76000   1
  -9  -1  16 8.78000 1.53000   1
  -9 -10  11 1.44000 1.40000   1
   9  10 -11 3.32000 1.16000   1
   9  10 -11 1.08000 1.44000   1
  -6  -1  17 7.22000 1.35000   1
   6   1 -17 3.93000 1.46000   1
   5   9   6 1.71000 0.88000   1
   5   9   6 -0.1300 0.85000   1
  -5  -9  -6 0.77000 1.06000   1
  11   6  -1 4.57000 1.40000   1
  11   6  -1 3.05000 1.26000   1
 -11  -6   1 6.32000 1.07000   1
  -3 -15   9 10.9400 1.57000   1
   3  15  -9 10.6000 1.82000   1
  11   7  -3 5.29000 1.31000   1
  11   7  -3 0.89000 1.24000   1
   4  12   3 2.88000 1.29000   1
   4  12   3 1.49000 1.05000   1
   1   3  14 1.66000 1.00000   1
  -1  -3 -14 0.94000 0.75000   1
  -1  -3 -14 2.30000 0.93000   1
  -5  14 -10 2.45000 1.16000   1
  -2  14 -12 13.2100 1.85000   1
  -9  12  -7 19.1800 2.00000   1
  -4  16   0 2.29000 1.08000   1
   0  16  -8 0.81000 1.20000   1
   0  16  -8 7.95000 1.35000   1
 -10  13  -3 1.28000 0.66000   1
  -9  -8  -1 -0.1300 0.87000   1
   9   8   1 -1.2800 0.90000   1
   9   8   1 0.45000 0.99000   1
  -8  15  -1 0.57000 0.63000   1
  -8  -4  -7 2.63000 1.25000   1
   8   4   7 10.4600 1.44000   1
  -5 -14   9 -0.5200 1.11000   1
   5  14  -9 1.14000 1.09000   1
  -3  15   3 1.34000 1.08000   1
  -9   5  14 -0.1500 0.76000   1
   9  -5 -14 -1.1800 1.14000   1
  12   6  -8 5.00000 1.50000   1
  12   6  -8 8.40000 1.91000   1
 -12  -6   8 9.51000 1.58000   1
  -3  16   0 2.90000 1.14000   1
  13  -2   1 0.95000 0.76000   1
 -13   2  -1 1.43000 0.75000   1
   2  10 -16 1.48000 1.15000   1
   2  10 -16 2.96000 1.38000   1
  -2 -10  16 2.80000 1.25000   1
  12   1   2 0.27000 0.87000   1
 -12  -1  -2 1.62000 0.90000   1
 -10   6  -8 2.86000 1.15000   1
  12  -4 -12 6.03000 1.64000   1
 -12   4  12 3.91000 0.91000   1
 -11   3  -6 0.69000 0.88000   1
  11  -3   6 0.27000 0.84000   1
  -4 -14  11 0.81000 1.08000   1
   4  14 -11 0.25000 1.06000   1
   4  14 -11 -0.0900 1.15000   1
 -12   7  -4 2.10000 0.84000   1
  -8  14  -6 6.36000 1.01000   1
  -8  15  -2 2.19000 0.69000   1
  -8  15  -2 2.59000 0.71000   1
   0   2  15 -0.1200 0.99000   1
   0  -2 -15 2.09000 0.79000   1
   0  -2 -15 1.48000 0.87000   1
  -9   3  15 5.08000 1.05000   1
   9  -3 -15 1.87000 1.32000   1
  -3 -10  16 4.62000 1.40000   1
   3  10 -16 3.50000 1.14000   1
   3  10 -16 4.91000 1.26000   1
   3  10 -16 2.98000 1.20000   1
 -10  12  -5 3.12000 1.02000   1
  -3   2  16 6.12000 1.12000   1
  -3   2  16 9.17000 1.16000   1
   3  -2 -16 5.44000 1.43000   1
  -6  14  -9 1.83000 1.14000   1
 -13   2  11 -0.2700 0.89000   1
  13  -2 -11 3.20000 1.16000   1
 -12   1  13 8.60000 1.41000   1
  12  -1 -13 7.54000 1.82000   1
 -14   2   4 2.26000 0.76000   1
  -9  -2  -7 0.64000 0.79000   1
   9   2   7 -0.1200 0.83000   1
  -7  13  -9 1.55000 1.04000   1
 -10   5  -8 1.64000 1.02000   1
  13   3  -4 7.84000 1.41000   1
 -13  -3   4 4.17000 1.39000   1
 -13  -3   4 5.70000 1.04000   1
   0  -4 -14 0.75000 0.74000   1
   0   4  14 1.13000 0.67000   1
   0  -4 -14 0.96000 0.95000   1
   0   4  14 -0.1100 0.93000   1
  12   6  -6 0.17000 0.97000   1
  12   6  -6 0.83000 1.15000   1
 -12  -6   6 -0.1100 1.01000   1
  -7  -3  17 2.01000 0.95000   1
   7   3 -17 0.93000 1.20000   1
 -12   3  -4 8.33000 1.07000   1
  12  -3   4 6.07000 1.05000   1
  -9  -8  14 -1.5200 1.22000   1
   9   8 -14 -0.7900 1.02000   1
   9   8 -14 0.23000 0.75000   1
   9   8 -14 -0.1500 0.90000   1
   4 -13  -7 -0.6300 1.12000   1
  -4  13   7 -0.5900 0.99000   1
  -7  15   2 12.0300 1.67000   1
   7 -15  -2 11.8800 1.70000   1
  -7  -3  -9 12.7300 1.86000   1
   7   3   9 10.0200 1.83000   1
  -6  12 -11 1.57000 1.07000   1
   0  15 -11 5.22000 1.60000   1
   0  15 -11 5.93000 1.14000   1
  -2  -7  17 3.64000 1.37000   1
   2   7 -17 2.67000 1.15000   1
   2   7 -17 6.14000 1.26000   1
  -8  -8  -3 8.52000 1.35000   1
   8   8   3 10.8300 1.51000   1
   8   8   3 12.8000 1.78000   1
   4  -2  14 1.18000 0.93000   1
  -4   2 -14 0.80000 1.20000   1
   4  13 -13 2.59000 1.44000   1
  -4 -13  13 1.15000 1.20000   1
   4  13 -13 5.54000 1.32000   1
   4  13 -13 3.31000 1.38000   1
   6  -1  12 5.34000 1.25000   1
  -6   1 -12 1.71000 1.34000   1
  13   1  -1 -0.0200 0.73000   1
 -13  -1   1 -0.1700 0.59000   1
  -6  -7  -7 0.07000 0.99000   1
   6   7   7 -0.5600 0.92000   1
   6   7   7 0.91000 0.75000   1
  -6  13   7 8.28000 1.52000   1
   6 -13  -7 12.6900 1.96000   1
 -14   2   7 8.45000 1.12000   1
  -1  16  -1 10.7900 1.62000   1
  10  -4 -14 2.33000 1.25000   1
 -10   4  14 0.09000 0.71000   1
  -4  16  -7 0.33000 0.67000   1
  -4  16  -7 1.48000 1.04000   1
   6  13  -3 2.99000 1.54000   1
   6  13  -3 7.11000 1.32000   1
  -5  -6  -9 6.23000 1.60000   1
   5   6   9 9.10000 1.34000   1
 -12   9  -3 2.27000 0.71000   1
  11  -6 -12 1.32000 1.19000   1
 -11   6  12 1.89000 0.68000   1
   0  -7 -12 0.62000 0.75000   1
   0  -7 -12 -0.1200 0.78000   1
   0   7  12 -0.0900 0.87000   1
   0   7  12 0.81000 0.75000   1
 -14   1   6 1.57000 0.83000   1
  10 -12  -6 0.87000 0.92000   1
 -10  12   6 0.55000 0.76000   1
   3   7  10 12.2900 1.58000   1
  -3  -7 -10 10.0200 1.32000   1
   3   7  10 13.1200 1.61000   1
  -3  -7 -10 11.3000 1.81000   1
  -8  14   4 18.8500 1.78000   1
   8 -14  -4 15.0100 2.19000   1
   6   6 -17 10.5300 1.69000   1
  -6  -6  17 5.99000 1.49000   1
   1  16  -7 0.72000 0.88000   1
  11  -2 -14 7.43000 1.98000   1
 -11   2  14 8.07000 1.24000   1
   7  11   0 10.6800 1.38000   1
   7  11   0 9.19000 1.69000   1
   3  15  -3 1.98000 0.85000   1
   3  15  -3 3.43000 1.18000   1
  -7   1 -11 2.66000 1.31000   1
   7  -1  11 2.85000 1.24000   1
   3  10   7 0.33000 1.00000   1
   3  10   7 6.06000 1.15000   1
  -3 -10  -7 0.58000 1.02000   1
  -5  10 -13 0.82000 0.91000   1
 -14   1   5 6.40000 1.19000   1
   3  14 -12 2.24000 1.06000   1
   3  14 -12 0.62000 1.24000   1
  -3 -14  12 0.56000 1.21000   1
   2  15  -1 6.35000 1.71000   1
   2  15  -1 8.10000 1.12000   1
  12   4  -1 2.02000 0.99000   1
 -12  -4   1 1.00000 0.81000   1
   7   4 -17 1.36000 1.22000   1
  -7  -4  17 1.79000 1.10000   1
   5   7 -17 7.62000 1.21000   1
  -5  -7  17 6.02000 1.60000   1
   5   7 -17 4.15000 1.39000   1
   4  10   6 2.98000 1.11000   1
  -4 -10  -6 2.17000 1.18000   1
   4  10   6 5.08000 1.07000   1
   4   3  12 18.0400 2.29000   1
  -4  -3 -12 22.7600 2.43000   1
   4   1  13 1.80000 1.13000   1
  -4  -1 -13 1.25000 1.17000   1
  -9   9  -9 1.06000 0.99000   1
   6   8   6 6.24000 1.09000   1
  -6  -8  -6 1.12000 1.08000   1
   6   8   6 1.84000 1.02000   1
   1  -3 -15 0.38000 0.69000   1
   1  -3 -15 -0.1400 0.67000   1
  -1   3  15 0.61000 0.77000   1
  -1   3  15 -0.0800 0.61000   1
   9  10  -3 -0.3100 1.09000   1
   9  10  -3 2.09000 1.00000   1
   9  -9 -11 5.15000 1.57000   1
  -9   9  11 5.31000 1.23000   1
  -7  -2  17 3.38000 1.17000   1
   7   2 -17 10.1700 1.45000   1
  -8  15   0 0.80000 0.71000   1
  12   4 -12 1.48000 1.04000   1
 -12  -4  12 0.05000 1.14000   1
 -13  -1  11 3.27000 1.18000   1
  13   1 -11 1.09000 1.32000   1
   1  16  -4 4.18000 1.26000   1
   8  -4 -15 9.82000 1.81000   1
  -8   4  15 8.33000 1.22000   1
  12  -7 -10 3.60000 1.40000   1
   5  14  -4 2.36000 1.04000   1
   5  14  -4 -0.0200 0.92000   1
  -1  13   6 1.96000 1.21000   1
  -1  13   6 2.28000 0.88000   1
   1 -13  -6 1.07000 1.18000   1
   9   9 -13 6.55000 1.18000   1
   9   9 -13 8.17000 1.82000   1
  -9  -9  13 2.37000 1.71000   1
   9   9 -13 5.35000 1.33000   1
   0  16  -2 9.44000 1.59000   1
 -11   8  -6 -0.1900 0.76000   1
 -11  10   8 1.58000 0.95000   1
  11 -10  -8 1.20000 0.99000   1
  -1  15 -11 7.68000 1.28000   1
  -1  15 -11 0.81000 0.91000   1
  10   9  -4 4.87000 1.39000   1
  10   9  -4 2.86000 1.66000   1
  12   5 -11 1.21000 1.34000   1
 -12  -5  11 8.85000 1.31000   1
  12   5 -11 2.11000 1.68000   1
   3   1 -17 0.29000 0.73000   1
   3   1 -17 0.46000 0.86000   1
  -3  -1  17 0.96000 1.04000   1
 -10   7  -8 6.60000 1.13000   1
   1  -8  16 0.85000 0.96000   1
  -1   8 -16 2.04000 1.22000   1
  11   8  -7 7.07000 1.35000   1
  11   8  -7 5.40000 1.70000   1
 -11  -8   7 4.83000 1.54000   1
  -6  16  -3 0.88000 0.71000   1
  -6  16  -3 0.17000 0.71000   1
   1   5 -17 2.55000 0.92000   1
   1   5 -17 3.02000 1.21000   1
  -1  -5  17 2.55000 1.28000   1
  -9  11  -8 10.9300 1.56000   1
   2   2 -17 1.56000 0.94000   1
  -2  -2  17 0.27000 1.21000   1
   2   2 -17 4.67000 0.95000   1
   8   1   9 3.11000 1.42000   1
  -8  -1  -9 7.34000 1.26000   1
  -9  -4  16 10.2500 1.54000   1
   9   4 -16 11.9400 2.03000   1
  -6  16  -2 3.42000 0.84000   1
  -6  16  -2 2.06000 0.80000   1
  12   2 -13 1.29000 1.17000   1
 -12  -2  13 1.08000 1.10000   1
 -13   0   0 5.72000 0.94000   1
  13   0   0 1.55000 1.15000   1
  -4  -6 -10 5.95000 1.24000   1
   4   6  10 5.94000 1.03000   1
  -4  -6 -10 1.70000 0.86000   1
  -7  12 -10 0.42000 0.87000   1
  12  -8  -9 8.74000 1.50000   1
  -4  13 -12 6.42000 1.23000   1
  12 -10  -6 1.82000 0.92000   1
 -12  10   6 3.46000 0.90000   1
 -11  -8   8 1.19000 1.20000   1
  11   8  -8 3.32000 1.22000   1
  11   8  -8 0.31000 1.35000   1
  -5  12 -12 2.66000 0.92000   1
  -3  16  -8 0.99000 1.13000   1
  -3  16  -8 0.61000 0.85000   1
  13   2  -2 6.62000 1.13000   1
 -13  -2   2 2.53000 0.91000   1
  -3  11 -14 13.5300 1.76000   1
   6 -15  -3 0.69000 1.14000   1
  -6  15   3 0.46000 0.81000   1
  -4  14 -11 9.22000 1.55000   1
  -8  15  -3 1.97000 0.72000   1
 -14   1   7 3.87000 0.93000   1
  -3   8 -15 2.71000 1.39000   1
   3  -8  15 2.60000 0.94000   1
  13  -6  -9 1.61000 1.04000   1
 -10  10  -7 5.72000 1.00000   1
  -1  -1 -15 0.09000 0.64000   1
   1   1  15 0.65000 0.85000   1
  -1  -1 -15 2.95000 1.00000   1
   1  15 -11 0.58000 0.90000   1
   1  15 -11 1.33000 1.09000   1
  -5  16   0 0.56000 0.97000   1
  -5  16   0 0.91000 0.74000   1
  11 -12  -4 -0.3700 0.75000   1
 -11  12   4 0.05000 0.71000   1
   6  12   0 28.3400 3.11000   1
   6  12   0 27.2800 2.63000   1
  12   6  -9 15.0400 1.94000   1
 -12  -6   9 20.4100 2.37000   1
  12   6  -9 15.5700 2.53000   1
  -5  16  -6 4.06000 1.23000   1
  -5  16  -6 2.65000 0.79000   1
  -8  10 -10 0.83000 0.93000   1
   2   9   9 5.53000 1.06000   1
   2   9   9 4.33000 1.03000   1
  -2  -9  -9 2.75000 0.97000   1
  -2  -9  -9 4.58000 1.36000   1
   2   2  14 7.50000 1.55000   1
  -2  -2 -14 9.06000 1.40000   1
 -10   4  -8 10.7500 1.44000   1
  10  -4   8 8.98000 1.31000   1
 -11  11  -4 12.0200 1.23000   1
  -2  10 -15 2.09000 1.25000   1
   2 -10  15 1.55000 0.92000   1
  -6  -6  -8 3.24000 1.27000   1
   6   6   8 2.77000 1.27000   1
   9   0 -16 4.45000 1.74000   1
  -9   0  16 9.47000 1.55000   1
   1   4 -17 0.77000 0.94000   1
   1   4 -17 0.47000 0.69000   1
  -1  -4  17 -0.1700 1.02000   1
  -9  10  10 8.14000 1.38000   1
   9 -10 -10 4.99000 1.71000   1
 -11  10  -5 -0.3500 0.79000   1
   1  10 -16 0.21000 0.87000   1
  -1 -10  16 0.22000 0.92000   1
 -12  11   3 0.02000 0.48000   1
  13  -7  -8 1.99000 0.97000   1
  -9  13  -6 0.12000 0.66000   1
  -9   8  12 0.84000 1.15000   1
   9  -8 -12 11.5400 1.64000   1
 -11  -4  14 0.66000 1.07000   1
  11   4 -14 -0.0300 1.27000   1
   1   6 -17 3.57000 1.49000   1
   1   6 -17 6.53000 1.10000   1
  -1  -6  17 7.83000 1.29000   1
  -2  16   0 7.40000 1.47000   1
   6  11   2 0.88000 1.07000   1
   6  11   2 2.07000 1.29000   1
 -13   9   4 4.49000 0.78000   1
   4  10 -16 0.18000 0.97000   1
   4  10 -16 0.89000 0.99000   1
   4  10 -16 0.67000 0.96000   1
  -4 -10  16 1.18000 1.12000   1
  -6 -12  13 0.29000 1.41000   1
   6  12 -13 6.35000 1.24000   1
   6  12 -13 0.18000 1.29000   1
   6  12 -13 0.68000 1.11000   1
  -5   1 -13 0.42000 0.96000   1
   5  -1  13 2.00000 1.12000   1
   3  -3  15 0.81000 0.95000   1
  -3   3 -15 3.83000 1.23000   1
  -8  12   8 7.35000 1.23000   1
   8 -12  -8 4.57000 1.54000   1
   7 -14  -5 13.6000 2.01000   1
  -7  14   5 11.8800 1.76000   1
   8  10   0 2.55000 1.29000   1
   8  10   0 1.37000 1.05000   1
  -1  11 -15 2.26000 1.22000   1
   1 -11  15 1.13000 0.82000   1
  -1  11 -15 1.95000 0.80000   1
   9  -2   9 2.01000 0.99000   1
  -9   2  -9 1.83000 0.90000   1
 -10  -5  -3 2.77000 1.13000   1
  10   5   3 3.12000 1.20000   1
  11   8  -6 0.81000 1.09000   1
  11   8  -6 1.24000 1.04000   1
 -11  -8   6 0.62000 0.97000   1
  11   0   5 6.52000 1.42000   1
 -11   0  -5 7.50000 1.44000   1
  -7  15  -6 0.38000 0.70000   1
  -2  12 -14 0.53000 1.04000   1
  -7 -10  -2 4.35000 1.24000   1
   7  10   2 1.72000 1.10000   1
   7  10   2 1.16000 0.98000   1
  -9  14  -4 -0.1000 0.58000   1
 -12  -6   5 3.05000 1.32000   1
  12   6  -5 4.78000 1.57000   1
   2   8  10 3.46000 0.97000   1
   2   8  10 1.14000 0.91000   1
  -2  -8 -10 3.92000 1.27000   1
  -2  -8 -10 2.29000 0.91000   1
   2 -12  -8 3.52000 1.16000   1
  -2  12   8 1.50000 0.69000   1
  -2  12   8 1.18000 1.20000   1
  -6  16  -4 4.92000 0.91000   1
  -6  16  -4 5.23000 1.00000   1
 -12   2  13 2.73000 1.04000   1
  12  -2 -13 3.92000 1.47000   1
 -14   1   4 1.34000 0.82000   1
  10   4   4 2.00000 1.24000   1
 -10  -4  -4 2.16000 1.08000   1
  13  -3 -11 2.07000 1.25000   1
 -13   3  11 0.66000 0.70000   1
  -5   0  17 4.55000 1.22000   1
   5   0 -17 2.94000 1.27000   1
  -7  14  -8 1.94000 1.03000   1
  12  -6 -11 0.56000 1.21000   1
  -5  10  11 1.07000 1.10000   1
   5 -10 -11 1.09000 1.01000   1
  -5  10  11 0.70000 0.75000   1
  -6  16  -1 1.58000 0.81000   1
  -6  16  -1 4.92000 0.90000   1
   6  13 -11 9.33000 1.92000   1
  -6 -13  11 11.5800 1.96000   1
 -14   2   3 0.86000 0.67000   1
   6 -10 -11 1.84000 1.27000   1
  -6  10  11 1.95000 0.70000   1
  -6  10  11 2.40000 1.19000   1
 -10   6  13 11.7900 1.18000   1
  10  -6 -13 6.94000 2.07000   1
   1  13 -14 8.83000 1.21000   1
   1  13 -14 9.68000 1.51000   1
  -1 -13  14 6.50000 1.28000   1
   1  13 -14 9.91000 1.87000   1
  -7  -8  16 12.2700 1.88000   1
   7   8 -16 10.4600 1.49000   1
   7   8 -16 12.9800 1.78000   1
   7   8 -16 12.8800 1.94000   1
   3  -6 -14 5.54000 1.51000   1
  -3   6  14 8.03000 1.47000   1
  -3   6  14 8.56000 1.36000   1
  -7   6 -12 1.54000 1.01000   1
   7  -6  12 1.24000 0.80000   1
   2  10   8 5.70000 1.14000   1
   2  10   8 5.69000 1.03000   1
  -2 -10  -8 1.88000 1.40000   1
  -2 -10  -8 2.41000 1.28000   1
   7   5 -17 1.65000 1.10000   1
  -7  -5  17 2.79000 1.36000   1
  11   8  -9 1.85000 1.32000   1
  11   8  -9 1.84000 1.64000   1
 -11  -8   9 8.11000 1.43000   1
  -2   7  13 8.55000 1.40000   1
  -2   7  13 11.5900 1.59000   1
   2  -7 -13 10.6000 1.67000   1
   2   4  13 6.09000 1.34000   1
  -2  -4 -13 8.77000 1.39000   1
  -2  -4 -13 7.14000 1.25000   1
  10 -11  -8 1.88000 1.05000   1
 -10  11   8 0.81000 1.00000   1
  -9  -7  15 11.6100 1.84000   1
   9   7 -15 4.71000 1.95000   1
   9   7 -15 9.77000 1.62000   1
   3   8 -17 11.6900 1.63000   1
  -3  -8  17 3.07000 1.63000   1
   3   8 -17 6.87000 1.47000   1
  -1  -5 -13 0.80000 0.86000   1
   1   5  13 2.02000 0.81000   1
   1   5  13 0.83000 0.70000   1
  -1  -5 -13 0.93000 0.88000   1
   5  11 -15 0.31000 1.07000   1
   5  11 -15 0.95000 1.09000   1
  -5 -11  15 1.24000 1.15000   1
   5  11 -15 1.12000 1.22000   1
  13  -5 -10 0.11000 1.03000   1
  -2  14   5 0.89000 0.91000   1
   2 -14  -5 0.74000 0.99000   1
  -3  13   7 11.6300 1.62000   1
  -3  13   7 11.0900 1.17000   1
   3 -13  -7 15.7300 1.73000   1
  -7  -1  17 10.3600 1.54000   1
   7   1 -17 9.60000 1.60000   1
   5  10   5 7.53000 1.38000   1
   5  10   5 7.62000 1.38000   1
  -5 -10  -5 5.10000 1.65000   1
   0 -12  -7 0.71000 1.12000   1
   0  12   7 0.72000 0.96000   1
   0  12   7 2.24000 0.72000   1
  10 -13  -4 0.98000 0.87000   1
 -10  13   4 0.71000 0.83000   1
  -1   5  14 1.35000 0.98000   1
  -1   5  14 1.17000 0.97000   1
   1  -5 -14 3.47000 1.05000   1
   1  -5 -14 1.51000 1.01000   1
  11   4   2 -0.6800 0.78000   1
 -11  -4  -2 0.36000 0.78000   1
  -6   9  12 3.83000 0.99000   1
   6  -9 -12 6.83000 1.21000   1
  -6   9  12 3.82000 1.42000   1
   1  16  -8 3.76000 1.28000   1
   1  16  -8 1.01000 1.19000   1
 -14   2   8 5.90000 1.03000   1
   5  -9 -12 2.44000 1.00000   1
  -5   9  12 0.57000 0.75000   1
  -5   9  12 2.42000 1.16000   1
  -2  15   3 8.28000 1.43000   1
   6   9 -16 9.73000 1.75000   1
   6   9 -16 9.61000 1.67000   1
   6   9 -16 8.10000 1.38000   1
  -6  -9  16 5.43000 1.92000   1
   6  -6  13 1.75000 0.86000   1
  -6   6 -13 2.93000 1.21000   1
   4  14  -1 2.18000 0.97000   1
   4  14  -1 0.83000 1.31000   1
  -6  -9  -5 0.97000 0.95000   1
   6   9   5 0.53000 0.77000   1
   6   9   5 0.59000 0.89000   1
 -10   2  15 6.48000 1.25000   1
  10  -2 -15 6.33000 1.75000   1
   8  -1  10 1.20000 1.15000   1
  -8   1 -10 2.07000 1.00000   1
  13   4  -7 8.61000 1.75000   1
  13   4  -7 9.64000 1.47000   1
 -13  -4   7 9.30000 1.51000   1
 -13  -3  10 0.61000 0.90000   1
  13   3 -10 0.87000 1.01000   1
   2  13 -14 11.2600 1.78000   1
  -2 -13  14 6.57000 1.51000   1
   2  13 -14 7.47000 1.27000   1
   2  13 -14 4.64000 1.44000   1
  -1   2 -16 5.30000 1.36000   1
   1  -2  16 2.23000 1.34000   1
 -12   0  -3 4.99000 1.05000   1
  12   0   3 0.85000 0.86000   1
  -1  16  -9 2.56000 1.09000   1
  -1  16  -9 2.82000 1.01000   1
 -12   8  -4 6.58000 1.05000   1
 -13   5  -2 3.55000 0.88000   1
 -14   0   6 3.12000 1.00000   1
   1  14   3 11.5200 1.85000   1
   1  14   3 10.3100 1.37000   1
  12  -9  -8 1.88000 1.30000   1
 -12   9   8 4.32000 1.16000   1
   7  -5  12 5.55000 1.05000   1
  -7   5 -12 6.07000 1.10000   1
  -9  14   3 1.42000 0.77000   1
   9 -14  -3 0.41000 0.85000   1
  -8  15   1 4.41000 0.93000   1
   5  12 -14 9.66000 1.94000   1
   5  12 -14 15.2100 2.00000   1
   5  12 -14 18.0100 2.24000   1
  -5 -12  14 17.9700 2.40000   1
   8  -6 -14 1.58000 1.33000   1
  -8   6  14 2.35000 1.28000   1
  -8   6  14 2.43000 0.80000   1
  -7  13   7 0.80000 0.91000   1
   7 -13  -7 0.56000 1.01000   1
   4   0 -17 -0.1200 1.04000   1
  -4   0  17 0.82000 0.90000   1
 -10  -9  11 0.79000 1.21000   1
  10   9 -11 -2.5200 1.30000   1
  10   9 -11 -0.6900 1.28000   1
  11   3   3 1.48000 1.24000   1
 -11  -3  -3 1.60000 0.96000   1
 -10  -5  15 10.8400 1.81000   1
  10   5 -15 9.66000 2.05000   1
  -5 -14  10 4.11000 1.27000   1
   5  14 -10 3.24000 1.40000   1
  -4  -8  17 0.88000 1.20000   1
   4   8 -17 6.15000 1.05000   1
   4   8 -17 1.58000 1.14000   1
  -7   7 -12 0.57000 0.92000   1
  -6   0  17 -0.7800 0.89000   1
   6   0 -17 0.08000 0.96000   1
 -10   8  -8 12.1100 1.41000   1
 -13   4  -2 2.22000 0.75000   1
  -8   2  16 6.32000 1.41000   1
   8  -2 -16 8.55000 1.62000   1
   5  -3 -16 2.92000 1.17000   1
  -5   3  16 1.33000 1.17000   1
  -5   3  16 0.75000 1.02000   1
  12  -2   4 0.46000 0.73000   1
 -12   2  -4 0.76000 0.85000   1
   2  14   2 5.82000 1.05000   1
   2  14   2 7.40000 1.43000   1
  -2  15 -11 5.31000 1.33000   1
   1  16  -3 13.8700 1.85000   1
  -1  -3  17 1.11000 1.11000   1
   1   3 -17 2.97000 1.08000   1
   1   3 -17 0.87000 1.02000   1
  -6   5 -13 1.08000 1.19000   1
   6  -5  13 1.22000 0.81000   1
 -14   1   8 3.01000 1.07000   1
  -1   1  16 3.07000 1.21000   1
   1  -1 -16 2.23000 0.96000   1
   1  -1 -16 3.55000 1.02000   1
  13   4  -6 2.28000 1.18000   1
 -13  -4   6 2.38000 1.23000   1
  -5  11  10 -0.5300 0.51000   1
  -5  11  10 2.67000 0.95000   1
   5 -11 -10 -0.3000 0.93000   1
  11  -2   6 2.95000 0.95000   1
 -11   2  -6 1.40000 1.02000   1
 -10  -6  -2 7.58000 1.37000   1
  10   6   2 4.92000 1.50000   1
 -14   0   7 7.08000 1.40000   1
  13  -1   1 8.62000 1.35000   1
 -13   1  -1 5.45000 1.01000   1
   7  12  -2 2.40000 1.25000   1
   7  12  -2 4.15000 1.04000   1
  -6   3  16 0.09000 0.90000   1
   6  -3 -16 0.73000 1.05000   1
   8  12  -7 17.9500 2.60000   1
  -8 -12   7 15.2400 2.50000   1
   6  -7  13 2.90000 0.82000   1
  -6   7 -13 -1.4800 0.83000   1
  -8  13  -8 8.56000 1.26000   1
  13  -8  -7 6.48000 1.18000   1
 -13  -2  11 1.75000 1.34000   1
  13   2 -11 4.40000 1.39000   1
 -13  -4   8 1.37000 1.12000   1
  13   4  -8 1.13000 0.94000   1
  13   4  -8 -0.0800 1.08000   1
   1   7 -17 2.02000 1.45000   1
  -1  -7  17 3.58000 1.47000   1
   1   7 -17 8.05000 1.17000   1
   8  11 -12 1.59000 1.46000   1
   8  11 -12 0.90000 1.20000   1
  -8 -11  12 2.08000 1.38000   1
   0  13 -14 2.01000 1.03000   1
   0  13 -14 2.27000 1.32000   1
   0 -13  14 1.50000 0.89000   1
  -6  11  10 0.21000 0.98000   1
   6 -11 -10 1.14000 1.07000   1
 -14   0   5 8.85000 1.25000   1
   2  12 -15 0.45000 1.07000   1
   2  12 -15 1.40000 0.83000   1
  -2 -12  15 1.80000 0.94000   1
   2  12 -15 1.30000 1.10000   1
   3  15 -10 4.35000 1.53000   1
  -3 -15  10 1.92000 1.15000   1
   3  15 -10 3.32000 1.31000   1
  -4 -15   7 4.61000 1.21000   1
   4  15  -7 2.92000 1.23000   1
   5  12   2 1.36000 0.91000   1
   5  12   2 -1.0700 0.89000   1
   0  16  -9 4.13000 1.17000   1
   0  16  -9 9.06000 1.55000   1
  -5  15  -9 -1.0300 1.02000   1
  10   8  -1 9.73000 1.47000   1
 -10  -8   1 3.47000 1.24000   1
  10   8  -1 7.42000 1.49000   1
   1 -10 -10 9.35000 1.69000   1
  -1  10  10 10.1300 1.69000   1
  -1  10  10 9.00000 1.41000   1
   1 -10 -10 10.2500 1.52000   1
  -3  -6 -11 3.42000 1.10000   1
  -3  -6 -11 1.37000 0.80000   1
   3   6  11 4.66000 1.16000   1
  -8 -12   8 1.20000 1.24000   1
   8  12  -8 2.04000 1.34000   1
  -6   5  15 3.85000 1.70000   1
   6  -5 -15 11.4300 1.72000   1
  -6   5  15 10.6200 1.44000   1
  -4 -15   6 1.07000 1.19000   1
   4  15  -6 1.90000 1.18000   1
  -5   5  15 1.62000 0.76000   1
  -5   5  15 0.33000 1.11000   1
   5  -5 -15 1.73000 1.04000   1
  13   3  -3 2.53000 1.02000   1
  13   3  -3 2.24000 1.03000   1
 -13  -3   3 1.30000 0.81000   1
   8  11  -2 2.82000 1.72000   1
   8  11  -2 7.30000 1.29000   1
 -12  11   4 4.34000 0.82000   1
  -2   4  15 1.07000 0.87000   1
  -2   4  15 2.74000 1.06000   1
   2  -4 -15 3.42000 1.09000   1
  -8  -3  -8 11.8500 1.78000   1
   8   3   8 15.1600 2.07000   1
   2   8 -17 0.92000 1.13000   1
   2   8 -17 3.00000 0.93000   1
  -2  -8  17 1.16000 1.00000   1
  -8  15  -4 5.07000 0.97000   1
 -11  -6  13 0.53000 1.02000   1
  11   6 -13 -0.3600 1.19000   1
  11   6 -13 0.37000 1.21000   1
 -12  -3  13 3.40000 1.48000   1
  12   3 -13 4.27000 1.64000   1
 -13   9   5 1.29000 0.65000   1
 -13   6  -2 21.3500 1.74000   1
   5   5  10 11.8400 1.62000   1
  -5  -5 -10 4.70000 1.42000   1
  -8  12  -9 0.04000 0.71000   1
   1  -9 -11 0.40000 1.09000   1
   1  -9 -11 2.72000 1.14000   1
  -1   9  11 3.78000 1.16000   1
  -1   9  11 2.46000 1.02000   1
  -2  16  -9 0.29000 0.72000   1
  -2  16  -9 0.29000 0.87000   1
   4 -10 -11 1.83000 1.26000   1
  -4  10  11 2.57000 1.14000   1
  -4  10  11 5.33000 0.85000   1
   9 -11  -9 2.33000 1.40000   1
  -9  11   9 2.97000 1.10000   1
   1  14 -13 0.91000 1.28000   1
  -1 -14  13 0.90000 0.87000   1
   1  14 -13 2.14000 1.03000   1
  -8   6 -11 1.12000 0.96000   1
   8  -6  11 1.02000 0.74000   1
  -3 -11  -6 13.0200 1.96000   1
   3  11   6 10.3800 1.79000   1
   3  11   6 11.3200 1.40000   1
  -1 -12  15 1.70000 0.97000   1
   1  12 -15 3.05000 0.99000   1
   1  12 -15 0.55000 1.27000   1
  10   3   5 5.40000 1.46000   1
 -10  -3  -5 2.99000 1.10000   1
   9   5 -16 5.93000 1.72000   1
  -9  -5  16 5.35000 1.52000   1
 -11  -5  -1 0.39000 0.95000   1
  11   5   1 0.97000 1.10000   1
 -10  13  -4 11.1100 1.39000   1
  -4  12 -13 2.05000 1.05000   1
   7   7   6 1.49000 1.12000   1
  -7  -7  -6 0.90000 1.08000   1
  10  -3   8 3.98000 1.04000   1
 -10   3  -8 3.58000 1.18000   1
  11   8  -5 1.51000 0.96000   1
  11   8  -5 4.83000 1.53000   1
   2  13   4 0.36000 0.73000   1
   2  13   4 0.62000 1.13000   1
  -2 -15  11 2.07000 0.98000   1
   2  15 -11 0.89000 1.13000   1
   2  15 -11 0.13000 1.40000   1
   8   7 -16 4.72000 1.42000   1
  -8  -7  16 3.23000 1.55000   1
  -9   7  13 0.20000 0.59000   1
   9  -7 -13 0.89000 1.15000   1
  -9   7  13 0.00000 1.09000   1
  -7  10  11 -0.2200 0.98000   1
   7 -10 -11 1.20000 0.96000   1
  12   6 -10 1.81000 1.42000   1
 -12  -6  10 4.58000 1.31000   1
  12   6 -10 11.1900 1.85000   1
  -4  10 -14 3.60000 1.30000   1
  12   5  -2 1.21000 1.08000   1
  12   5  -2 -0.3000 1.08000   1
 -12  -5   2 0.39000 0.90000   1
   0  14 -13 12.8400 2.20000   1
   0  14 -13 13.6000 1.86000   1
   9   6   4 0.59000 1.10000   1
  -9  -6  -4 1.01000 0.93000   1
   9   5   5 2.90000 1.38000   1
  -9  -5  -5 5.92000 1.11000   1
  -2  -7 -11 11.1500 1.38000   1
  -2  -7 -11 8.30000 1.42000   1
   2   7  11 7.68000 1.39000   1
   2   7  11 7.40000 1.39000   1
  11  -5 -13 0.90000 1.01000   1
 -11   5  13 0.20000 0.62000   1
  -4  16   1 6.28000 1.41000   1
  -6  -7  17 6.50000 1.65000   1
   6   7 -17 4.58000 1.14000   1
   6   7 -17 9.89000 1.67000   1
   0   0  16 0.29000 1.03000   1
   0   0 -16 1.52000 0.85000   1
   0   0 -16 1.31000 0.85000   1
   6   5   9 8.59000 1.57000   1
  -6  -5  -9 5.34000 1.57000   1
  -6  16  -5 0.94000 0.92000   1
   5  13   0 4.92000 1.76000   1
   5  13   0 9.07000 1.32000   1
   7  -9 -12 0.59000 1.15000   1
  -7   9  12 0.86000 1.00000   1
  -7   9  12 0.63000 0.59000   1
  -9 -11   7 11.8700 2.20000   1
   9  11  -7 11.3100 2.18000   1
  -8 -12   6 0.14000 1.31000   1
   8  12  -6 1.67000 1.24000   1
  -8  -9  -2 3.05000 1.17000   1
   8   9   2 0.69000 0.97000   1
   8   9   2 4.89000 1.08000   1
  -8   5 -11 7.61000 1.19000   1
   8  -5  11 6.11000 1.16000   1
   0  14   4 14.5500 2.01000   1
   0  14   4 14.2600 1.57000   1
  -9 -11   8 1.19000 1.18000   1
   9  11  -8 0.51000 1.36000   1
   4  -9 -12 2.09000 1.15000   1
  -4   9  12 2.55000 0.75000   1
  -4   9  12 0.52000 1.18000   1
  -2   2  16 10.0500 1.33000   1
  -2   2  16 5.20000 1.06000   1
   2  -2 -16 6.85000 1.10000   1
   2  -2 -16 8.78000 1.28000   1
   5  14  -3 2.34000 1.10000   1
   5  14  -3 2.52000 1.23000   1
  -7  -6  -7 2.30000 1.24000   1
   7   6   7 3.87000 1.31000   1
  -4  15 -10 2.84000 1.31000   1
  11  -3 -14 5.39000 1.63000   1
 -11   3  14 3.42000 0.92000   1
  -7 -12  12 1.30000 1.35000   1
   7  12 -12 1.39000 1.36000   1
   7  12 -12 0.88000 1.20000   1
  -8   7 -11 0.65000 0.96000   1
  -6  15  -8 0.62000 0.83000   1
  -3  -3 -13 10.8000 1.77000   1
   3   3  13 8.30000 1.41000   1
  -9   1  16 1.09000 1.02000   1
   9  -1 -16 1.52000 1.33000   1
  11   7 -12 9.35000 1.77000   1
  11   7 -12 10.8100 2.05000   1
 -11  -7  12 8.89000 1.81000   1
  -6  16   0 2.55000 0.83000   1
  -6  16   0 2.98000 0.89000   1
  -7   4 -12 4.74000 1.09000   1
   7  -4  12 4.68000 1.27000   1
  -4   3  16 0.83000 0.85000   1
   4  -3 -16 0.13000 1.02000   1
  -4   3  16 0.46000 0.77000   1
  -4 -11  -5 14.4000 1.90000   1
   4  11   5 13.9200 1.83000   1
   4  11   5 14.3000 1.76000   1
   7  13  -7 4.26000 1.52000   1
  -7 -13   7 7.54000 1.81000   1
  -4 -15   8 16.2400 1.98000   1
   4  15  -8 18.3700 2.28000   1
 -11   9  -6 5.21000 1.11000   1
  -3  14 -12 0.07000 0.82000   1
  -3  14 -12 3.63000 0.97000   1
  -9 -10  12 0.90000 1.43000   1
   9  10 -12 1.19000 1.45000   1
   9  10 -12 1.93000 1.19000   1
 -13   3  -2 4.03000 1.04000   1
 -14   1   3 1.14000 0.78000   1
  -6   8  13 8.23000 1.46000   1
   6  -8 -13 12.0700 1.53000   1
  -6   8  13 9.16000 1.24000   1
   0   6  13 0.52000 0.99000   1
   0  -6 -13 3.31000 0.92000   1
   0  -6 -13 1.90000 1.17000   1
   0   6  13 5.82000 0.95000   1
   3  -9  15 9.89000 1.34000   1
  -3   9 -15 11.8600 1.92000   1
   2   1 -17 1.04000 1.03000   1
  -2  -1  17 0.36000 1.06000   1
   2   1 -17 3.78000 1.02000   1
  10   7 -14 0.11000 1.13000   1
  10   7 -14 0.06000 1.28000   1
 -10  -7  14 1.56000 1.14000   1
   2   0  15 2.08000 1.08000   1
  -2   0 -15 0.36000 0.96000   1
   3  15  -2 2.95000 1.59000   1
   3  15  -2 6.81000 1.15000   1
   1  -9  16 3.51000 0.93000   1
  -1   9 -16 0.05000 1.29000   1
  10   8 -13 1.30000 1.20000   1
 -10  -8  13 0.42000 1.50000   1
  10   8 -13 5.58000 1.53000   1
  -4  11  10 4.95000 1.18000   1
  -4  11  10 3.25000 0.90000   1
   4 -11 -10 3.18000 1.15000   1
   0  10 -16 2.66000 1.49000   1
   0 -10  16 3.13000 1.06000   1
   0  10 -16 4.47000 1.04000   1
  -5   8  13 -0.6600 1.04000   1
   5  -8 -13 0.23000 1.07000   1
  -5   8  13 2.18000 0.79000   1
  -3  16   1 10.0100 1.49000   1
   4  15  -5 2.69000 1.28000   1
  -4 -15   5 4.47000 1.39000   1
   3  12 -15 12.3800 1.91000   1
   3  12 -15 9.26000 1.93000   1
  -3 -12  15 10.1700 1.60000   1
   3  12 -15 8.74000 1.40000   1
  -6  11 -12 8.06000 1.42000   1
  11   7  -2 5.58000 1.34000   1
  11   7  -2 1.13000 1.31000   1
 -11  -7   2 1.77000 1.15000   1
   3  13   3 0.56000 0.98000   1
   3  13   3 3.02000 1.28000   1
 -11  -8  10 0.57000 1.20000   1
  11   8 -10 1.48000 1.38000   1
  11   8 -10 1.25000 1.45000   1
  13   4  -5 2.49000 1.11000   1
 -13  -4   5 0.70000 1.19000   1
  -7 -13   8 2.52000 1.19000   1
   7  13  -8 0.33000 1.14000   1
  -7   8 -12 0.72000 1.01000   1
  -8 -12   9 4.30000 1.68000   1
   8  12  -9 4.68000 1.66000   1
  -6   4 -13 1.68000 1.35000   1
   6  -4  13 4.32000 1.01000   1
  -5   6 -14 3.56000 1.37000   1
   5  -6  14 3.93000 1.03000   1
 -11  -2  -4 4.66000 1.05000   1
  11   2   4 0.19000 1.07000   1
  -2 -11  -7 1.00000 1.24000   1
  -2 -11  -7 2.12000 1.30000   1
   2  11   7 6.77000 1.15000   1
   2  11   7 5.36000 1.36000   1
  -1  11   9 7.66000 1.29000   1
  -1  11   9 12.3600 1.71000   1
   1 -11  -9 7.96000 1.34000   1
 -11  11   7 1.43000 1.01000   1
  11 -11  -7 2.23000 1.15000   1
 -14   0   8 6.86000 1.17000   1
  -4  16  -8 2.26000 1.23000   1
  -2   6 -16 0.55000 1.08000   1
   2  -6  16 0.05000 0.89000   1
   1  15   1 0.88000 1.10000   1
   1  15   1 1.24000 0.71000   1
  12   6  -4 0.94000 1.03000   1
  12   6  -4 3.32000 1.28000   1
   1  13   5 2.38000 0.91000   1
   1  13   5 1.40000 1.20000   1
   0  16  -1 0.76000 1.02000   1
   7   8   5 -0.4100 0.74000   1
   7   8   5 -0.0200 0.81000   1
  -7  -8  -5 0.17000 0.93000   1
   3  13 -14 1.14000 1.17000   1
   3  13 -14 0.89000 1.31000   1
   3  13 -14 4.65000 1.16000   1
  -3 -13  14 3.10000 1.29000   1
  -7  15   3 0.31000 0.89000   1
   7 -15  -3 1.90000 1.05000   1
  -3  13 -13 5.89000 1.35000   1
   2  16  -6 7.45000 1.56000   1
  -2 -16   6 6.95000 1.40000   1
  -7  11 -11 8.78000 1.49000   1
   2  -5  16 10.5800 1.62000   1
  -2   5 -16 11.8900 2.02000   1
  -4  -5 -11 5.85000 1.52000   1
   4   5  11 7.66000 1.54000   1
  10   9  -3 0.54000 1.20000   1
  10   9  -3 0.03000 1.11000   1
  -4   1 -14 1.86000 1.07000   1
   4  -1  14 2.37000 1.28000   1
  -1  16   0 1.38000 1.02000   1
  12  -5 -12 2.11000 1.24000   1
  -2 -14  13 3.58000 1.34000   1
   2  14 -13 11.2100 1.85000   1
   2  14 -13 7.00000 1.27000   1
   5  10 -16 6.00000 1.52000   1
  -5 -10  16 4.55000 1.58000   1
   5  10 -16 11.5300 1.63000   1
   5  10 -16 14.1100 1.93000   1
   0  15   2 0.75000 0.70000   1
   0  15   2 0.43000 1.10000   1
   6  13  -2 0.06000 0.91000   1
   6  13  -2 0.76000 1.13000   1
   5   8 -17 8.68000 1.60000   1
   5   8 -17 5.08000 1.51000   1
  -5  -8  17 6.16000 1.70000   1
   3   1  14 8.91000 1.46000   1
  -3  -1 -14 10.2500 1.77000   1
 -13  -4   9 13.5900 1.97000   1
  13   4  -9 11.0900 2.26000   1
  13   4  -9 13.4500 2.06000   1
  -6  -2 -11 8.91000 1.74000   1
   6   2  11 10.8000 1.85000   1
 -10   0  -7 2.31000 0.98000   1
  10   0   7 1.63000 1.01000   1
  -6   8 -13 1.00000 0.99000   1
 -14   0   4 0.70000 0.77000   1
   7  -5 -15 3.07000 1.23000   1
  -7   5  15 0.93000 1.29000   1
  -7   5  15 1.96000 0.88000   1
  -5  16   1 1.19000 0.80000   1
  -5  16   1 3.15000 1.11000   1
 -12   3  13 0.98000 0.87000   1
  12  -3 -13 0.10000 1.28000   1
  -4   5  15 1.41000 0.81000   1
  -4   5  15 0.12000 0.93000   1
   4  -5 -15 4.53000 1.18000   1
   3  14   1 5.70000 1.65000   1
   3  14   1 7.61000 1.17000   1
  -9  -9   0 1.12000 1.01000   1
   9   9   0 1.24000 1.17000   1
   9   9   0 0.86000 1.04000   1
  -9  10  -9 2.59000 1.04000   1
   7   6 -17 8.34000 1.58000   1
  -7  -6  17 4.20000 1.57000   1
  -7   3  16 0.35000 0.90000   1
   7  -3 -16 0.37000 0.91000   1
  -5  16  -7 -0.5300 0.89000   1
  -7  11  10 5.48000 1.41000   1
   7 -11 -10 6.16000 1.50000   1
  -7 -13   6 5.08000 1.40000   1
   7  13  -6 3.01000 1.67000   1
  -5   5 -14 0.36000 1.09000   1
   5  -5  14 1.13000 0.87000   1
   9  11  -6 0.70000 1.45000   1
  -9 -11   6 1.22000 1.32000   1
  11 -12  -5 3.73000 1.18000   1
 -11  12   5 4.25000 0.92000   1
  -3   0  17 0.66000 0.90000   1
   3   0 -17 0.38000 0.98000   1
  13  -4 -11 3.94000 1.35000   1
   3  -2  15 0.22000 1.02000   1
  -3   2 -15 0.25000 1.04000   1
   9 -13  -6 4.12000 1.54000   1
  -9  13   6 4.18000 1.26000   1
  -8  -3  17 0.49000 1.09000   1
   8   3 -17 1.29000 1.08000   1
  -1   8  12 2.76000 1.04000   1
  -1   8  12 2.78000 1.12000   1
   1  -8 -12 3.23000 1.19000   1
   1  -8 -12 0.33000 1.00000   1
 -14   2   2 1.78000 0.82000   1
   2  16  -7 2.47000 1.35000   1
   9  11  -9 0.28000 1.35000   1
  -9 -11   9 1.64000 1.26000   1
   5  -7  14 -0.0400 0.72000   1
  -5   7 -14 -0.3900 0.98000   1
   7   0 -17 9.25000 1.86000   1
  -7   0  17 11.7500 1.63000   1
   1   9  10 2.77000 0.91000   1
  -1  -9 -10 0.05000 0.98000   1
  -1  -9 -10 1.98000 0.97000   1
   1   9  10 1.42000 1.04000   1
   2  16  -5 2.58000 1.15000   1
  -2 -16   5 1.24000 0.93000   1
   9   1   8 -0.1200 0.89000   1
  -9  -1  -8 0.71000 0.87000   1
  -9  -7  -3 0.36000 0.91000   1
   9   7   3 0.37000 1.02000   1
   9   7   3 -0.1900 0.96000   1
   9   4   6 0.61000 1.09000   1
  -9  -4  -6 0.50000 0.81000   1
  -8  -2  17 -0.0200 0.80000   1
   8   2 -17 -0.5500 1.02000   1
   0  12 -15 16.0600 1.73000   1
   0 -12  15 13.7500 1.83000   1
   0  12 -15 13.4000 2.22000   1
  -4 -14  12 8.71000 1.72000   1
   4  14 -12 12.0400 1.82000   1
   4  14 -12 9.80000 1.79000   1
  11   5 -14 2.93000 1.77000   1
 -11  -5  14 8.57000 1.49000   1
  -5  12   9 1.29000 0.95000   1
   5 -12  -9 1.59000 1.23000   1
  -1 -10  -9 3.24000 1.18000   1
  -1 -10  -9 -0.3300 0.85000   1
   1  10   9 2.74000 1.02000   1
   1  10   9 1.16000 0.85000   1
   1  16  -9 0.76000 1.13000   1
   1  16  -9 7.21000 1.19000   1
  -5  14   6 11.8100 1.76000   1
   5 -14  -6 14.2200 2.08000   1
   9  10  -2 18.3100 2.04000   1
   9  10  -2 19.7100 2.59000   1
 -13   0  12 6.47000 1.24000   1
  13   0 -12 6.61000 1.57000   1
   2  -7  16 0.27000 0.90000   1
  -2   7 -16 0.52000 1.11000   1
   5 -15  -4 3.06000 1.42000   1
  -5  15   4 2.58000 1.13000   1
  -8   4 -11 1.71000 0.90000   1
   8  -4  11 2.37000 0.90000   1
  -5  -2 -12 2.53000 1.03000   1
   5   2  12 0.65000 0.98000   1
   4 -15  -4 3.05000 1.25000   1
  -4  15   4 4.51000 1.29000   1
   1   2 -17 1.40000 1.03000   1
   1   2 -17 2.84000 0.96000   1
  -1  -2  17 1.80000 0.96000   1
  -1  14 -13 3.34000 1.20000   1
  -1  14 -13 7.09000 1.59000   1
 -13   1  12 1.96000 1.02000   1
  13  -1 -12 2.49000 1.19000   1
  -8  14  -7 0.44000 0.90000   1
  -8  15   2 0.90000 0.96000   1
   8 -15  -2 2.59000 1.20000   1
  -7   8  13 1.46000 0.77000   1
   7  -8 -13 -0.4200 1.07000   1
  -7   8  13 -0.3800 0.99000   1
  14  -2  -9 2.95000 1.27000   1
 -14   2   9 6.42000 1.04000   1
 -12  -5  12 0.80000 1.02000   1
  12   5 -12 0.47000 1.32000   1
  12   5 -12 1.01000 1.31000   1
   9  -4 -15 -0.7500 1.04000   1
  -9   4  15 2.28000 0.88000   1
   7   2  10 4.58000 1.47000   1
  -7  -2 -10 3.71000 1.29000   1
  12 -10  -7 11.5700 1.59000   1
 -12  10   7 12.7500 1.50000   1
  -6  12   9 2.10000 1.02000   1
   6 -12  -9 -0.4100 1.31000   1
  10   7   1 0.18000 1.09000   1
  10   7   1 0.38000 1.14000   1
 -10  -7  -1 1.12000 0.98000   1
  -5 -13  13 1.36000 1.30000   1
   5  13 -13 0.89000 0.97000   1
   5  13 -13 -0.1300 1.13000   1
   5  13 -13 2.76000 1.30000   1
  -7 -13   9 3.45000 1.59000   1
   7  13  -9 2.92000 1.35000   1
  -1  13 -14 0.83000 1.08000   1
  -1  13 -14 2.45000 0.91000   1
  -6   0 -12 0.63000 1.29000   1
   6   0  12 4.27000 1.25000   1
  -8   8 -11 1.51000 0.97000   1
   6  10   4 8.85000 1.49000   1
  -6 -10  -4 8.39000 1.58000   1
   6  10   4 9.64000 1.66000   1
   2  -4  16 12.8400 1.71000   1
  -2   4 -16 15.2100 2.10000   1
  14  -1  -9 -0.1400 0.96000   1
 -14   1   9 -0.0700 0.71000   1
  -9  14  -5 12.1900 1.34000   1
  12   3   1 -0.2300 0.84000   1
 -12  -3  -1 0.51000 0.73000   1
  -3  16  -9 3.62000 1.32000   1
  11   1 -15 1.06000 1.30000   1
 -11  -1  15 0.71000 0.92000   1
  -5  11 -13 1.62000 1.01000   1
  -8  -4  17 1.93000 1.14000   1
   8   4 -17 0.98000 1.19000   1
   8  12  -5 19.0900 2.19000   1
   8  12  -5 18.4100 2.70000   1
 -10   9  -8 0.83000 0.96000   1
  -1  -8  17 0.25000 0.96000   1
   1   8 -17 -0.2000 1.02000   1
   1   8 -17 0.43000 0.84000   1
 -14  -1   6 5.24000 1.06000   1
 -13  -1   0 3.64000 0.82000   1
  13   1   0 1.70000 1.17000   1
   7   5   8 13.9900 1.90000   1
  -7  -5  -8 12.0800 1.94000   1
   2  15   0 1.78000 0.84000   1
   2  15   0 4.50000 1.40000   1
  13   2  -1 2.65000 1.35000   1
 -13  -2   1 4.57000 0.91000   1
  -4   8  13 6.55000 1.12000   1
  -4   8  13 3.71000 1.44000   1
   4  -8 -13 3.71000 1.44000   1
   0   5 -17 0.80000 0.68000   1
   0   5 -17 -0.0600 0.87000   1
   0  -5  17 0.26000 0.86000   1
 -14  -1   7 2.63000 0.96000   1
   4 -14  -6 2.07000 1.09000   1
  -4  14   6 1.25000 1.05000   1
  -7 -10  15 5.11000 1.74000   1
   7  10 -15 1.79000 1.49000   1
   7  10 -15 2.98000 1.49000   1
   7  10 -15 7.32000 1.21000   1
  -7   0 -11 12.6700 1.88000   1
   7   0  11 13.4900 1.93000   1
  -2  13   7 2.11000 0.77000   1
  -2  13   7 1.70000 1.19000   1
   2 -13  -7 1.56000 1.09000   1
  11   6   0 2.51000 1.01000   1
  11   6   0 1.06000 1.00000   1
 -11  -6   0 0.97000 1.06000   1
   1  16  -2 0.47000 0.99000   1
 -10  12  -6 8.86000 1.17000   1
   8 -14  -5 0.66000 1.25000   1
  -8  14   5 1.79000 0.84000   1
   4  15  -9 2.91000 1.33000   1
  -4 -15   9 1.73000 1.31000   1
   8  10 -14 4.30000 1.21000   1
  -8 -10  14 2.32000 1.57000   1
   8  10 -14 1.22000 1.31000   1
   8  10 -14 2.02000 1.58000   1
   9  -1   9 -0.0500 0.90000   1
  -9   1  -9 0.37000 0.80000   1
 -11  -2  15 1.53000 1.00000   1
  11   2 -15 0.54000 1.38000   1
 -12   5  -5 12.2000 1.41000   1
 -12  11   5 2.83000 0.75000   1
 -11   8  11 1.41000 1.08000   1
  11  -8 -11 3.41000 1.37000   1
 -13   9   6 4.54000 0.89000   1
   8   9 -15 6.90000 1.23000   1
   8   9 -15 1.80000 1.53000   1
  -8  -9  15 5.65000 1.87000   1
   8   9 -15 6.57000 1.69000   1
   1   8  11 5.36000 1.08000   1
  -1  -8 -11 4.51000 1.04000   1
   1   8  11 6.17000 1.03000   1
  -1  -8 -11 3.45000 1.21000   1
   0   6 -17 -0.2200 0.65000   1
   0   6 -17 0.64000 0.99000   1
   0  -6  17 0.42000 0.99000   1
 -12  -2  -2 0.36000 0.87000   1
  12   2   2 0.02000 0.81000   1
 -12   9  -4 0.75000 0.69000   1
  -7  16  -2 0.08000 0.70000   1
  -7  16  -2 0.99000 0.68000   1
 -11   9  10 12.8500 1.65000   1
  11  -9 -10 9.33000 1.67000   1
 -12   6  -5 10.9500 1.25000   1
  10  -5 -14 3.53000 1.51000   1
 -10   5  14 3.16000 0.83000   1
  -6  14   6 8.74000 1.57000   1
   6 -14  -6 11.8200 1.90000   1
  -3  10  11 1.62000 1.21000   1
  -3  10  11 2.40000 0.79000   1
   3 -10 -11 1.96000 1.20000   1
  -5   4 -14 2.23000 1.25000   1
   5  -4  14 2.67000 1.20000   1
  -5   1  17 8.65000 1.21000   1
   5  -1 -17 1.13000 1.55000   1
 -13  -1  12 0.52000 1.01000   1
  13   1 -12 0.24000 1.03000   1
  -2  16   1 1.12000 0.86000   1
   5  11   4 8.87000 1.57000   1
  -5 -11  -4 10.5800 1.80000   1
   5  11   4 9.53000 1.78000   1
  -8  11 -10 10.3000 1.57000   1
  -9   6 -10 6.97000 1.39000   1
   4  15  -4 1.69000 1.23000   1
   4  15  -4 2.50000 0.76000   1
  -3  15 -11 10.8300 1.73000   1
  14  -3  -9 9.41000 1.61000   1
 -10  14   1 5.78000 1.04000   1
 -11   0  15 7.02000 1.38000   1
  11   0 -15 10.0600 1.72000   1
  -8  15  -5 2.29000 0.79000   1
   7  11 -14 5.46000 1.18000   1
   7  11 -14 1.98000 1.30000   1
  -7 -11  14 3.72000 1.62000   1
   7  11 -14 2.22000 1.39000   1
 -10  -2  -6 0.57000 0.89000   1
  10   2   6 -0.0400 1.06000   1
   2  11 -16 4.90000 1.59000   1
  -2 -11  16 5.90000 1.49000   1
   2  11 -16 4.15000 1.28000   1
  -8  -1  17 0.03000 1.00000   1
   8   1 -17 1.15000 1.10000   1
 -13  -3  11 3.63000 1.33000   1
  13   3 -11 9.11000 1.51000   1
  11   8  -4 -0.4400 1.14000   1
  11   8  -4 2.33000 1.13000   1
   8 -13  -7 6.32000 1.60000   1
  -8  13   7 7.43000 1.23000   1
  13  -2   2 11.7100 1.38000   1
 -13   2  -2 13.5800 1.48000   1
   2  16  -8 1.20000 1.15000   1
  -2   6  14 4.99000 1.17000   1
  -2   6  14 0.35000 1.07000   1
   2  -6 -14 2.60000 1.17000   1
  -1  15   3 0.25000 1.02000   1
  10 -12  -7 3.66000 1.08000   1
 -10  12   7 -0.3900 0.88000   1
  -7  15  -7 7.14000 1.14000   1
   1  -1  16 -0.3200 0.86000   1
  -1   1 -16 2.31000 1.04000   1
   4 -12  -9 3.98000 1.28000   1
  -4  12   9 4.22000 1.13000   1
  -4  12   9 1.95000 0.72000   1
 -10 -10   8 1.77000 1.26000   1
  10  10  -8 1.74000 1.32000   1
 -12   1  -4 4.70000 0.98000   1
  12  -1   4 2.41000 0.99000   1
   5  14 -11 13.6100 2.22000   1
  -5 -14  11 11.6200 2.07000   1
   5  14 -11 12.7800 2.05000   1
   7  13  -5 3.06000 1.33000   1
  13  -7  -9 -1.3000 1.05000   1
  -8 -12  10 0.25000 1.17000   1
   8  12 -10 -0.1200 1.02000   1
  -7  16  -3 1.10000 0.80000   1
  -7  16  -3 0.97000 0.72000   1
  -2 -16   4 14.3000 1.83000   1
   2  16  -4 17.7300 2.01000   1
 -10  11  -7 3.56000 1.13000   1
  10  10  -7 2.46000 1.62000   1
 -10 -10   7 3.40000 1.50000   1
  13  -2 -12 4.79000 1.32000   1
 -13   2  12 3.37000 1.17000   1
   3   9 -17 0.27000 0.96000   1
   3   9 -17 2.40000 1.18000   1
  -3  -9  17 1.86000 1.22000   1
   7  -3  12 1.39000 0.91000   1
  -7   3 -12 0.62000 1.07000   1
  10  -3 -15 1.96000 1.66000   1
 -10   3  15 5.19000 1.05000   1
  12   4   0 2.48000 1.18000   1
 -12  -4   0 1.39000 1.05000   1
   5  -8  14 1.50000 0.82000   1
  -5   8 -14 0.87000 1.15000   1
 -14  -1   5 1.00000 0.95000   1
   8 -10 -11 5.31000 1.70000   1
  -8  10  11 7.20000 1.37000   1
   0   4 -17 4.60000 1.12000   1
   0  -4  17 11.2800 1.50000   1
   0   4 -17 4.62000 1.53000   1
   4  13   2 0.64000 0.80000   1
   4  13   2 0.42000 1.01000   1
 -11   6  -7 4.33000 1.28000   1
   9 -14  -4 5.21000 1.31000   1
  -9  14   4 6.35000 1.07000   1
 -10  13   5 0.73000 0.91000   1
  10 -13  -5 1.19000 0.95000   1
  -6  16  -6 0.16000 0.77000   1
   6  13 -12 0.09000 1.14000   1
  -6 -13  12 0.16000 1.24000   1
   6  13 -12 0.84000 1.19000   1
  -6   1  17 12.8400 1.75000   1
   6  -1 -17 12.5000 1.78000   1
 -12  -4  13 1.69000 1.07000   1
  12   4 -13 -1.1400 1.14000   1
   9  11  -5 17.0500 2.79000   1
   9  11  -5 18.8800 2.03000   1
  13   4  -4 5.16000 1.72000   1
   2 -11  15 8.88000 1.34000   1
  -2  11 -15 12.5000 1.91000   1
  -7  16  -1 5.85000 1.04000   1
  -7  16  -1 3.01000 0.88000   1
  -8   9  12 1.14000 1.17000   1
   8  -9 -12 3.74000 1.43000   1
  -7  -9  -4 4.33000 1.29000   1
   7   9   4 5.37000 1.34000   1
   7   9   4 8.57000 1.31000   1
   9  -5  10 4.24000 1.07000   1
  -9   5 -10 7.76000 1.33000   1
   3  11 -16 1.36000 0.98000   1
   3  11 -16 0.09000 0.81000   1
   3  11 -16 1.50000 1.21000   1
  -3 -11  16 0.90000 1.11000   1
  -3   3  16 10.4400 1.38000   1
  -3   3  16 12.2000 1.56000   1
   3  -3 -16 12.8400 1.82000   1
  10  -2   8 -0.1000 0.75000   1
 -10   2  -8 -0.2400 0.86000   1
 -11   5  -7 0.43000 0.86000   1
   6 -15  -4 9.38000 1.91000   1
  -6  15   4 10.2400 1.58000   1
  -9  12   8 1.68000 1.05000   1
   9 -12  -8 1.57000 1.30000   1
  14   0  -9 0.91000 1.28000   1
 -14   0   9 3.63000 0.94000   1
 -10  -2  16 8.42000 1.39000   1
  10   2 -16 2.27000 1.45000   1
  -1  14   5 9.57000 1.18000   1
  -1  14   5 9.07000 1.79000   1
   1 -14  -5 13.3800 1.80000   1
  10   6 -15 2.05000 1.44000   1
 -10  -6  15 1.92000 1.15000   1
   6  -3  13 1.91000 0.91000   1
  -6   3 -13 0.05000 1.13000   1
  -3  15   4 3.81000 1.02000   1
   3 -15  -4 3.01000 1.47000   1
  -9   7 -10 0.11000 0.90000   1
  -3   9  12 10.1400 1.52000   1
  -3   9  12 8.16000 1.26000   1
   3  -9 -12 13.9100 1.58000   1
   0  15 -12 6.48000 1.58000   1
   0  15 -12 2.68000 1.01000   1
  10   9 -12 4.19000 1.79000   1
 -10  -9  12 4.99000 1.70000   1
  10   9 -12 3.61000 1.81000   1
   0  13   6 1.54000 1.27000   1
   0  13   6 4.48000 0.92000   1
   0 -13  -6 0.85000 1.24000   1
   4  12 -15 1.02000 1.11000   1
   4  12 -15 -0.2300 1.09000   1
  -4 -12  15 0.14000 0.97000   1
   4  12 -15 0.43000 0.84000   1
  -5   0 -13 12.5600 1.69000   1
   5   0  13 9.62000 1.53000   1
  13  -6 -10 3.23000 1.23000   1
  11  -1   6 4.67000 1.06000   1
 -11   1  -6 1.75000 0.98000   1
 -12   4  -5 -0.1600 0.78000   1
  -6 -14   7 8.80000 1.59000   1
   6  14  -7 5.18000 1.62000   1
 -14  -1   8 4.64000 1.11000   1
  12   6 -11 -0.0700 0.99000   1
 -12  -6  11 0.26000 0.98000   1
  12   6 -11 0.23000 1.02000   1
  -9  -6  16 0.19000 1.04000   1
   9   6 -16 0.24000 1.18000   1
  -1 -11  -8 2.47000 1.20000   1
   1  11   8 1.45000 1.11000   1
   1  11   8 1.79000 0.93000   1
  -1 -11  -8 -0.1300 1.17000   1
  -3  11  10 3.20000 0.85000   1
   3 -11 -10 0.99000 0.98000   1
  -3  11  10 1.32000 1.21000   1
  -7   9 -12 4.56000 1.17000   1
   9  11 -10 18.3500 2.63000   1
  -9 -11  10 14.6200 2.57000   1
   9  11 -10 19.1000 2.47000   1
   1 -12  -8 -0.1300 0.97000   1
  -1  12   8 4.02000 0.80000   1
  -1  12   8 3.07000 1.07000   1
 -11  13   2 7.79000 1.03000   1
  10  -9 -11 2.22000 1.09000   1
 -10   9  11 1.09000 0.98000   1
  -2  -6 -12 8.25000 1.68000   1
   2   6  12 6.43000 1.20000   1
  -2  -6 -12 7.95000 1.21000   1
   2   6  12 9.67000 1.42000   1
 -11  11  -5 8.22000 1.10000   1
  13   0   1 0.30000 0.88000   1
 -13   0  -1 3.51000 0.76000   1
  -6  16   1 3.57000 1.23000   1
   9  -6 -14 0.10000 1.05000   1
  -9   6  14 1.06000 0.83000   1
 -10  -1  16 0.81000 1.04000   1
  10   1 -16 1.20000 1.34000   1
  13   4 -10 -0.3400 1.22000   1
 -13  -4  10 -0.3400 0.85000   1
  13   4 -10 0.22000 0.88000   1
 -14   0   3 3.85000 0.99000   1
  -6   7  14 3.72000 1.12000   1
  -6   7  14 3.98000 1.00000   1
   6  -7 -14 2.64000 1.32000   1
   2   9 -17 4.39000 1.30000   1
   2   9 -17 4.43000 1.26000   1
  -2  -9  17 3.13000 1.23000   1
  -1  16 -10 0.22000 0.95000   1
  -1  16 -10 -0.4400 0.83000   1
   3  14 -13 3.71000 1.47000   1
  -3 -14  13 2.16000 1.31000   1
   3  14 -13 1.69000 1.06000   1
  -4   1  17 4.82000 1.16000   1
   4  -1 -17 2.90000 1.18000   1
 -13  -3   2 2.27000 0.77000   1
  13   3  -2 -0.0600 1.08000   1
   7 -12  -9 2.33000 1.34000   1
  -7  12   9 1.63000 1.09000   1
   3   5  12 2.62000 1.12000   1
  -3  -5 -12 3.25000 1.33000   1
  -9  12  -8 0.20000 0.76000   1
   6  14  -8 1.67000 1.20000   1
  11  -7 -12 -0.0500 1.08000   1
 -14   1   2 4.72000 1.06000   1
  -6   9 -13 9.26000 1.48000   1
   2  -8  16 6.60000 1.39000   1
  -2   8 -16 6.09000 1.74000   1
   4   9 -17 3.48000 1.22000   1
   4   9 -17 0.53000 1.28000   1
  -4  -9  17 0.63000 1.28000   1
  -3  17  -4 0.00000 0.92000   1
  -3  17  -4 0.50000 0.99000   1
   0  -7  17 14.3200 1.95000   1
   0   7 -17 11.2600 1.46000   1
   0   7 -17 11.7400 2.06000   1
   1  15 -12 1.47000 1.41000   1
   1  15 -12 3.18000 0.97000   1
 -12   7  -5 4.62000 0.89000   1
  10  10  -9 -0.1000 1.20000   1
  10  10  -9 -0.8200 1.22000   1
 -10 -10   9 0.11000 1.14000   1
   0  -3 -15 2.05000 0.92000   1
   0   3  15 2.09000 1.06000   1
   0  -3 -15 4.91000 1.00000   1
  -2  17  -5 0.53000 0.88000   1
  -2  17  -5 0.95000 1.16000   1
 -11  -3  15 1.75000 1.28000   1
  11   3 -15 1.73000 1.42000   1
   9   9 -14 2.35000 1.16000   1
   9   9 -14 0.66000 0.90000   1
  -9  -9  14 0.88000 1.42000   1
   9   9 -14 0.74000 1.13000   1
   1  11 -16 3.12000 1.60000   1
   1  11 -16 5.00000 1.12000   1
  -1 -11  16 5.81000 1.41000   1
 -11  -8  11 -0.7900 0.85000   1
  11   8 -11 -0.2400 1.24000   1
  11   8 -11 0.44000 1.09000   1
  -3 -15  11 1.31000 0.94000   1
   3  15 -11 -0.3100 0.91000   1
   3  15 -11 0.18000 1.17000   1
   5  -7 -14 -0.4100 1.05000   1
  -5   7  14 0.89000 1.22000   1
  -5   7  14 5.88000 0.95000   1
  11   1   5 1.46000 1.10000   1
 -11  -1  -5 3.76000 1.07000   1
  13  -8  -8 1.03000 0.93000   1
   0  16 -10 7.96000 1.47000   1
   0  16 -10 2.80000 1.10000   1
  -6 -11  15 10.2900 2.03000   1
   6  11 -15 8.52000 1.58000   1
   6  11 -15 10.1500 1.87000   1
   6  11 -15 8.57000 1.49000   1
  -8  -5  17 1.36000 1.12000   1
   8   5 -17 1.44000 0.97000   1
 -11   7  -7 1.32000 1.01000   1
  -2  17  -4 7.02000 1.66000   1
  -2  17  -4 10.1800 1.54000   1
  -3  12 -14 3.71000 1.34000   1
  -6  -4 -10 9.96000 1.57000   1
   6   4  10 9.96000 1.80000   1
   6  14  -6 0.63000 1.32000   1
  -6 -14   6 1.39000 1.27000   1
  12   1 -14 7.99000 1.78000   1
 -12  -1  14 11.4100 1.63000   1
   7  11   1 -0.3100 1.08000   1
   7  11   1 -0.5000 0.76000   1
  10  10  -6 1.39000 1.24000   1
 -10 -10   6 -1.3600 0.94000   1
  -9  13  -7 6.66000 1.35000   1
 -10  -3  16 2.80000 1.22000   1
  10   3 -16 1.38000 1.45000   1
 -12   0  14 2.89000 1.20000   1
  12   0 -14 2.28000 1.54000   1
  -6  14 -10 8.56000 1.31000   1
   8  -5 -15 -0.3600 1.05000   1
  -8   5  15 0.41000 0.73000   1
   3  -5 -15 3.90000 1.03000   1
  -3   5  15 3.44000 1.17000   1
  -3   5  15 0.68000 1.03000   1
   3  12   5 13.8300 1.78000   1
   3  12   5 11.4900 1.77000   1
  -6  13 -11 1.00000 0.88000   1
 -10   8  12 13.5000 1.87000   1
  10  -8 -12 12.9300 2.21000   1
  -3  17  -5 4.04000 1.27000   1
  -3  17  -5 5.37000 1.30000   1
  -5  -4 -11 13.4800 2.15000   1
   5   4  11 17.1100 2.08000   1
  -4  -2 -13 9.80000 1.81000   1
   4   2  13 7.76000 1.65000   1
 -11  10   9 10.9100 1.47000   1
  11 -10  -9 10.6900 1.75000   1
 -10  10  10 1.30000 0.85000   1
  10 -10 -10 1.49000 1.26000   1
   9  -2 -16 0.58000 1.38000   1
  -9   2  16 2.79000 1.07000   1
  -2   3 -16 1.48000 1.05000   1
   2  -3  16 -0.4400 1.02000   1
   8   0  10 4.64000 1.38000   1
  -8   0 -10 4.14000 1.05000   1
  -9  -8  -2 10.3500 1.62000   1
   9   8   2 10.3800 1.60000   1
   9   8   2 10.5900 1.78000   1
  12  -8 -10 3.78000 1.24000   1
   4  13 -14 11.9700 1.83000   1
   4  13 -14 2.43000 1.28000   1
  -4 -13  14 3.62000 1.73000   1
   4  13 -14 9.56000 1.54000   1
  -7 -13  10 2.94000 1.47000   1
   7  13 -10 1.59000 1.05000   1
  -1  -2 -15 3.24000 1.12000   1
  -1  -2 -15 0.91000 0.91000   1
   1   2  15 0.70000 1.09000   1
  -1   7  13 1.91000 0.92000   1
  -1   7  13 0.18000 0.77000   1
   1  -7 -13 0.63000 0.95000   1
   1  -7 -13 -0.2800 0.90000   1
  -1  15 -12 -0.5100 1.02000   1
  -7  16  -4 3.46000 0.91000   1
   4  -6  15 7.46000 1.26000   1
  -4   6 -15 8.45000 1.74000   1
  -8  11  10 3.52000 1.12000   1
   8 -11 -10 4.29000 1.48000   1
   8  -3  11 2.24000 0.90000   1
  -8   3 -11 1.25000 1.01000   1
  -3  14   6 2.12000 1.22000   1
   3 -14  -6 1.23000 0.99000   1
  -8   3  16 6.24000 1.24000   1
   8  -3 -16 10.0100 1.69000   1
  -5  14 -11 4.95000 1.32000   1
  -9  -3  -7 2.40000 1.14000   1
   9   3   7 2.09000 1.31000   1
 -12  -1  -3 2.32000 0.92000   1
  12   1   3 3.04000 0.97000   1
  12   7  -7 -0.0800 1.25000   1
  12   7  -7 3.43000 1.47000   1
 -12  -7   7 1.90000 1.16000   1
 -11   4  -7 7.91000 1.27000   1
  -8  -2  -9 8.03000 1.56000   1
   8   2   9 10.3300 1.58000   1
  12   7  -8 0.23000 1.18000   1
  12   7  -8 3.06000 1.50000   1
 -12  -7   8 0.66000 1.15000   1
 -10  14   2 1.33000 0.75000   1
  10 -14  -2 1.53000 0.96000   1
  12   6  -3 1.91000 1.16000   1
  12   6  -3 0.08000 1.12000   1
  -6  -8  17 0.83000 1.20000   1
   6   8 -17 1.66000 1.03000   1
   6   8 -17 0.66000 0.85000   1
   2  12   6 3.73000 1.31000   1
   2  12   6 7.51000 1.54000   1
  -3  17  -3 -0.7300 0.82000   1
  -3  17  -3 0.55000 0.97000   1
   7   9 -16 6.74000 1.35000   1
   7   9 -16 10.6000 1.78000   1
  -7  -9  16 9.78000 2.00000   1
   7   9 -16 11.2400 1.84000   1
 -11   1  15 2.47000 0.99000   1
  11  -1 -15 1.74000 1.48000   1
   5  14  -2 0.47000 1.01000   1
   5  14  -2 1.72000 1.22000   1
 -10  13  -5 0.90000 0.87000   1
   8   6   6 0.99000 1.03000   1
  -8  -6  -6 -0.00000 0.9600   1
   9   8 -15 1.47000 1.57000   1
  -9  -8  15 2.75000 1.60000   1
   9   8 -15 4.87000 1.47000   1
   6  12   1 2.25000 1.44000   1
   6  12   1 1.93000 1.08000   1
   4  14   0 3.42000 1.31000   1
   4  14   0 1.30000 1.06000   1
  -3  10 -15 1.61000 1.29000   1
   3 -10  15 2.26000 0.88000   1
  -1  -4 -14 0.48000 0.78000   1
   1   4  14 0.74000 0.92000   1
  -1  -4 -14 2.35000 1.07000   1
  13   2 -12 4.39000 1.61000   1
 -13  -2  12 4.08000 1.33000   1
  14  -4  -9 0.98000 1.03000   1
  -8   9 -11 7.86000 1.39000   1
   8   7   5 -0.7700 1.05000   1
  -8  -7  -5 -0.3100 0.78000   1
  -9   4 -10 6.53000 1.16000   1
   9  -4  10 1.20000 0.93000   1
  -8   8  13 3.62000 1.44000   1
  -8   8  13 5.91000 0.87000   1
   8  -8 -13 3.57000 1.53000   1
  -7  -7  17 6.40000 1.61000   1
   7   7 -17 4.47000 1.32000   1
  12  -7 -11 1.53000 1.14000   1
   4  -5  15 2.23000 1.18000   1
  -4   5 -15 2.45000 1.13000   1
  -2  17  -6 0.06000 0.97000   1
  -2  17  -6 0.92000 1.09000   1
  -9  15   0 0.70000 0.66000   1
 -11  12  -4 2.60000 0.81000   1
 -11  10  -6 3.65000 1.04000   1
   7  12  -1 1.50000 1.44000   1
   7  12  -1 8.06000 1.26000   1
  -7  16   0 3.65000 0.99000   1
  -7  13 -10 7.55000 1.43000   1
 -13  10   4 0.98000 0.66000   1
   2   0 -17 4.72000 1.36000   1
   2   0 -17 8.56000 1.10000   1
  -2   0  17 0.63000 1.28000   1
  10   0 -16 1.91000 1.56000   1
 -10   0  16 3.95000 1.35000   1
   0   3 -17 11.1900 1.52000   1
   0   3 -17 6.13000 1.18000   1
   0  -3  17 10.3000 1.66000   1
  11  -4 -14 1.02000 1.32000   1
 -11   4  14 1.72000 0.78000   1
  -1  12 -15 2.24000 1.09000   1
  -1  12 -15 1.50000 0.83000   1
   1 -12  15 1.04000 0.84000   1
  -7   7  14 3.09000 0.83000   1
  -7   7  14 0.48000 1.20000   1
   7  -7 -14 0.94000 1.16000   1
  -9   8 -10 1.00000 0.99000   1
   4  -7  15 4.92000 1.08000   1
  -4   7 -15 2.30000 1.16000   1
 -14  -1   4 4.15000 1.06000   1
   8  12  -4 4.86000 1.01000   1
   8  12  -4 -0.0400 1.30000   1
  -5  13 -12 0.18000 0.86000   1
 -12   4  13 5.65000 1.02000   1
  12  -4 -13 6.09000 1.56000   1
  -2  16 -10 2.50000 1.26000   1
  -8 -11  13 2.80000 1.63000   1
   8  11 -13 3.23000 1.36000   1
   8  11 -13 4.30000 1.23000   1
   8  11 -13 0.81000 1.58000   1
  12   2 -14 0.88000 1.22000   1
 -12  -2  14 0.30000 0.97000   1
  -1  -7 -12 3.09000 1.38000   1
   1   7  12 4.74000 1.13000   1
  -1  -7 -12 6.11000 1.08000   1
   1   7  12 2.94000 1.18000   1
   1 -10  16 2.41000 1.01000   1
  -1  10 -16 0.08000 1.23000   1
  -6 -12  14 -0.6700 1.26000   1
   6  12 -14 0.31000 1.08000   1
   6  12 -14 -0.6900 1.15000   1
   6  12 -14 -0.5600 0.90000   1
  -2  14 -13 -0.1100 1.02000   1
  -2  14 -13 -0.2200 0.79000   1
  -7  14   6 4.20000 1.28000   1
   7 -14  -6 4.12000 1.50000   1
  -7   1  17 2.47000 1.04000   1
   7  -1 -17 1.27000 1.30000   1
  -4  16   2 1.79000 1.08000   1
  -1  17  -5 8.26000 1.42000   1
  -2  17  -3 1.57000 1.16000   1
   4  11 -16 2.65000 1.44000   1
   4  11 -16 3.95000 0.93000   1
   4  11 -16 1.62000 1.09000   1
  -4 -11  16 1.30000 1.40000   1
  12  -1 -14 0.46000 1.19000   1
 -12   1  14 0.07000 0.74000   1
  -4  17  -4 8.88000 1.39000   1
  -4  17  -4 13.6300 1.74000   1
  -4  11 -14 1.66000 1.00000   1
   8   0 -17 3.66000 1.50000   1
  -8   0  17 4.38000 1.27000   1
   6  14  -9 12.0200 1.71000   1
  -6 -14   9 9.51000 1.80000   1
   8  11  -1 10.3500 1.52000   1
   8  11  -1 8.38000 1.69000   1
 -13   3  12 1.24000 0.89000   1
  13  -3 -12 4.69000 1.45000   1
  12  -9  -9 1.73000 1.23000   1
 -12   9   9 1.75000 0.94000   1
  13  -5 -11 11.8000 2.13000   1
  -5   3 -14 0.65000 1.12000   1
   5  -3  14 0.17000 0.99000   1
  -4  -4  18 12.5200 1.88000   1
   4   4 -18 12.4600 2.02000   1
   1  -4 -15 1.22000 0.82000   1
   1  -4 -15 2.16000 0.98000   1
  -1   4  15 1.02000 1.03000   1
  -1   4  15 1.14000 0.81000   1
   3  15  -1 3.98000 0.93000   1
   3  15  -1 -0.9200 1.07000   1
   8  10   1 4.05000 1.24000   1
   8  10   1 4.77000 1.58000   1
  -8 -10  -1 4.35000 0.96000   1
   4  12   4 14.7400 1.87000   1
   4  12   4 13.0200 1.76000   1
 -12   3  -5 0.12000 0.66000   1
  -8  -8  16 1.56000 1.34000   1
   8   8 -16 2.18000 1.18000   1
   8   8 -16 0.17000 1.09000   1
  -4 -15  10 10.0500 1.87000   1
   4  15 -10 9.59000 1.95000   1
  -4  17  -3 0.94000 1.01000   1
 -12  -7   6 0.12000 1.05000   1
  12   7  -6 1.09000 1.07000   1
  12   7  -6 0.67000 0.91000   1
  -3   8  13 13.4000 1.70000   1
  -3   8  13 10.0600 1.85000   1
   3  -8 -13 10.9600 1.81000   1
 -12  -5   1 0.58000 0.92000   1
  12   5  -1 0.41000 0.94000   1
  -1  -1  17 3.35000 1.37000   1
   1   1 -17 5.31000 1.25000   1
   1   1 -17 7.21000 1.35000   1
  -5  -4  18 0.53000 1.08000   1
   5   4 -18 1.53000 1.16000   1
  -4  -5  18 -1.2000 1.02000   1
   4   5 -18 1.36000 0.88000   1
  -5  13   8 0.32000 0.95000   1
   5 -13  -8 0.03000 1.10000   1
  -7  -4  -9 4.61000 1.54000   1
   7   4   9 9.32000 1.41000   1
  -2  -3 -14 12.0800 1.70000   1
   2  16  -3 -0.1600 0.80000   1
   2  16  -3 0.94000 0.84000   1
 -12  -7   9 -0.1400 1.10000   1
  12   7  -9 1.33000 1.28000   1
  12   7  -9 3.05000 1.48000   1
  14   1  -9 1.44000 1.11000   1
 -14  -1   9 2.41000 1.16000   1
   6  10 -16 -0.4100 1.01000   1
   6  10 -16 0.49000 0.91000   1
   6  10 -16 1.12000 0.92000   1
  -3  12   9 -0.4100 0.60000   1
   3 -12  -9 0.40000 0.93000   1
  -6 -14   5 0.19000 0.95000   1
  -4   7  14 8.42000 1.58000   1
 -13  -5   7 2.17000 1.21000   1
  13   5  -7 1.15000 1.29000   1
  -1   2  16 0.20000 0.80000   1
   8 -15  -3 5.11000 1.42000   1
   0  -5 -14 3.66000 1.06000   1
;
_shelx_hkl_checksum              9125
#END Tags that were not found in dictionaries
loop_
_space_group_symop_operation_xyz
'x, y, z'
'-x, -y, -z'
loop_
_atom_site_label
_atom_site_type_symbol
_atom_site_fract_x
_atom_site_fract_y
_atom_site_fract_z
_atom_site_U_iso_or_equiv
_atom_site_adp_type
_atom_site_occupancy
_atom_site_site_symmetry_order
_atom_site_calc_flag
_atom_site_refinement_flags_posn
_atom_site_refinement_flags_adp
_atom_site_refinement_flags_occupancy
_atom_site_disorder_assembly
_atom_site_disorder_group
C1 C 0.5774(4) 0.6903(3) 0.2211(3) 0.0157(8) Uani 1 1 d . . . . .
C2 C 0.4373(4) 0.6659(3) 0.1778(3) 0.0166(9) Uani 1 1 d . . . . .
H2 H 0.3781 0.5970 0.1575 0.020 Uiso 1 1 calc R U . . .
C3 C 0.4068(4) 0.7597(3) 0.1716(3) 0.0175(9) Uani 1 1 d . . . . .
H3 H 0.3223 0.7689 0.1465 0.021 Uiso 1 1 calc R U . . .
C4 C 0.5274(4) 0.8431(3) 0.2103(3) 0.0142(8) Uani 1 1 d . . . . .
C5 C 0.5380(4) 0.9488(3) 0.2053(3) 0.0157(8) Uani 1 1 d . . . . .
C6 C 0.6533(4) 1.0263(3) 0.2334(3) 0.0143(8) Uani 1 1 d . . . . .
C7 C 0.6632(4) 1.1303(3) 0.2149(3) 0.0155(8) Uani 1 1 d . . . . .
H7 H 0.5933 1.1577 0.1843 0.019 Uiso 1 1 calc R U . . .
C8 C 0.7910(4) 1.1813(3) 0.2495(3) 0.0161(8) Uani 1 1 d . . . . .
H8 H 0.8273 1.2505 0.2465 0.019 Uiso 1 1 calc R U . . .
C9 C 0.8617(4) 1.1102(3) 0.2920(3) 0.0125(8) Uani 1 1 d . . . . .
C10 C 0.9951(4) 1.1387(3) 0.3466(3) 0.0142(8) Uani 1 1 d . . . . .
C11 C 1.0599(4) 1.0712(3) 0.3940(3) 0.0145(8) Uani 1 1 d . . . . .
C12 C 1.1956(4) 1.1018(3) 0.4602(3) 0.0179(9) Uani 1 1 d . . . . .
H12 H 1.2532 1.1723 0.4864 0.021 Uiso 1 1 calc R U . . .
C13 C 1.2251(4) 1.0109(3) 0.4776(3) 0.0165(9) Uani 1 1 d . . . . .
H13 H 1.3067 1.0061 0.5193 0.020 Uiso 1 1 calc R U . . .
C14 C 1.1084(4) 0.9222(3) 0.4208(3) 0.0128(8) Uani 1 1 d . . . . .
C15 C 1.1034(4) 0.8129(3) 0.4067(3) 0.0131(8) Uani 1 1 d . . . . .
C16 C 0.9891(4) 0.7281(3) 0.3551(3) 0.0143(8) Uani 1 1 d . . . . .
C17 C 0.9812(4) 0.6136(3) 0.3352(3) 0.0171(9) Uani 1 1 d . . . . .
H17 H 1.0520 0.5828 0.3523 0.021 Uiso 1 1 calc R U . . .
C18 C 0.8554(4) 0.5590(3) 0.2880(3) 0.0157(8) Uani 1 1 d . . . . .
H18 H 0.8209 0.4826 0.2665 0.019 Uiso 1 1 calc R U . . .
C19 C 0.7827(4) 0.6380(3) 0.2761(3) 0.0124(8) Uani 1 1 d . . . . .
C20 C 0.6469(4) 0.6136(3) 0.2333(3) 0.0136(8) Uani 1 1 d . . . . .
C21 C 0.4140(4) 0.9799(3) 0.1653(3) 0.0156(8) Uani 1 1 d . . . . .
C22 C 0.3439(4) 0.9506(3) 0.0565(3) 0.0189(9) Uani 1 1 d . . . . .
H22 H 0.3747 0.9104 0.0068 0.023 Uiso 1 1 calc R U . . .
C23 C 0.2283(4) 0.9801(3) 0.0200(3) 0.0199(9) Uani 1 1 d . . . . .
H23 H 0.1810 0.9602 -0.0540 0.024 Uiso 1 1 calc R U . . .
C24 C 0.1839(4) 1.0384(4) 0.0929(4) 0.0216(10) Uani 1 1 d . . . . .
H24 H 0.1062 1.0591 0.0689 0.026 Uiso 1 1 calc R U . . .
C25 C 0.2523(4) 1.0665(4) 0.2008(4) 0.0213(9) Uani 1 1 d . . . . .
H25 H 0.2208 1.1058 0.2504 0.026 Uiso 1 1 calc R U . . .
C26 C 0.3663(4) 1.0378(3) 0.2366(3) 0.0188(9) Uani 1 1 d . . . . .
H26 H 0.4126 1.0577 0.3108 0.023 Uiso 1 1 calc R U . . .
C27 C 1.0722(4) 1.2458(3) 0.3528(3) 0.0141(8) Uani 1 1 d . . . . .
C28 C 1.0780(4) 1.2666(4) 0.2601(3) 0.0181(9) Uani 1 1 d . . . . .
H28 H 1.0320 1.2122 0.1933 0.022 Uiso 1 1 calc R U . . .
C29 C 1.1498(4) 1.3654(4) 0.2641(4) 0.0225(10) Uani 1 1 d . . . . .
H29 H 1.1517 1.3784 0.2002 0.027 Uiso 1 1 calc R U . . .
C30 C 1.2190(4) 1.4453(4) 0.3612(4) 0.0228(10) Uani 1 1 d . . . . .
H30 H 1.2693 1.5125 0.3641 0.027 Uiso 1 1 calc R U . . .
C31 C 1.2139(4) 1.4260(4) 0.4537(4) 0.0228(10) Uani 1 1 d . . . . .
H31 H 1.2607 1.4806 0.5202 0.027 Uiso 1 1 calc R U . . .
C32 C 1.1406(4) 1.3270(3) 0.4502(3) 0.0196(9) Uani 1 1 d . . . . .
H32 H 1.1374 1.3150 0.5142 0.024 Uiso 1 1 calc R U . . .
C33 C 1.2289(4) 0.7845(3) 0.4446(3) 0.0148(8) Uani 1 1 d . . . . .
C34 C 1.3243(4) 0.8076(4) 0.4022(3) 0.0201(9) Uani 1 1 d . . . . .
H34 H 1.3091 0.8414 0.3483 0.024 Uiso 1 1 calc R U . . .
C35 C 1.4411(4) 0.7820(4) 0.4372(3) 0.0217(10) Uani 1 1 d . . . . .
H35 H 1.5052 0.7983 0.4074 0.026 Uiso 1 1 calc R U . . .
C36 C 1.4641(4) 0.7330(4) 0.5154(3) 0.0227(10) Uani 1 1 d . . . . .
H36 H 1.5442 0.7159 0.5399 0.027 Uiso 1 1 calc R U . . .
C37 C 1.3703(4) 0.7086(3) 0.5580(3) 0.0197(9) Uani 1 1 d . . . . .
H37 H 1.3860 0.6748 0.6118 0.024 Uiso 1 1 calc R U . . .
C38 C 1.2526(4) 0.7337(3) 0.5220(3) 0.0159(8) Uani 1 1 d . . . . .
H38 H 1.1881 0.7158 0.5509 0.019 Uiso 1 1 calc R U . . .
C39 C 0.5724(4) 0.4970(3) 0.1948(3) 0.0136(8) Uani 1 1 d . . . . .
C40 C 0.5023(4) 0.4575(3) 0.2521(3) 0.0178(9) Uani 1 1 d . . . . .
H40 H 0.5039 0.5040 0.3168 0.021 Uiso 1 1 calc R U . . .
C41 C 0.4300(4) 0.3491(4) 0.2134(4) 0.0207(9) Uani 1 1 d . . . . .
H41 H 0.3828 0.3222 0.2525 0.025 Uiso 1 1 calc R U . . .
C42 C 0.4264(4) 0.2808(3) 0.1194(3) 0.0188(9) Uani 1 1 d . . . . .
H42 H 0.3765 0.2075 0.0938 0.023 Uiso 1 1 calc R U . . .
C43 C 0.4958(4) 0.3193(3) 0.0617(3) 0.0202(9) Uani 1 1 d . . . . .
H43 H 0.4933 0.2723 -0.0032 0.024 Uiso 1 1 calc R U . . .
C44 C 0.5692(4) 0.4275(3) 0.1000(3) 0.0179(9) Uani 1 1 d . . . . .
H44 H 0.6172 0.4537 0.0612 0.021 Uiso 1 1 calc R U . . .
C45 C 0.8188(4) 0.8310(4) 0.1493(3) 0.0192(9) Uani 1 1 d . . . . .
H45A H 0.7792 0.7518 0.1177 0.023 Uiso 1 1 calc R U . . .
H45B H 0.7635 0.8670 0.1069 0.023 Uiso 1 1 calc R U . . .
C46 C 0.9492(5) 0.8558(4) 0.1403(4) 0.0312(11) Uani 1 1 d . . . . .
H46A H 0.9871 0.9345 0.1667 0.047 Uiso 1 1 calc R U . . .
H46B H 0.9408 0.8278 0.0657 0.047 Uiso 1 1 calc R U . . .
H46C H 1.0054 0.8213 0.1826 0.047 Uiso 1 1 calc R U . . .
N1 N 0.6293(3) 0.7994(3) 0.2422(3) 0.0143(7) Uani 1 1 d . . . . .
N2 N 0.7750(3) 1.0157(3) 0.2795(3) 0.0150(7) Uani 1 1 d . . . . .
N3 N 1.0083(3) 0.9632(3) 0.3760(3) 0.0126(7) Uani 1 1 d . . . . .
N4 N 0.8667(3) 0.7405(3) 0.3176(2) 0.0135(7) Uani 1 1 d . . . . .
Rh1 Rh 0.81971(3) 0.87880(3) 0.30133(2) 0.01021(9) Uani 1 1 d . . . . .
Cl1 Cl 0.8953(2) 0.3780(2) 0.0486(2) 0.0391(6) Uani 0.5 1 d D . P A -1
Cl2 Cl 0.8432(2) 0.5717(2) 0.0047(2) 0.0370(6) Uani 0.5 1 d D . P A -1
Cl3 Cl 1.1024(3) 0.5743(3) 0.1227(2) 0.0478(8) Uani 0.5 1 d D . P A -1
Cl4 Cl 0.9872(4) 0.4542(3) -0.1007(3) 0.0632(11) Uani 0.5 1 d D . P A -1
C47 C 0.9561(5) 0.4939(5) 0.0179(4) 0.032(2) Uani 0.5 1 d D . P A -1
loop_
_atom_site_aniso_label
_atom_site_aniso_U_11
_atom_site_aniso_U_22
_atom_site_aniso_U_33
_atom_site_aniso_U_23
_atom_site_aniso_U_13
_atom_site_aniso_U_12
C1 0.013(2) 0.015(2) 0.017(2) 0.0049(16) 0.0069(17) -0.0022(16)
C2 0.011(2) 0.017(2) 0.021(2) 0.0082(17) 0.0049(17) -0.0001(17)
C3 0.015(2) 0.019(2) 0.019(2) 0.0072(17) 0.0047(17) 0.0046(17)
C4 0.0116(19) 0.017(2) 0.0166(19) 0.0060(16) 0.0065(16) 0.0054(16)
C5 0.018(2) 0.013(2) 0.0152(19) 0.0018(15) 0.0064(17) 0.0035(17)
C6 0.015(2) 0.017(2) 0.0092(18) 0.0036(15) 0.0017(16) 0.0042(17)
C7 0.015(2) 0.016(2) 0.016(2) 0.0040(16) 0.0073(16) 0.0060(17)
C8 0.016(2) 0.014(2) 0.018(2) 0.0083(16) 0.0033(17) 0.0040(17)
C9 0.0137(19) 0.012(2) 0.0144(18) 0.0034(15) 0.0082(16) 0.0058(16)
C10 0.0126(19) 0.014(2) 0.0155(19) 0.0037(15) 0.0047(16) 0.0048(16)
C11 0.013(2) 0.011(2) 0.0157(19) 0.0036(15) 0.0046(16) -0.0021(16)
C12 0.012(2) 0.016(2) 0.020(2) 0.0046(16) 0.0019(17) -0.0014(17)
C13 0.013(2) 0.018(2) 0.0158(19) 0.0084(16) -0.0012(16) 0.0032(17)
C14 0.0092(18) 0.019(2) 0.0115(18) 0.0068(15) 0.0043(15) 0.0021(16)
C15 0.0123(19) 0.016(2) 0.0119(18) 0.0057(15) 0.0031(16) 0.0057(16)
C16 0.0110(19) 0.018(2) 0.0156(19) 0.0081(16) 0.0047(16) 0.0040(16)
C17 0.017(2) 0.015(2) 0.021(2) 0.0062(16) 0.0083(17) 0.0062(17)
C18 0.014(2) 0.013(2) 0.017(2) 0.0047(16) 0.0028(16) 0.0020(16)
C19 0.0141(19) 0.0078(19) 0.0138(18) 0.0022(14) 0.0057(16) -0.0008(15)
C20 0.014(2) 0.014(2) 0.0136(18) 0.0047(15) 0.0067(16) 0.0021(16)
C21 0.012(2) 0.011(2) 0.023(2) 0.0044(16) 0.0051(17) 0.0031(16)
C22 0.018(2) 0.017(2) 0.019(2) 0.0022(16) 0.0060(17) 0.0043(18)
C23 0.017(2) 0.017(2) 0.018(2) 0.0051(17) -0.0023(17) -0.0017(17)
C24 0.011(2) 0.023(2) 0.036(3) 0.018(2) 0.0085(19) 0.0061(18)
C25 0.019(2) 0.022(2) 0.027(2) 0.0081(18) 0.0125(19) 0.0083(19)
C26 0.017(2) 0.019(2) 0.017(2) 0.0065(17) 0.0027(17) 0.0024(17)
C27 0.0061(18) 0.014(2) 0.023(2) 0.0084(16) 0.0037(16) 0.0026(16)
C28 0.018(2) 0.020(2) 0.021(2) 0.0085(17) 0.0109(18) 0.0070(18)
C29 0.025(2) 0.023(2) 0.029(2) 0.0154(19) 0.015(2) 0.010(2)
C30 0.020(2) 0.013(2) 0.042(3) 0.0151(19) 0.015(2) 0.0047(18)
C31 0.021(2) 0.013(2) 0.030(2) 0.0024(18) 0.0082(19) 0.0004(18)
C32 0.023(2) 0.014(2) 0.024(2) 0.0090(17) 0.0093(18) 0.0024(18)
C33 0.013(2) 0.013(2) 0.0146(19) 0.0024(15) 0.0024(16) 0.0015(16)
C34 0.020(2) 0.022(2) 0.022(2) 0.0107(18) 0.0085(18) 0.0053(19)
C35 0.013(2) 0.031(3) 0.021(2) 0.0065(19) 0.0084(18) 0.0060(19)
C36 0.014(2) 0.017(2) 0.025(2) 0.0006(18) -0.0027(18) 0.0025(18)
C37 0.017(2) 0.018(2) 0.021(2) 0.0078(17) 0.0011(18) 0.0057(18)
C38 0.016(2) 0.013(2) 0.017(2) 0.0045(16) 0.0043(17) 0.0039(16)
C39 0.0077(18) 0.011(2) 0.018(2) 0.0060(15) -0.0002(16) -0.0001(15)
C40 0.015(2) 0.015(2) 0.023(2) 0.0085(17) 0.0056(17) 0.0031(17)
C41 0.017(2) 0.024(2) 0.028(2) 0.0181(19) 0.0088(18) 0.0047(18)
C42 0.013(2) 0.012(2) 0.025(2) 0.0063(17) 0.0007(17) -0.0015(16)
C43 0.017(2) 0.013(2) 0.017(2) -0.0050(16) 0.0010(17) -0.0062(17)
C44 0.020(2) 0.009(2) 0.020(2) 0.0042(16) 0.0054(18) -0.0033(17)
C45 0.019(2) 0.023(2) 0.015(2) 0.0074(17) 0.0052(17) 0.0040(18)
C46 0.028(3) 0.043(3) 0.026(2) 0.010(2) 0.015(2) 0.008(2)
N1 0.0119(17) 0.0138(18) 0.0142(16) 0.0036(13) 0.0029(14) 0.0004(14)
N2 0.0103(16) 0.0145(18) 0.0164(17) 0.0047(14) 0.0002(14) 0.0020(14)
N3 0.0104(16) 0.0131(17) 0.0135(16) 0.0055(13) 0.0029(13) 0.0017(14)
N4 0.0154(17) 0.0121(17) 0.0130(16) 0.0060(13) 0.0036(14) 0.0032(14)
Rh1 0.00858(15) 0.00846(15) 0.01175(14) 0.00289(10) 0.00224(11) 0.00057(11)
Cl1 0.0359(14) 0.0330(14) 0.0368(14) 0.0113(11) 0.0026(11) -0.0014(11)
Cl2 0.0349(14) 0.0294(14) 0.0443(15) 0.0082(11) 0.0144(12) 0.0066(11)
Cl3 0.0251(14) 0.057(2) 0.0559(19) 0.0284(15) 0.0079(14) -0.0055(14)
Cl4 0.103(3) 0.075(3) 0.048(2) 0.0327(19) 0.049(2) 0.056(3)
C47 0.035(6) 0.047(7) 0.009(4) 0.005(4) 0.010(4) 0.004(5)
loop_
_atom_type_symbol
_atom_type_description
_atom_type_scat_dispersion_real
_atom_type_scat_dispersion_imag
_atom_type_scat_source
C C 0.0033 0.0016 'International Tables Vol C Tables 4.2.6.8 and 6.1.1.4'
H H 0.0000 0.0000 'International Tables Vol C Tables 4.2.6.8 and 6.1.1.4'
N N 0.0061 0.0033 'International Tables Vol C Tables 4.2.6.8 and 6.1.1.4'
Rh Rh -1.1178 0.9187 'International Tables Vol C Tables 4.2.6.8 and 6.1.1.4'
Cl Cl 0.1484 0.1585 'International Tables Vol C Tables 4.2.6.8 and 6.1.1.4'
loop_
_geom_angle_atom_site_label_1
_geom_angle_atom_site_label_2
_geom_angle_atom_site_label_3
_geom_angle
N1 C1 C20 126.0(4)
N1 C1 C2 109.1(3)
C20 C1 C2 124.8(4)
C3 C2 C1 107.3(4)
C3 C2 H2 126.3
C1 C2 H2 126.3
C2 C3 C4 107.0(4)
C2 C3 H3 126.5
C4 C3 H3 126.5
N1 C4 C5 125.5(4)
N1 C4 C3 109.6(3)
C5 C4 C3 124.6(4)
C6 C5 C4 125.1(4)
C6 C5 C21 117.7(4)
C4 C5 C21 117.2(4)
N2 C6 C5 125.8(4)
N2 C6 C7 109.6(4)
C5 C6 C7 124.5(4)
C8 C7 C6 107.2(4)
C8 C7 H7 126.4
C6 C7 H7 126.4
C7 C8 C9 107.1(4)
C7 C8 H8 126.4
C9 C8 H8 126.4
N2 C9 C10 125.8(4)
N2 C9 C8 109.2(3)
C10 C9 C8 124.7(4)
C9 C10 C11 123.5(4)
C9 C10 C27 117.7(3)
C11 C10 C27 118.8(3)
N3 C11 C10 125.3(4)
N3 C11 C12 109.1(3)
C10 C11 C12 125.2(4)
C13 C12 C11 107.3(4)
C13 C12 H12 126.4
C11 C12 H12 126.4
C12 C13 C14 107.2(4)
C12 C13 H13 126.4
C14 C13 H13 126.4
N3 C14 C15 126.3(4)
N3 C14 C13 108.8(3)
C15 C14 C13 124.6(4)
C14 C15 C16 124.1(4)
C14 C15 C33 117.5(4)
C16 C15 C33 118.3(4)
N4 C16 C15 125.5(4)
N4 C16 C17 109.0(3)
C15 C16 C17 125.5(4)
C18 C17 C16 107.6(4)
C18 C17 H17 126.2
C16 C17 H17 126.2
C17 C18 C19 107.2(4)
C17 C18 H18 126.4
C19 C18 H18 126.4
N4 C19 C20 125.8(4)
N4 C19 C18 109.4(3)
C20 C19 C18 124.8(4)
C1 C20 C19 124.4(4)
C1 C20 C39 117.8(3)
C19 C20 C39 117.8(3)
C26 C21 C22 118.7(4)
C26 C21 C5 120.2(4)
C22 C21 C5 121.0(4)
C21 C22 C23 120.6(4)
C21 C22 H22 119.7
C23 C22 H22 119.7
C24 C23 C22 119.4(4)
C24 C23 H23 120.3
C22 C23 H23 120.3
C25 C24 C23 120.2(4)
C25 C24 H24 119.9
C23 C24 H24 119.9
C26 C25 C24 120.3(4)
C26 C25 H25 119.8
C24 C25 H25 119.8
C25 C26 C21 120.8(4)
C25 C26 H26 119.6
C21 C26 H26 119.6
C32 C27 C28 118.5(4)
C32 C27 C10 121.5(4)
C28 C27 C10 120.1(4)
C29 C28 C27 121.0(4)
C29 C28 H28 119.5
C27 C28 H28 119.5
C28 C29 C30 120.3(4)
C28 C29 H29 119.9
C30 C29 H29 119.9
C31 C30 C29 119.4(4)
C31 C30 H30 120.3
C29 C30 H30 120.3
C30 C31 C32 120.7(4)
C30 C31 H31 119.6
C32 C31 H31 119.6
C27 C32 C31 120.1(4)
C27 C32 H32 119.9
C31 C32 H32 119.9
C38 C33 C34 118.3(4)
C38 C33 C15 120.9(4)
C34 C33 C15 120.8(4)
C35 C34 C33 121.2(4)
C35 C34 H34 119.4
C33 C34 H34 119.4
C36 C35 C34 119.9(4)
C36 C35 H35 120.1
C34 C35 H35 120.1
C35 C36 C37 119.9(4)
C35 C36 H36 120.0
C37 C36 H36 120.0
C36 C37 C38 120.1(4)
C36 C37 H37 120.0
C38 C37 H37 120.0
C33 C38 C37 120.6(4)
C33 C38 H38 119.7
C37 C38 H38 119.7
C44 C39 C40 119.4(4)
C44 C39 C20 120.3(4)
C40 C39 C20 120.3(4)
C41 C40 C39 119.6(4)
C41 C40 H40 120.2
C39 C40 H40 120.2
C42 C41 C40 120.8(4)
C42 C41 H41 119.6
C40 C41 H41 119.6
C41 C42 C43 120.1(4)
C41 C42 H42 120.0
C43 C42 H42 120.0
C42 C43 C44 119.6(4)
C42 C43 H43 120.2
C44 C43 H43 120.2
C39 C44 C43 120.5(4)
C39 C44 H44 119.8
C43 C44 H44 119.8
C46 C45 Rh1 114.6(3)
C46 C45 H45A 108.6
Rh1 C45 H45A 108.6
C46 C45 H45B 108.6
Rh1 C45 H45B 108.6
H45A C45 H45B 107.6
C45 C46 H46A 109.5
C45 C46 H46B 109.5
H46A C46 H46B 109.5
C45 C46 H46C 109.5
H46A C46 H46C 109.5
H46B C46 H46C 109.5
C4 N1 C1 106.9(3)
C4 N1 Rh1 126.4(3)
C1 N1 Rh1 126.6(3)
C6 N2 C9 106.9(3)
C6 N2 Rh1 126.3(3)
C9 N2 Rh1 126.1(3)
C11 N3 C14 107.3(3)
C11 N3 Rh1 126.9(3)
C14 N3 Rh1 125.8(3)
C16 N4 C19 106.8(3)
C16 N4 Rh1 126.6(3)
C19 N4 Rh1 125.8(3)
N2 Rh1 N1 90.31(13)
N2 Rh1 N3 89.49(13)
N1 Rh1 N3 173.87(14)
N2 Rh1 N4 177.55(15)
N1 Rh1 N4 90.26(13)
N3 Rh1 N4 90.20(13)
N2 Rh1 C45 89.61(16)
N1 Rh1 C45 87.71(15)
N3 Rh1 C45 98.42(15)
N4 Rh1 C45 88.03(15)
Cl4 C47 Cl2 110.1(3)
Cl4 C47 Cl1 109.8(3)
Cl2 C47 Cl1 109.7(3)
Cl4 C47 Cl3 109.1(3)
Cl2 C47 Cl3 108.7(3)
Cl1 C47 Cl3 109.3(3)
loop_
_geom_bond_atom_site_label_1
_geom_bond_atom_site_label_2
_geom_bond_distance
C1 N1 1.378(5)
C1 C20 1.393(6)
C1 C2 1.452(5)
C2 C3 1.355(6)
C2 H2 0.9500
C3 C4 1.447(6)
C3 H3 0.9500
C4 N1 1.375(5)
C4 C5 1.401(6)
C5 C6 1.386(6)
C5 C21 1.506(5)
C6 N2 1.375(5)
C6 C7 1.449(6)
C7 C8 1.357(6)
C7 H7 0.9500
C8 C9 1.454(5)
C8 H8 0.9500
C9 N2 1.380(5)
C9 C10 1.398(5)
C10 C11 1.408(5)
C10 C27 1.492(6)
C11 N3 1.373(5)
C11 C12 1.451(5)
C12 C13 1.357(6)
C12 H12 0.9500
C13 C14 1.453(5)
C13 H13 0.9500
C14 N3 1.380(5)
C14 C15 1.396(6)
C15 C16 1.406(6)
C15 C33 1.498(5)
C16 N4 1.372(5)
C16 C17 1.449(6)
C17 C18 1.346(6)
C17 H17 0.9500
C18 C19 1.442(5)
C18 H18 0.9500
C19 N4 1.379(5)
C19 C20 1.408(5)
C20 C39 1.495(5)
C21 C26 1.392(6)
C21 C22 1.397(6)
C22 C23 1.406(6)
C22 H22 0.9500
C23 C24 1.385(6)
C23 H23 0.9500
C24 C25 1.385(6)
C24 H24 0.9500
C25 C26 1.384(6)
C25 H25 0.9500
C26 H26 0.9500
C27 C32 1.398(6)
C27 C28 1.399(6)
C28 C29 1.389(6)
C28 H28 0.9500
C29 C30 1.389(6)
C29 H29 0.9500
C30 C31 1.385(6)
C30 H30 0.9500
C31 C32 1.400(6)
C31 H31 0.9500
C32 H32 0.9500
C33 C38 1.387(6)
C33 C34 1.393(6)
C34 C35 1.389(6)
C34 H34 0.9500
C35 C36 1.379(6)
C35 H35 0.9500
C36 C37 1.382(6)
C36 H36 0.9500
C37 C38 1.395(6)
C37 H37 0.9500
C38 H38 0.9500
C39 C44 1.394(6)
C39 C40 1.400(6)
C40 C41 1.398(6)
C40 H40 0.9500
C41 C42 1.377(6)
C41 H41 0.9500
C42 C43 1.393(6)
C42 H42 0.9500
C43 C44 1.400(5)
C43 H43 0.9500
C44 H44 0.9500
C45 C46 1.494(6)
C45 Rh1 2.048(4)
C45 H45A 0.9900
C45 H45B 0.9900
C46 H46A 0.9800
C46 H46B 0.9800
C46 H46C 0.9800
N1 Rh1 2.026(3)
N2 Rh1 2.025(3)
N3 Rh1 2.028(3)
N4 Rh1 2.031(3)
Cl1 C47 1.766(6)
Cl2 C47 1.761(6)
Cl3 C47 1.779(6)
Cl4 C47 1.759(5)
loop_
_geom_torsion_atom_site_label_1
_geom_torsion_atom_site_label_2
_geom_torsion_atom_site_label_3
_geom_torsion_atom_site_label_4
_geom_torsion
N1 C1 C2 C3 1.0(5)
C20 C1 C2 C3 -175.7(4)
C1 C2 C3 C4 0.3(5)
C2 C3 C4 N1 -1.6(5)
C2 C3 C4 C5 172.3(4)
N1 C4 C5 C6 -1.0(7)
C3 C4 C5 C6 -173.9(4)
N1 C4 C5 C21 178.3(4)
C3 C4 C5 C21 5.4(6)
C4 C5 C6 N2 -6.5(7)
C21 C5 C6 N2 174.2(4)
C4 C5 C6 C7 171.5(4)
C21 C5 C6 C7 -7.8(6)
N2 C6 C7 C8 0.4(4)
C5 C6 C7 C8 -177.8(4)
C6 C7 C8 C9 -1.2(4)
C7 C8 C9 N2 1.7(4)
C7 C8 C9 C10 -172.2(4)
N2 C9 C10 C11 2.1(6)
C8 C9 C10 C11 175.0(4)
N2 C9 C10 C27 -178.9(4)
C8 C9 C10 C27 -6.0(6)
C9 C10 C11 N3 13.7(6)
C27 C10 C11 N3 -165.3(4)
C9 C10 C11 C12 -173.4(4)
C27 C10 C11 C12 7.6(6)
N3 C11 C12 C13 2.3(5)
C10 C11 C12 C13 -171.5(4)
C11 C12 C13 C14 1.1(5)
C12 C13 C14 N3 -4.1(5)
C12 C13 C14 C15 170.6(4)
N3 C14 C15 C16 -8.8(6)
C13 C14 C15 C16 177.4(4)
N3 C14 C15 C33 168.1(4)
C13 C14 C15 C33 -5.6(6)
C14 C15 C16 N4 -4.3(6)
C33 C15 C16 N4 178.7(4)
C14 C15 C16 C17 177.2(4)
C33 C15 C16 C17 0.2(6)
N4 C16 C17 C18 -1.0(5)
C15 C16 C17 C18 177.7(4)
C16 C17 C18 C19 0.9(5)
C17 C18 C19 N4 -0.5(5)
C17 C18 C19 C20 -177.8(4)
N1 C1 C20 C19 4.4(7)
C2 C1 C20 C19 -179.5(4)
N1 C1 C20 C39 -173.4(4)
C2 C1 C20 C39 2.7(6)
N4 C19 C20 C1 3.8(6)
C18 C19 C20 C1 -179.3(4)
N4 C19 C20 C39 -178.4(4)
C18 C19 C20 C39 -1.5(6)
C6 C5 C21 C26 -82.0(5)
C4 C5 C21 C26 98.7(5)
C6 C5 C21 C22 98.8(5)
C4 C5 C21 C22 -80.6(5)
C26 C21 C22 C23 0.7(6)
C5 C21 C22 C23 180.0(4)
C21 C22 C23 C24 -0.2(6)
C22 C23 C24 C25 -0.5(7)
C23 C24 C25 C26 0.7(7)
C24 C25 C26 C21 -0.2(7)
C22 C21 C26 C25 -0.5(6)
C5 C21 C26 C25 -179.8(4)
C9 C10 C27 C32 117.4(4)
C11 C10 C27 C32 -63.6(5)
C9 C10 C27 C28 -63.1(5)
C11 C10 C27 C28 116.0(4)
C32 C27 C28 C29 0.0(6)
C10 C27 C28 C29 -179.5(4)
C27 C28 C29 C30 0.8(6)
C28 C29 C30 C31 -1.0(6)
C29 C30 C31 C32 0.4(7)
C28 C27 C32 C31 -0.6(6)
C10 C27 C32 C31 178.9(4)
C30 C31 C32 C27 0.5(6)
C14 C15 C33 C38 119.4(4)
C16 C15 C33 C38 -63.4(5)
C14 C15 C33 C34 -61.1(5)
C16 C15 C33 C34 116.0(5)
C38 C33 C34 C35 -0.9(6)
C15 C33 C34 C35 179.7(4)
C33 C34 C35 C36 0.0(7)
C34 C35 C36 C37 0.5(7)
C35 C36 C37 C38 0.0(6)
C34 C33 C38 C37 1.4(6)
C15 C33 C38 C37 -179.2(4)
C36 C37 C38 C33 -0.9(6)
C1 C20 C39 C44 103.9(5)
C19 C20 C39 C44 -74.0(5)
C1 C20 C39 C40 -74.3(5)
C19 C20 C39 C40 107.8(4)
C44 C39 C40 C41 -0.2(6)
C20 C39 C40 C41 178.1(4)
C39 C40 C41 C42 -0.3(6)
C40 C41 C42 C43 0.4(6)
C41 C42 C43 C44 0.1(6)
C40 C39 C44 C43 0.6(6)
C20 C39 C44 C43 -177.7(4)
C42 C43 C44 C39 -0.5(6)
C5 C4 N1 C1 -171.6(4)
C3 C4 N1 C1 2.3(4)
C5 C4 N1 Rh1 5.4(6)
C3 C4 N1 Rh1 179.2(3)
C20 C1 N1 C4 174.6(4)
C2 C1 N1 C4 -2.0(4)
C20 C1 N1 Rh1 -2.4(6)
C2 C1 N1 Rh1 -179.0(3)
C5 C6 N2 C9 178.9(4)
C7 C6 N2 C9 0.7(4)
C5 C6 N2 Rh1 8.5(6)
C7 C6 N2 Rh1 -169.7(3)
C10 C9 N2 C6 172.4(4)
C8 C9 N2 C6 -1.4(4)
C10 C9 N2 Rh1 -17.2(6)
C8 C9 N2 Rh1 169.0(3)
C10 C11 N3 C14 168.9(4)
C12 C11 N3 C14 -4.9(4)
C10 C11 N3 Rh1 -12.7(6)
C12 C11 N3 Rh1 173.5(3)
C15 C14 N3 C11 -169.1(4)
C13 C14 N3 C11 5.5(4)
C15 C14 N3 Rh1 12.5(6)
C13 C14 N3 Rh1 -172.9(3)
C15 C16 N4 C19 -178.0(4)
C17 C16 N4 C19 0.7(4)
C15 C16 N4 Rh1 12.1(6)
C17 C16 N4 Rh1 -169.2(3)
C20 C19 N4 C16 177.1(4)
C18 C19 N4 C16 -0.2(4)
C20 C19 N4 Rh1 -12.9(6)
C18 C19 N4 Rh1 169.8(3)
