#------------------------------------------------------------------------------
#$Date: 2016-03-21 15:23:04 +0200 (Mon, 21 Mar 2016) $
#$Revision: 178745 $
#$URL: svn://www.crystallography.net/cod/cif/4/08/56/4085632.cif $
#------------------------------------------------------------------------------
#
# This file is available in the Crystallography Open Database (COD),
# http://www.crystallography.net/
#
# All data on this site have been placed in the public domain by the
# contributors.
#
data_4085632
loop_
_publ_author_name
'Harvey, Pierre D.'
'Tasan, Semra'
'Gros, Claude P.'
'Devillers, Charles H.'
'Richard, Philippe'
'Gendre, Pierre Le'
'Bodio, Ewen'
_publ_section_title
;
 Ruthenium and Osmium Complexes of Phosphine-Porphyrin Derivatives as
 Potential Bimetallic Theranostics: Photophysical Studies
;
_journal_issue                   7
_journal_name_full               Organometallics
_journal_page_first              1218
_journal_paper_doi               10.1021/om5011808
_journal_volume                  34
_journal_year                    2015
_chemical_formula_moiety         'C33 H32 Cl2 N O4 P Ru'
_chemical_formula_sum            'C33 H32 Cl2 N O4 P Ru'
_chemical_formula_weight         709.53
_chemical_name_systematic
;
 ?
;
_space_group_crystal_system      monoclinic
_space_group_IT_number           9
_space_group_name_Hall           'C -2yc'
_space_group_name_H-M_alt        'C 1 c 1'
_symmetry_space_group_name_Hall  'C -2yc'
_symmetry_space_group_name_H-M   'C 1 c 1'
_atom_sites_solution_hydrogens   geom
_atom_sites_solution_primary     direct
_audit_creation_date             2014-11-10
_audit_creation_method
;
Olex2 1.2
(compiled 2014.09.19 svn.r3010 for OlexSys, GUI svn.r4874)
;
_cell_angle_alpha                90
_cell_angle_beta                 115.208(2)
_cell_angle_gamma                90
_cell_formula_units_Z            4
_cell_length_a                   24.5726(9)
_cell_length_b                   8.0142(3)
_cell_length_c                   16.8295(6)
_cell_measurement_reflns_used    3384
_cell_measurement_temperature    110
_cell_measurement_theta_max      27.485
_cell_measurement_theta_min      0.998
_cell_volume                     2998.6(2)
_computing_molecular_graphics    'Olex2 (Dolomanov et al., 2009)'
_computing_publication_material  'Olex2 (Dolomanov et al., 2009)'
_computing_structure_refinement  'XL (Sheldrick, 2008)'
_computing_structure_solution    'ShelXS (Sheldrick, 2008)'
_diffrn_ambient_temperature      110
_diffrn_detector                 'CCD Plate'
_diffrn_detector_area_resol_mean 9
_diffrn_detector_type            'CCD area detector'
_diffrn_measured_fraction_theta_full 0.999
_diffrn_measured_fraction_theta_max 0.998
_diffrn_measurement_device       '\k-geometry diffractometer'
_diffrn_measurement_device_type  'Nonius Kappa Apex II'
_diffrn_measurement_method       'CCD rotation images, thick slices'
_diffrn_radiation_collimation    '0.6 mm'
_diffrn_radiation_monochromator  graphite
_diffrn_radiation_probe          x-ray
_diffrn_radiation_type           MoK\a
_diffrn_radiation_wavelength     0.71073
_diffrn_reflns_av_R_equivalents  0.0441
_diffrn_reflns_av_unetI/netI     0.0469
_diffrn_reflns_Laue_measured_fraction_full 0.999
_diffrn_reflns_Laue_measured_fraction_max 0.998
_diffrn_reflns_limit_h_max       31
_diffrn_reflns_limit_h_min       -31
_diffrn_reflns_limit_k_max       10
_diffrn_reflns_limit_k_min       -10
_diffrn_reflns_limit_l_max       21
_diffrn_reflns_limit_l_min       -21
_diffrn_reflns_number            11192
_diffrn_reflns_point_group_measured_fraction_full 0.999
_diffrn_reflns_point_group_measured_fraction_max 0.998
_diffrn_reflns_theta_full        25.242
_diffrn_reflns_theta_max         27.490
_diffrn_reflns_theta_min         2.675
_diffrn_source                   'X-ray tube'
_diffrn_source_target            Mo
_diffrn_source_type              'Siemens KFF Mo 2K-180'
_exptl_absorpt_coefficient_mu    0.794
_exptl_absorpt_correction_T_max  1.00
_exptl_absorpt_correction_T_min  0.89
_exptl_absorpt_correction_type   multi-scan
_exptl_absorpt_process_details
'[c.f. r.h. blessing, acta cryst. (1995), a51, 33-38]'
_exptl_crystal_colour            orange
_exptl_crystal_colour_primary    orange
_exptl_crystal_density_diffrn    1.572
_exptl_crystal_description       prism
_exptl_crystal_F_000             1448
_exptl_crystal_size_max          0.1
_exptl_crystal_size_mid          0.075
_exptl_crystal_size_min          0.025
_refine_diff_density_max         0.499
_refine_diff_density_min         -0.611
_refine_diff_density_rms         0.126
_refine_ls_abs_structure_details
;
 Refined as an inversion twin.
;
_refine_ls_abs_structure_Flack   -0.05(4)
_refine_ls_extinction_method     none
_refine_ls_goodness_of_fit_ref   1.077
_refine_ls_hydrogen_treatment    constr
_refine_ls_matrix_type           full
_refine_ls_number_parameters     381
_refine_ls_number_reflns         6233
_refine_ls_number_restraints     2
_refine_ls_restrained_S_all      1.077
_refine_ls_R_factor_all          0.0439
_refine_ls_R_factor_gt           0.0393
_refine_ls_shift/su_max          0.000
_refine_ls_shift/su_mean         0.000
_refine_ls_structure_factor_coef Fsqd
_refine_ls_weighting_details
'w=1/[\s^2^(Fo^2^)+19.8498P] where P=(Fo^2^+2Fc^2^)/3'
_refine_ls_weighting_scheme      calc
_refine_ls_wR_factor_gt          0.0854
_refine_ls_wR_factor_ref         0.0896
_reflns_Friedel_coverage         0.999
_reflns_Friedel_fraction_full    0.999
_reflns_Friedel_fraction_max     0.998
_reflns_number_gt                5958
_reflns_number_total             6233
_reflns_threshold_expression     'I > 2\s(I)'
_iucr_refine_instructions_details
;
TITL margot12 in C c
CELL 0.71073 24.5726 8.0142 16.8295 90 115.208 90
ZERR 4 0.0009 0.0003 0.0006 0 0.002 0
LATT -7
SYMM +X,-Y,0.5+Z
 
SFAC C H Cl N O P Ru
UNIT 132 128 8 4 16 4 4
 
L.S. 6
PLAN  5
TEMP -163.15
MPLA 6 C23 C24 C25 C26 C27 C28
MPLA 7 N C33 O4 C30 O3 C31 C32
CONF C1 C2 C3 C4
CONF C29 C26 C23 P
CONF C4 C1 Ru P
BOND $H
MORE -1
CONF
fmap 2
acta
MERG 2
TWIN -1 0 0 0 -1 0 0 0 -1 2
OMIT 2 0 -2
OMIT 2 0 0
OMIT -1 1 1
OMIT 1 1 0
OMIT -2 0 2
REM <HKL>C:/Users/admrichard/Documents/work/pierre/margot/margot12/abs/multisc
REM an.hkl</HKL>
 
WGHT    0.000000   19.849800
BASF  -0.04787
FVAR       0.23415
RU    7    0.478130    0.472425    0.181270    11.00000    0.01280    0.01754 =
         0.01460   -0.00111    0.00585    0.00045
CL1   3    0.447824    0.195873    0.122094    11.00000    0.01803    0.02199 =
         0.02509   -0.00741    0.00448    0.00207
CL2   3    0.544156    0.482214    0.109081    11.00000    0.02257    0.03994 =
         0.02092    0.00774    0.01366    0.00794
P     6    0.558867    0.340007    0.297418    11.00000    0.01318    0.01676 =
         0.01502   -0.00041    0.00621   -0.00065
O2    5    0.703432   -0.218648    0.153809    11.00000    0.02167    0.02918 =
         0.03977   -0.01299    0.01928   -0.00268
O1    5    0.778942   -0.030387    0.209589    11.00000    0.01894    0.04279 =
         0.04224   -0.02126    0.01485   -0.00401
O4    5    0.728485   -0.139289    0.010383    11.00000    0.02880    0.02711 =
         0.03486   -0.00136    0.01237    0.00291
O3    5    0.778727   -0.483929    0.247071    11.00000    0.04400    0.03516 =
         0.03234   -0.00520    0.01695   -0.00162
C26   1    0.686627    0.023018    0.221300    11.00000    0.01598    0.02617 =
         0.01441    0.00164    0.00534    0.00390
C29   1    0.728756   -0.070862    0.196764    11.00000    0.01991    0.02837 =
         0.01927   -0.00631    0.00789    0.00066
C2    1    0.480959    0.724569    0.235618    11.00000    0.01437    0.01428 =
         0.02676   -0.00132    0.00540    0.00075
AFIX  43
H2    2    0.514181    0.791216    0.272185    11.00000   -1.20000
AFIX   0
C25   1    0.629635   -0.035023    0.204154    11.00000    0.01611    0.01799 =
         0.02104    0.00051    0.00938    0.00361
AFIX  43
H25   2    0.616451   -0.140012    0.176371    11.00000   -1.20000
AFIX   0
C3    1    0.459543    0.733002    0.143502    11.00000    0.02184    0.01000 =
         0.03078    0.00272    0.01371    0.00071
AFIX  43
H3    2    0.479951    0.802330    0.119185    11.00000   -1.20000
AFIX   0
C12   1    0.476437    0.164193    0.340234    11.00000    0.02549    0.01422 =
         0.02504   -0.00446    0.01265   -0.00203
AFIX  43
H12   2    0.446377    0.220882    0.291863    11.00000   -1.20000
AFIX   0
C18   1    0.632117    0.621607    0.347923    11.00000    0.02320    0.01710 =
         0.01833    0.00227    0.00839    0.00229
AFIX  43
H18   2    0.623891    0.627396    0.287484    11.00000   -1.20000
AFIX   0
C15   1    0.563526   -0.002216    0.480318    11.00000    0.03377    0.02321 =
         0.02087    0.00014    0.01279   -0.00008
AFIX  43
H15   2    0.593483   -0.059880    0.528380    11.00000   -1.20000
AFIX   0
C6    1    0.402882    0.522659    0.217076    11.00000    0.01197    0.01889 =
         0.02376    0.00003    0.00944    0.00214
AFIX  43
H6    2    0.383354    0.449379    0.241031    11.00000   -1.20000
AFIX   0
N     4    0.742625   -0.305729    0.128655    11.00000    0.02586    0.02696 =
         0.03158   -0.00986    0.01553    0.00177
C19   1    0.668073    0.741758    0.405432    11.00000    0.01545    0.02054 =
         0.02721    0.00336    0.00722    0.00088
AFIX  43
H19   2    0.685114    0.828240    0.384666    11.00000   -1.20000
AFIX   0
C1    1    0.452697    0.615909    0.273808    11.00000    0.01997    0.01631 =
         0.02206   -0.00352    0.01062    0.00482
C11   1    0.536929    0.188932    0.359700    11.00000    0.02358    0.01899 =
         0.01633   -0.00336    0.01199   -0.00437
C20   1    0.679276    0.735751    0.493991    11.00000    0.01704    0.01823 =
         0.02391   -0.00338    0.00008   -0.00007
AFIX  43
H20   2    0.704369    0.817290    0.533677    11.00000   -1.20000
AFIX   0
C8    1    0.387427    0.655240   -0.012234    11.00000    0.02227    0.02905 =
         0.01920    0.00372    0.00843    0.00410
AFIX  13
H8    2    0.423298    0.672902   -0.024776    11.00000   -1.20000
AFIX   0
C27   1    0.706355    0.175861    0.262078    11.00000    0.01113    0.02405 =
         0.02215   -0.00245    0.00677   -0.00186
AFIX  43
H27   2    0.745667    0.214131    0.273981    11.00000   -1.20000
AFIX   0
C31   1    0.812333   -0.498407    0.128343    11.00000    0.02448    0.02917 =
         0.03660   -0.00682    0.01172    0.00266
AFIX  23
H31A  2    0.804683   -0.618526    0.114290    11.00000   -1.20000
H31B  2    0.856043   -0.481754    0.163477    11.00000   -1.20000
AFIX   0
C7    1    0.473145    0.605304    0.371899    11.00000    0.02607    0.02319 =
         0.01920   -0.00320    0.01111    0.00481
AFIX 137
H7A   2    0.447099    0.675012    0.388943    11.00000   -1.50000
H7B   2    0.514748    0.644782    0.401884    11.00000   -1.50000
H7C   2    0.470865    0.489233    0.388556    11.00000   -1.50000
AFIX   0
C24   1    0.591638    0.061627    0.227928    11.00000    0.01304    0.02448 =
         0.01717   -0.00045    0.00823   -0.00021
AFIX  43
H24   2    0.552519    0.022477    0.216573    11.00000   -1.20000
AFIX   0
C10   1    0.354245    0.497804   -0.060949    11.00000    0.03365    0.03819 =
         0.01870   -0.00217    0.00951    0.00476
AFIX  33
H10A  2    0.341447    0.512423   -0.124194    11.00000   -1.50000
H10B  2    0.381234    0.401445   -0.040403    11.00000   -1.50000
H10C  2    0.318885    0.479100   -0.049330    11.00000   -1.50000
AFIX   0
C21   1    0.653881    0.611352    0.523770    11.00000    0.02470    0.02116 =
         0.01994   -0.00399    0.00729    0.00180
AFIX  43
H21   2    0.660200    0.610002    0.583524    11.00000   -1.20000
AFIX   0
C30   1    0.777672   -0.437823    0.177965    11.00000    0.02128    0.02492 =
         0.03193   -0.00812    0.00655   -0.00437
C5    1    0.381276    0.536127    0.124652    11.00000    0.01587    0.02420 =
         0.01971   -0.00183    0.00538    0.00439
AFIX  43
H5    2    0.347350    0.471871    0.088014    11.00000   -1.20000
AFIX   0
C17   1    0.607755    0.491493    0.378151    11.00000    0.00988    0.02460 =
         0.01791   -0.00358    0.00414   -0.00072
C4    1    0.408498    0.641341    0.085889    11.00000    0.02017    0.02234 =
         0.02039    0.00201    0.00919    0.00474
C22   1    0.619082    0.487933    0.466761    11.00000    0.02029    0.01804 =
         0.01815   -0.00071    0.00738    0.00189
AFIX  43
H22   2    0.602886    0.400518    0.488247    11.00000   -1.20000
AFIX   0
C14   1    0.503738   -0.022436    0.463243    11.00000    0.05313    0.02157 =
         0.02890   -0.00420    0.02801   -0.00115
AFIX  43
H14   2    0.492930   -0.090135    0.500604    11.00000   -1.20000
AFIX   0
C32   1    0.789875   -0.394492    0.044224    11.00000    0.02062    0.02638 =
         0.03494   -0.00504    0.01391   -0.00120
AFIX  23
H32A  2    0.824140   -0.343709    0.036781    11.00000   -1.20000
H32B  2    0.766894   -0.465077   -0.007603    11.00000   -1.20000
AFIX   0
C33   1    0.749988   -0.260823    0.054234    11.00000    0.02130    0.02782 =
         0.03016   -0.00985    0.01213   -0.00537
C28   1    0.668703    0.273126    0.285555    11.00000    0.02208    0.01941 =
         0.02408   -0.00276    0.01137   -0.00090
AFIX  43
H28   2    0.682209    0.378108    0.313159    11.00000   -1.20000
AFIX   0
C13   1    0.459559    0.056403    0.391397    11.00000    0.03074    0.02326 =
         0.03737   -0.00300    0.02502   -0.00188
AFIX  43
H13   2    0.418246    0.037546    0.376985    11.00000   -1.20000
AFIX   0
C23   1    0.611503    0.217141    0.268743    11.00000    0.01619    0.01844 =
         0.01526    0.00357    0.00701    0.00216
C16   1    0.580766    0.100892    0.428554    11.00000    0.02999    0.02018 =
         0.01803   -0.00072    0.01202    0.00367
AFIX  43
H16   2    0.621975    0.111095    0.440064    11.00000   -1.20000
AFIX   0
C9    1    0.345830    0.807081   -0.045823    11.00000    0.02927    0.04673 =
         0.02543    0.00823    0.01187    0.01206
AFIX  33
H9A   2    0.331968    0.816887   -0.109522    11.00000   -1.50000
H9B   2    0.311088    0.793111   -0.032211    11.00000   -1.50000
H9C   2    0.367858    0.908252   -0.017193    11.00000   -1.50000
AFIX   0
HKLF 4
 
REM  margot12 in C c
REM R1 =  0.0393 for    5958 Fo > 4sig(Fo)  and  0.0439 for all    6233 data
REM    381 parameters refined using      2 restraints
 
END  
     
WGHT      0.0000     19.8484 

REM Highest difference peak  0.499,  deepest hole -0.611,  1-sigma level  0.126
Q1    1   0.4845  0.0537  0.4392  11.00000  0.05    0.50
Q2    1   0.5501 -0.0171  0.5119  11.00000  0.05    0.46
Q3    1   0.4985  0.0242  0.2548  11.00000  0.05    0.44
Q4    1   0.4337  0.0614  0.4809  11.00000  0.05    0.44
Q5    1   0.6364  0.7058  0.3896  11.00000  0.05    0.44

REM The information below was added by Olex2.
REM
REM R1 = 0.0393 for 5958 Fo > 4sig(Fo) and 0.0439 for all 11679 data
REM n/a parameters refined using n/a restraints
REM Highest difference peak 0.50, deepest hole -0.61
REM Mean Shift 0, Max Shift 0.000.

REM +++ Tabular Listing of Refinement Information +++
REM R1_all = 0.0439
REM R1_gt = 0.0393
REM wR_ref = 0.0896
REM GOOF = 1.077
REM Shift_max = 0.000
REM Shift_mean = 0
REM Reflections_all = 11679
REM Reflections_gt = 5958
REM Parameters = n/a
REM Hole = -0.61
REM Peak = 0.50
REM Flack = n/a

;
_cod_data_source_file            om5011808_si_002.cif
_cod_data_source_block           margot12
_cod_depositor_comments          'Adding full bibliography for 4085632.cif.'
_cod_database_code               4085632
#BEGIN Tags that were not found in dictionaries:
_shelxl_version_number           2014-3
_shelx_space_group_comment
;
The symmetry employed for this shelxl refinement is uniquely defined
by the following loop, which should always be used as a source of
symmetry information in preference to the above space-group names.
They are only intended as comments.
;
_olex2_refinement_description
;
1. Fixed Uiso
 At 1.2 times of:
  All C(H) groups, All C(H,H) groups
 At 1.5 times of:
  All C(H,H,H) groups
2.a Ternary CH refined with riding coordinates:
 C8(H8)
2.b Secondary CH2 refined with riding coordinates:
 C31(H31A,H31B), C32(H32A,H32B)
2.c Me refined with riding coordinates:
 C10(H10A,H10B,H10C), C9(H9A,H9B,H9C)
2.d Aromatic/amide H refined with riding coordinates:
 C2(H2), C25(H25), C3(H3), C12(H12), C18(H18), C15(H15), C6(H6), C19(H19),
 C20(H20), C27(H27), C24(H24), C21(H21), C5(H5), C22(H22), C14(H14), C28(H28),
 C13(H13), C16(H16)
2.e Idealised Me refined as rotating group:
 C7(H7A,H7B,H7C)
;
_olex2_submission_special_instructions 'No special instructions were received'
#END Tags that were not found in dictionaries
loop_
_space_group_symop_operation_xyz
'x, y, z'
'x, -y, z+1/2'
'x+1/2, y+1/2, z'
'x+1/2, -y+1/2, z+1/2'
loop_
_atom_site_label
_atom_site_type_symbol
_atom_site_fract_x
_atom_site_fract_y
_atom_site_fract_z
_atom_site_U_iso_or_equiv
_atom_site_adp_type
_atom_site_occupancy
_atom_site_site_symmetry_order
_atom_site_calc_flag
_atom_site_refinement_flags_posn
Ru Ru 0.47813(2) 0.47243(5) 0.18127(2) 0.01498(11) Uani 1 1 d .
Cl1 Cl 0.44782(7) 0.1959(2) 0.12209(10) 0.0233(3) Uani 1 1 d .
Cl2 Cl 0.54416(8) 0.4822(2) 0.10908(11) 0.0263(4) Uani 1 1 d .
P P 0.55887(7) 0.3400(2) 0.29742(10) 0.0149(3) Uani 1 1 d .
O2 O 0.7034(2) -0.2186(6) 0.1538(3) 0.0281(11) Uani 1 1 d .
O1 O 0.7789(2) -0.0304(7) 0.2096(4) 0.0340(12) Uani 1 1 d .
O4 O 0.7285(2) -0.1393(6) 0.0104(3) 0.0307(11) Uani 1 1 d .
O3 O 0.7787(3) -0.4839(7) 0.2471(4) 0.0369(13) Uani 1 1 d .
C26 C 0.6866(3) 0.0230(9) 0.2213(4) 0.0192(13) Uani 1 1 d .
C29 C 0.7288(3) -0.0709(9) 0.1968(4) 0.0227(14) Uani 1 1 d .
C2 C 0.4810(3) 0.7246(8) 0.2356(5) 0.0196(13) Uani 1 1 d .
H2 H 0.5142 0.7912 0.2722 0.024 Uiso 1 1 calc R
C25 C 0.6296(3) -0.0350(8) 0.2042(4) 0.0179(14) Uani 1 1 d .
H25 H 0.6165 -0.1400 0.1764 0.021 Uiso 1 1 calc R
C3 C 0.4595(3) 0.7330(8) 0.1435(4) 0.0200(14) Uani 1 1 d .
H3 H 0.4800 0.8023 0.1192 0.024 Uiso 1 1 calc R
C12 C 0.4764(3) 0.1642(8) 0.3402(4) 0.0209(13) Uani 1 1 d .
H12 H 0.4464 0.2209 0.2919 0.025 Uiso 1 1 calc R
C18 C 0.6321(3) 0.6216(8) 0.3479(4) 0.0197(13) Uani 1 1 d .
H18 H 0.6239 0.6274 0.2875 0.024 Uiso 1 1 calc R
C15 C 0.5635(3) -0.0022(8) 0.4803(4) 0.0255(15) Uani 1 1 d .
H15 H 0.5935 -0.0599 0.5284 0.031 Uiso 1 1 calc R
C6 C 0.4029(3) 0.5227(8) 0.2171(4) 0.0176(13) Uani 1 1 d .
H6 H 0.3834 0.4494 0.2410 0.021 Uiso 1 1 calc R
N N 0.7426(3) -0.3057(8) 0.1287(4) 0.0270(14) Uani 1 1 d .
C19 C 0.6681(3) 0.7418(8) 0.4054(4) 0.0217(13) Uani 1 1 d .
H19 H 0.6851 0.8282 0.3847 0.026 Uiso 1 1 calc R
C1 C 0.4527(3) 0.6159(8) 0.2738(4) 0.0189(12) Uani 1 1 d .
C11 C 0.5369(3) 0.1889(8) 0.3597(4) 0.0184(12) Uani 1 1 d .
C20 C 0.6793(3) 0.7358(8) 0.4940(4) 0.0227(14) Uani 1 1 d .
H20 H 0.7044 0.8173 0.5337 0.027 Uiso 1 1 calc R
C8 C 0.3874(3) 0.6552(9) -0.0122(4) 0.0236(14) Uani 1 1 d .
H8 H 0.4233 0.6729 -0.0248 0.028 Uiso 1 1 calc R
C27 C 0.7064(3) 0.1759(9) 0.2621(4) 0.0192(13) Uani 1 1 d .
H27 H 0.7457 0.2141 0.2740 0.023 Uiso 1 1 calc R
C31 C 0.8123(4) -0.4984(10) 0.1283(5) 0.0305(18) Uani 1 1 d .
H31A H 0.8047 -0.6185 0.1143 0.037 Uiso 1 1 calc R
H31B H 0.8560 -0.4818 0.1635 0.037 Uiso 1 1 calc R
C7 C 0.4731(3) 0.6053(8) 0.3719(4) 0.0223(14) Uani 1 1 d .
H7A H 0.4471 0.6750 0.3889 0.033 Uiso 1 1 calc GR
H7B H 0.5147 0.6448 0.4019 0.033 Uiso 1 1 calc GR
H7C H 0.4709 0.4892 0.3886 0.033 Uiso 1 1 calc GR
C24 C 0.5916(3) 0.0616(8) 0.2279(4) 0.0176(12) Uani 1 1 d .
H24 H 0.5525 0.0225 0.2166 0.021 Uiso 1 1 calc R
C10 C 0.3542(4) 0.4978(10) -0.0609(5) 0.0307(17) Uani 1 1 d .
H10A H 0.3414 0.5124 -0.1242 0.046 Uiso 1 1 calc R
H10B H 0.3812 0.4014 -0.0404 0.046 Uiso 1 1 calc R
H10C H 0.3189 0.4791 -0.0493 0.046 Uiso 1 1 calc R
C21 C 0.6539(3) 0.6114(8) 0.5238(4) 0.0227(13) Uani 1 1 d .
H21 H 0.6602 0.6100 0.5835 0.027 Uiso 1 1 calc R
C30 C 0.7777(3) -0.4378(9) 0.1780(5) 0.0277(16) Uani 1 1 d .
C5 C 0.3813(3) 0.5361(8) 0.1247(4) 0.0207(13) Uani 1 1 d .
H5 H 0.3473 0.4719 0.0880 0.025 Uiso 1 1 calc R
C17 C 0.6078(3) 0.4915(8) 0.3782(4) 0.0181(12) Uani 1 1 d .
C4 C 0.4085(3) 0.6413(8) 0.0859(4) 0.0208(13) Uani 1 1 d .
C22 C 0.6191(3) 0.4879(8) 0.4668(4) 0.0191(13) Uani 1 1 d .
H22 H 0.6029 0.4005 0.4882 0.023 Uiso 1 1 calc R
C14 C 0.5037(4) -0.0224(9) 0.4632(6) 0.031(2) Uani 1 1 d .
H14 H 0.4929 -0.0901 0.5006 0.037 Uiso 1 1 calc R
C32 C 0.7899(3) -0.3945(9) 0.0442(5) 0.0266(14) Uani 1 1 d .
H32A H 0.8241 -0.3437 0.0368 0.032 Uiso 1 1 calc R
H32B H 0.7669 -0.4651 -0.0076 0.032 Uiso 1 1 calc R
C33 C 0.7500(3) -0.2608(9) 0.0542(5) 0.0260(15) Uani 1 1 d .
C28 C 0.6687(3) 0.2731(8) 0.2856(4) 0.0213(13) Uani 1 1 d .
H28 H 0.6822 0.3781 0.3132 0.026 Uiso 1 1 calc R
C13 C 0.4596(4) 0.0564(10) 0.3914(6) 0.0268(17) Uani 1 1 d .
H13 H 0.4182 0.0375 0.3770 0.032 Uiso 1 1 calc R
C23 C 0.6115(3) 0.2171(8) 0.2687(4) 0.0165(12) Uani 1 1 d .
C16 C 0.5808(3) 0.1009(8) 0.4286(4) 0.0221(13) Uani 1 1 d .
H16 H 0.6220 0.1111 0.4401 0.027 Uiso 1 1 calc R
C9 C 0.3458(4) 0.8071(11) -0.0458(5) 0.0337(18) Uani 1 1 d .
H9A H 0.3320 0.8169 -0.1095 0.051 Uiso 1 1 calc R
H9B H 0.3111 0.7931 -0.0322 0.051 Uiso 1 1 calc R
H9C H 0.3679 0.9083 -0.0172 0.051 Uiso 1 1 calc R
loop_
_atom_site_aniso_label
_atom_site_aniso_U_11
_atom_site_aniso_U_22
_atom_site_aniso_U_33
_atom_site_aniso_U_23
_atom_site_aniso_U_13
_atom_site_aniso_U_12
Ru 0.0128(2) 0.0175(2) 0.01460(19) -0.0011(3) 0.00585(16) 0.0005(3)
Cl1 0.0180(8) 0.0220(8) 0.0251(7) -0.0074(6) 0.0045(6) 0.0021(6)
Cl2 0.0226(9) 0.0399(10) 0.0209(8) 0.0077(7) 0.0137(7) 0.0079(8)
P 0.0132(8) 0.0168(8) 0.0150(7) -0.0004(6) 0.0062(6) -0.0006(6)
O2 0.022(3) 0.029(3) 0.040(3) -0.013(2) 0.019(2) -0.003(2)
O1 0.019(3) 0.043(3) 0.042(3) -0.021(2) 0.015(2) -0.004(2)
O4 0.029(3) 0.027(3) 0.035(3) -0.001(2) 0.012(2) 0.003(2)
O3 0.044(4) 0.035(3) 0.032(3) -0.005(2) 0.017(3) -0.002(3)
C26 0.016(3) 0.026(4) 0.014(3) 0.002(2) 0.005(3) 0.004(3)
C29 0.020(4) 0.028(4) 0.019(3) -0.006(3) 0.008(3) 0.001(3)
C2 0.014(3) 0.014(3) 0.027(3) -0.001(2) 0.005(3) 0.001(2)
C25 0.016(3) 0.018(3) 0.021(3) 0.001(3) 0.009(3) 0.004(3)
C3 0.022(4) 0.010(3) 0.031(3) 0.003(2) 0.014(3) 0.001(2)
C12 0.025(4) 0.014(3) 0.025(3) -0.004(2) 0.013(3) -0.002(3)
C18 0.023(4) 0.017(3) 0.018(3) 0.002(2) 0.008(3) 0.002(2)
C15 0.034(4) 0.023(4) 0.021(3) 0.000(3) 0.013(3) 0.000(3)
C6 0.012(3) 0.019(3) 0.024(3) 0.000(3) 0.009(3) 0.002(2)
N 0.026(3) 0.027(3) 0.032(3) -0.010(3) 0.016(3) 0.002(2)
C19 0.015(3) 0.021(3) 0.027(3) 0.003(3) 0.007(3) 0.001(2)
C1 0.020(3) 0.016(3) 0.022(3) -0.004(2) 0.011(3) 0.005(2)
C11 0.024(3) 0.019(3) 0.016(3) -0.003(2) 0.012(3) -0.004(3)
C20 0.017(3) 0.018(3) 0.024(3) -0.003(2) 0.000(3) 0.000(2)
C8 0.022(4) 0.029(4) 0.019(3) 0.004(3) 0.008(3) 0.004(3)
C27 0.011(3) 0.024(3) 0.022(3) -0.002(3) 0.007(3) -0.002(2)
C31 0.024(4) 0.029(4) 0.037(4) -0.007(3) 0.012(4) 0.003(3)
C7 0.026(4) 0.023(3) 0.019(3) -0.003(2) 0.011(3) 0.005(3)
C24 0.013(3) 0.024(3) 0.017(3) 0.000(2) 0.008(2) 0.000(2)
C10 0.034(5) 0.038(5) 0.019(3) -0.002(3) 0.010(3) 0.005(3)
C21 0.025(4) 0.021(3) 0.020(3) -0.004(3) 0.007(3) 0.002(3)
C30 0.021(4) 0.025(4) 0.032(4) -0.008(3) 0.007(3) -0.004(3)
C5 0.016(3) 0.024(3) 0.020(3) -0.002(2) 0.005(2) 0.004(3)
C17 0.010(3) 0.025(3) 0.018(3) -0.004(2) 0.004(2) -0.001(2)
C4 0.020(4) 0.022(3) 0.020(3) 0.002(2) 0.009(3) 0.005(3)
C22 0.020(4) 0.018(3) 0.018(3) -0.001(3) 0.007(3) 0.002(3)
C14 0.053(6) 0.022(4) 0.029(4) -0.004(3) 0.028(4) -0.001(3)
C32 0.021(4) 0.026(4) 0.035(4) -0.005(3) 0.014(3) -0.001(3)
C33 0.021(4) 0.028(4) 0.030(3) -0.010(3) 0.012(3) -0.005(3)
C28 0.022(4) 0.019(3) 0.024(3) -0.003(2) 0.011(3) -0.001(3)
C13 0.031(4) 0.023(4) 0.037(4) -0.003(3) 0.025(4) -0.002(3)
C23 0.016(3) 0.018(3) 0.015(3) 0.004(2) 0.007(2) 0.002(2)
C16 0.030(4) 0.020(3) 0.018(3) -0.001(2) 0.012(3) 0.004(3)
C9 0.029(4) 0.047(5) 0.025(3) 0.008(3) 0.012(3) 0.012(3)
loop_
_atom_type_symbol
_atom_type_description
_atom_type_scat_dispersion_real
_atom_type_scat_dispersion_imag
_atom_type_scat_source
C C 0.0033 0.0016 'International Tables Vol C Tables 4.2.6.8 and 6.1.1.4'
H H 0.0000 0.0000 'International Tables Vol C Tables 4.2.6.8 and 6.1.1.4'
Cl Cl 0.1484 0.1585 'International Tables Vol C Tables 4.2.6.8 and 6.1.1.4'
N N 0.0061 0.0033 'International Tables Vol C Tables 4.2.6.8 and 6.1.1.4'
O O 0.0106 0.0060 'International Tables Vol C Tables 4.2.6.8 and 6.1.1.4'
P P 0.1023 0.0942 'International Tables Vol C Tables 4.2.6.8 and 6.1.1.4'
Ru Ru -1.2594 0.8363 'International Tables Vol C Tables 4.2.6.8 and 6.1.1.4'
loop_
_geom_angle_atom_site_label_1
_geom_angle_atom_site_label_2
_geom_angle_atom_site_label_3
_geom_angle
Cl2 Ru Cl1 88.71(6)
P Ru Cl1 86.08(5)
P Ru Cl2 85.60(6)
C2 Ru Cl1 164.03(18)
C2 Ru Cl2 105.68(19)
C2 Ru P 101.61(18)
C2 Ru C6 66.6(2)
C2 Ru C1 37.5(2)
C2 Ru C5 78.8(2)
C2 Ru C4 67.8(2)
C3 Ru Cl1 140.52(19)
C3 Ru Cl2 85.64(19)
C3 Ru P 132.17(19)
C3 Ru C2 37.6(2)
C3 Ru C6 79.0(2)
C3 Ru C1 67.8(2)
C3 Ru C5 66.4(3)
C3 Ru C4 37.5(3)
C6 Ru Cl1 97.63(18)
C6 Ru Cl2 162.35(17)
C6 Ru P 111.18(18)
C6 Ru C1 36.9(2)
C6 Ru C5 37.4(2)
C6 Ru C4 67.2(2)
C1 Ru Cl1 129.27(18)
C1 Ru Cl2 141.79(18)
C1 Ru P 92.30(17)
C1 Ru C4 80.4(2)
C5 Ru Cl1 87.02(18)
C5 Ru Cl2 127.40(17)
C5 Ru P 146.08(17)
C5 Ru C1 67.2(2)
C5 Ru C4 36.6(2)
C4 Ru Cl1 104.62(18)
C4 Ru Cl2 95.29(17)
C4 Ru P 169.26(18)
C11 P Ru 115.1(2)
C11 P C17 105.9(3)
C11 P C23 102.0(3)
C17 P Ru 111.7(2)
C17 P C23 103.6(3)
C23 P Ru 117.28(19)
C29 O2 N 111.8(5)
C25 C26 C29 122.6(6)
C25 C26 C27 120.6(6)
C27 C26 C29 116.8(6)
O2 C29 C26 111.6(6)
O1 C29 O2 121.4(6)
O1 C29 C26 126.9(6)
Ru C2 H2 130.5
C3 C2 Ru 70.0(4)
C3 C2 H2 120.0
C3 C2 C1 119.9(6)
C1 C2 Ru 72.1(4)
C1 C2 H2 120.0
C26 C25 H25 120.2
C26 C25 C24 119.6(6)
C24 C25 H25 120.2
Ru C3 H3 127.2
C2 C3 Ru 72.5(4)
C2 C3 H3 118.9
C2 C3 C4 122.2(7)
C4 C3 Ru 73.6(4)
C4 C3 H3 118.9
C11 C12 H12 119.7
C11 C12 C13 120.6(7)
C13 C12 H12 119.7
C19 C18 H18 119.7
C19 C18 C17 120.5(6)
C17 C18 H18 119.7
C14 C15 H15 119.3
C14 C15 C16 121.3(7)
C16 C15 H15 119.3
Ru C6 H6 129.4
C1 C6 Ru 72.2(4)
C1 C6 H6 119.5
C1 C6 C5 121.1(6)
C5 C6 Ru 71.4(4)
C5 C6 H6 119.5
O2 N C30 122.1(6)
C33 N O2 121.2(6)
C33 N C30 116.7(6)
C18 C19 H19 120.0
C18 C19 C20 120.0(6)
C20 C19 H19 120.0
C2 C1 Ru 70.4(3)
C2 C1 C7 121.9(6)
C6 C1 Ru 70.9(3)
C6 C1 C2 118.0(6)
C6 C1 C7 120.1(6)
C7 C1 Ru 132.3(4)
C12 C11 P 120.4(5)
C16 C11 P 120.1(5)
C16 C11 C12 119.6(6)
C19 C20 H20 120.0
C21 C20 C19 119.9(6)
C21 C20 H20 120.0
C10 C8 H8 108.6
C4 C8 H8 108.6
C4 C8 C10 112.3(6)
C4 C8 C9 109.0(6)
C9 C8 H8 108.6
C9 C8 C10 109.6(6)
C26 C27 H27 120.0
C26 C27 C28 120.1(6)
C28 C27 H27 120.0
H31A C31 H31B 108.7
C30 C31 H31A 110.6
C30 C31 H31B 110.6
C30 C31 C32 105.8(6)
C32 C31 H31A 110.6
C32 C31 H31B 110.6
C1 C7 H7A 109.5
C1 C7 H7B 109.5
C1 C7 H7C 109.5
H7A C7 H7B 109.5
H7A C7 H7C 109.5
H7B C7 H7C 109.5
C25 C24 H24 120.1
C25 C24 C23 119.7(6)
C23 C24 H24 120.1
C8 C10 H10A 109.5
C8 C10 H10B 109.5
C8 C10 H10C 109.5
H10A C10 H10B 109.5
H10A C10 H10C 109.5
H10B C10 H10C 109.5
C20 C21 H21 119.9
C20 C21 C22 120.3(6)
C22 C21 H21 119.9
O3 C30 N 124.0(7)
O3 C30 C31 130.5(7)
N C30 C31 105.5(6)
Ru C5 H5 129.8
C6 C5 Ru 71.3(4)
C6 C5 H5 119.1
C4 C5 Ru 72.5(4)
C4 C5 C6 121.9(6)
C4 C5 H5 119.1
C18 C17 P 118.0(5)
C22 C17 P 123.1(5)
C22 C17 C18 118.8(6)
C3 C4 Ru 68.9(4)
C3 C4 C8 120.0(6)
C8 C4 Ru 129.1(5)
C5 C4 Ru 70.8(4)
C5 C4 C3 116.9(6)
C5 C4 C8 123.1(6)
C21 C22 C17 120.5(6)
C21 C22 H22 119.8
C17 C22 H22 119.8
C15 C14 H14 120.1
C15 C14 C13 119.8(7)
C13 C14 H14 120.1
C31 C32 H32A 110.5
C31 C32 H32B 110.5
H32A C32 H32B 108.7
C33 C32 C31 106.2(6)
C33 C32 H32A 110.5
C33 C32 H32B 110.5
O4 C33 N 125.0(7)
O4 C33 C32 130.1(7)
N C33 C32 104.9(6)
C27 C28 H28 120.0
C23 C28 C27 120.1(6)
C23 C28 H28 120.0
C12 C13 H13 120.3
C14 C13 C12 119.3(7)
C14 C13 H13 120.3
C24 C23 P 117.7(5)
C28 C23 P 122.5(5)
C28 C23 C24 119.9(6)
C15 C16 C11 119.2(7)
C15 C16 H16 120.4
C11 C16 H16 120.4
C8 C9 H9A 109.5
C8 C9 H9B 109.5
C8 C9 H9C 109.5
H9A C9 H9B 109.5
H9A C9 H9C 109.5
H9B C9 H9C 109.5
loop_
_geom_bond_atom_site_label_1
_geom_bond_atom_site_label_2
_geom_bond_distance
Ru Cl1 2.4139(16)
Ru Cl2 2.4070(16)
Ru P 2.3621(16)
Ru C2 2.207(7)
Ru C3 2.174(6)
Ru C6 2.212(6)
Ru C1 2.229(6)
Ru C5 2.214(6)
Ru C4 2.235(7)
P C11 1.827(6)
P C17 1.837(6)
P C23 1.846(6)
O2 C29 1.389(8)
O2 N 1.393(7)
O1 C29 1.202(8)
O4 C33 1.200(9)
O3 C30 1.210(9)
C26 C29 1.474(9)
C26 C25 1.384(10)
C26 C27 1.387(9)
C2 H2 0.9500
C2 C3 1.411(9)
C2 C1 1.426(9)
C25 H25 0.9500
C25 C24 1.396(9)
C3 H3 0.9500
C3 C4 1.420(10)
C12 H12 0.9500
C12 C11 1.393(9)
C12 C13 1.401(10)
C18 H18 0.9500
C18 C19 1.384(9)
C18 C17 1.401(9)
C15 H15 0.9500
C15 C14 1.381(12)
C15 C16 1.391(9)
C6 H6 0.9500
C6 C1 1.405(9)
C6 C5 1.418(9)
N C30 1.394(10)
N C33 1.387(9)
C19 H19 0.9500
C19 C20 1.396(9)
C1 C7 1.509(8)
C11 C16 1.392(9)
C20 H20 0.9500
C20 C21 1.379(10)
C8 H8 1.0000
C8 C10 1.536(10)
C8 C4 1.510(9)
C8 C9 1.534(10)
C27 H27 0.9500
C27 C28 1.390(9)
C31 H31A 0.9900
C31 H31B 0.9900
C31 C30 1.505(11)
C31 C32 1.529(11)
C7 H7A 0.9800
C7 H7B 0.9800
C7 H7C 0.9800
C24 H24 0.9500
C24 C23 1.406(9)
C10 H10A 0.9800
C10 H10B 0.9800
C10 H10C 0.9800
C21 H21 0.9500
C21 C22 1.390(9)
C5 H5 0.9500
C5 C4 1.398(9)
C17 C22 1.396(9)
C22 H22 0.9500
C14 H14 0.9500
C14 C13 1.386(10)
C32 H32A 0.9900
C32 H32B 0.9900
C32 C33 1.509(9)
C28 H28 0.9500
C28 C23 1.385(9)
C13 H13 0.9500
C16 H16 0.9500
C9 H9A 0.9800
C9 H9B 0.9800
C9 H9C 0.9800
loop_
_geom_torsion_atom_site_label_1
_geom_torsion_atom_site_label_2
_geom_torsion_atom_site_label_3
_geom_torsion_atom_site_label_4
_geom_torsion
Ru P C11 C12 -3.0(6)
Ru P C11 C16 178.7(4)
Ru P C17 C18 -55.1(5)
Ru P C17 C22 121.5(5)
Ru P C23 C24 -74.3(5)
Ru P C23 C28 105.4(5)
Ru C2 C3 C4 56.7(6)
Ru C2 C1 C6 -54.4(5)
Ru C2 C1 C7 128.3(6)
Ru C3 C4 C8 -123.9(6)
Ru C3 C4 C5 53.8(5)
Ru C6 C1 C2 54.2(5)
Ru C6 C1 C7 -128.5(6)
Ru C6 C5 C4 -54.3(6)
Ru C5 C4 C3 -52.9(5)
Ru C5 C4 C8 124.8(6)
P C11 C16 C15 174.2(5)
P C17 C22 C21 -176.5(5)
O2 N C30 O3 -2.6(11)
O2 N C30 C31 179.1(6)
O2 N C33 O4 6.7(11)
O2 N C33 C32 -173.9(6)
C26 C25 C24 C23 0.2(9)
C26 C27 C28 C23 0.4(10)
C29 O2 N C30 98.4(7)
C29 O2 N C33 -79.5(8)
C29 C26 C25 C24 -179.0(6)
C29 C26 C27 C28 178.7(6)
C2 C3 C4 Ru -56.2(6)
C2 C3 C4 C8 179.9(6)
C2 C3 C4 C5 -2.4(10)
C25 C26 C29 O2 1.3(9)
C25 C26 C29 O1 -179.5(7)
C25 C26 C27 C28 -0.5(10)
C25 C24 C23 P 179.3(5)
C25 C24 C23 C28 -0.4(9)
C3 C2 C1 Ru 53.0(6)
C3 C2 C1 C6 -1.4(9)
C3 C2 C1 C7 -178.7(6)
C12 C11 C16 C15 -4.1(9)
C18 C19 C20 C21 -0.8(10)
C18 C17 C22 C21 0.0(10)
C15 C14 C13 C12 -4.0(9)
C6 C5 C4 Ru 53.7(6)
C6 C5 C4 C3 0.8(10)
C6 C5 C4 C8 178.5(6)
N O2 C29 O1 -0.7(9)
N O2 C29 C26 178.6(5)
C19 C18 C17 P 178.4(5)
C19 C18 C17 C22 1.7(10)
C19 C20 C21 C22 2.6(10)
C1 C2 C3 Ru -54.0(6)
C1 C2 C3 C4 2.7(10)
C1 C2 C3 C4 2.7(10)
C1 C6 C5 Ru 54.6(5)
C1 C6 C5 C4 0.3(10)
C11 P C17 C18 179.0(5)
C11 P C17 C22 -4.5(6)
C11 P C23 C24 52.3(5)
C11 P C23 C28 -128.0(5)
C11 C12 C13 C14 1.7(9)
C20 C21 C22 C17 -2.2(10)
C27 C26 C29 O2 -177.9(6)
C27 C26 C29 O1 1.3(10)
C27 C26 C25 C24 0.2(10)
C27 C28 C23 P -179.6(5)
C27 C28 C23 C24 0.0(9)
C31 C32 C33 O4 169.7(8)
C31 C32 C33 N -9.7(8)
C10 C8 C4 Ru 66.7(8)
C10 C8 C4 C3 152.9(6)
C10 C8 C4 C5 -24.7(9)
C30 N C33 O4 -171.3(7)
C30 N C33 C32 8.1(8)
C30 C31 C32 C33 8.2(8)
C5 C6 C1 Ru -54.2(5)
C5 C6 C1 C2 -0.1(9)
C5 C6 C1 C7 177.2(6)
C17 P C11 C12 120.9(5)
C17 P C11 C16 -57.4(6)
C17 P C23 C24 162.2(5)
C17 P C23 C28 -18.2(6)
C17 C18 C19 C20 -1.3(10)
C14 C15 C16 C11 1.8(10)
C32 C31 C30 O3 178.3(8)
C32 C31 C30 N -3.6(8)
C33 N C30 O3 175.3(7)
C33 N C30 C31 -2.9(9)
C13 C12 C11 P -175.9(5)
C13 C12 C11 C16 2.4(9)
C23 P C11 C12 -131.0(5)
C23 P C11 C16 50.7(5)
C23 P C17 C18 72.1(5)
C23 P C17 C22 -111.4(6)
C16 C15 C14 C13 2.3(10)
C9 C8 C4 Ru -171.6(5)
C9 C8 C4 C3 -85.4(8)
C9 C8 C4 C5 97.0(8)
loop_
_refln_index_h
_refln_index_k
_refln_index_l
_refln_F_squared_meas
_refln_F_squared_sigma
-31 -1 5 30.98 5.97
-31 1 5 9.33 3.63
-31 1 6 24.84 4.76
-31 -1 6 59.91 6.97
-31 1 7 37.17 6.51
-31 -1 7 24.44 4.79
-31 1 8 60.48 6.4
-31 -1 8 40.22 5.17
-31 1 9 -2.16 4.83
-31 -1 9 9.79 3.23
-31 -1 10 123.05 10.42
-31 1 10 136.41 10.1
-31 -1 10 161.18 10.31
-31 -1 11 21.13 4.4
-31 -1 11 37.19 5.26
-31 1 11 37.86 4.64
-31 -1 12 133.27 11.52
-31 1 12 168.85 12.22
-31 -1 13 25.83 4.52
-31 1 13 56.73 5.81
-31 1 13 46.21 4.95
-30 0 2 218.51 13.29
-30 0 3 -0.41 3.52
-30 0 4 338.14 20.35
-30 0 5 5.16 4.95
-30 0 6 8.54 3.39
-30 0 7 0.41 3.07
-30 0 8 2.35 2.76
-30 0 9 5.41 3.37
-30 0 10 129.16 9.32
-30 0 10 115 8.44
-30 0 11 8.49 3.99
-30 0 12 472.67 26.19
-30 0 12 601.13 30.28
-30 0 13 2.49 2.93
-30 0 14 412.84 22.18
-30 0 15 8.23 3.46
-30 -2 4 145.26 11.07
-30 2 4 108 7.7
-30 2 5 37.19 6.44
-30 -2 5 20.74 4.01
-30 -2 6 107.45 7.97
-30 2 6 93.02 8.11
-30 -2 7 44.52 5.37
-30 2 7 39.19 5.81
-30 2 8 75.47 7.88
-30 -2 8 77.59 7.35
-30 -2 9 14.3 3.3
-30 2 9 -4.34 3.21
-30 -2 10 80.72 7.31
-30 2 10 110.54 8.8
-30 2 11 15.7 4.55
-30 2 12 104.24 8.71
-30 2 13 38.23 6.74
-30 -2 13 10.11 4.95
-30 2 14 134.03 9.64
-30 -2 14 109.87 8.58
-30 2 14 106.12 9.58
-29 1 1 29.01 4.75
-29 -1 1 17.82 5.7
-29 -1 2 215.49 14.14
-29 1 2 236.41 14.44
-29 -1 3 69.31 6.74
-29 1 3 35.03 4.98
-29 -1 4 289.06 16.49
-29 1 4 306.84 17.68
-29 1 5 42.44 6.21
-29 -1 5 14.5 4.01
-29 -1 6 72.42 7.27
-29 1 6 65.19 6.62
-29 -1 7 9.36 4.78
-29 1 7 31.03 5.26
-29 -1 8 47.6 5.68
-29 1 8 52.28 6.49
-29 1 9 12.65 4.94
-29 -1 9 18.19 4.85
-29 -1 10 121.18 9.64
-29 -1 10 122.11 8.75
-29 1 10 144.05 8.51
-29 1 10 138.37 9.91
-29 -1 11 42.56 5.29
-29 1 11 38.45 4.64
-29 -1 11 51.25 5.34
-29 1 11 49.19 4.63
-29 -1 12 134.75 8.91
-29 1 12 150.8 8.85
-29 1 12 123.67 8.41
-29 1 13 67.63 6.25
-29 1 13 57.61 6.65
-29 -1 13 44.94 5.05
-29 1 14 416.99 21.81
-29 -1 14 406.35 22.64
-29 -1 15 1.72 3.12
-29 1 15 13.53 3.44
-29 1 16 64.37 6.55
-29 -1 16 81.53 7.97
-29 3 3 113.13 8.93
-29 -3 3 105.29 8.75
-29 3 4 94.03 8.31
-29 -3 4 106.72 8.19
-29 3 5 44.15 5.82
-29 -3 5 87.36 7.2
-29 -3 6 95.23 7.75
-29 3 6 97.73 8.11
-29 -3 7 128.19 9.9
-29 3 7 153.68 11.12
-29 3 8 97.81 8.09
-29 -3 8 98.61 7.11
-29 3 9 38.79 5.8
-29 3 10 216.59 13.57
-29 3 11 33.01 5.68
-29 3 12 119.82 9.2
-29 3 13 37.24 5.78
-29 3 14 239.77 15.25
-28 -2 0 199.69 14.27
-28 2 0 198.92 12.39
-28 0 -1 12.03 4.94
-28 0 0 187.88 12.74
-28 0 1 -2.9 3.62
-28 0 2 599.12 30
-28 0 3 -0.93 5.18
-28 0 4 177.79 11.31
-28 0 5 6.29 3.4
-28 0 6 51.26 5.45
-28 0 7 -0.32 3.1
-28 0 8 39.84 6.03
-28 0 8 50.59 4.19
-28 0 9 6.56 2.47
-28 0 9 10.01 3.68
-28 0 10 223.79 10.93
-28 0 10 166.71 10.37
-28 0 11 -3.24 2.59
-28 0 11 -8.11 3.8
-28 0 12 461.65 23.03
-28 0 12 407.26 22.34
-28 0 13 -2.16 3.03
-28 0 13 -7.9 3.74
-28 0 14 309.86 16.06
-28 0 16 199.87 11.9
-28 0 17 -8.5 6.35
-28 2 1 51.86 6.81
-28 -2 1 53.8 6.15
-28 2 2 178.56 11.31
-28 -2 2 197.38 11.8
-28 2 3 83.59 8.19
-28 -2 3 83.97 8
-28 2 4 269.43 15.6
-28 -2 4 263.98 14.64
-28 -2 5 82.84 7.71
-28 2 5 95.98 6.96
-28 -2 6 322.14 17.41
-28 2 6 345.39 19.02
-28 -2 7 79.27 7.39
-28 2 7 88.64 6.43
-28 2 8 211.15 12.23
-28 -2 8 162.21 11.39
-28 2 9 132 8.9
-28 -2 9 82.25 7.03
-28 -2 10 71.5 6.13
-28 2 10 85.63 6.93
-28 2 11 81.85 7.14
-28 2 11 90.63 6.47
-28 2 12 67.89 6.52
-28 2 12 34.12 3.7
-28 -2 13 74.03 6.21
-28 2 13 57.44 6.32
-28 2 13 56.72 6.03
-28 -2 14 205.21 13.56
-28 2 14 268.21 14.62
-28 2 14 229.45 14.74
-28 2 15 45.85 5.82
-28 2 15 36.25 4.58
-28 -2 15 6.25 3.07
-28 2 16 182.6 11.24
-28 -2 16 176.98 12.59
-28 4 3 32.05 6.21
-28 -4 3 49.39 5.33
-28 -4 4 44.93 6.65
-28 4 4 48.68 6.01
-28 -4 5 137.94 9.91
-28 4 5 143.05 10.39
-28 -4 6 64.54 6.53
-28 4 6 98.46 9.44
-28 -4 7 99.85 7.87
-28 4 7 97.73 7.26
-28 4 8 30.28 4.65
-28 4 9 129.5 9.09
-28 4 10 49.89 5.87
-28 4 11 73.4 6.27
-28 4 12 50.85 6.57
-28 4 13 189.7 12.65
-27 -3 -1 1.25 5.32
-27 3 -1 9.2 5.21
-27 3 0 132.1 8.75
-27 -3 0 159.12 11.33
-27 -1 -2 70.41 7.22
-27 1 -2 15.95 5.42
-27 -1 -1 -7.03 4.86
-27 1 -1 27.31 4.52
-27 1 0 164.16 9.73
-27 -1 0 179.04 11.03
-27 1 1 27.08 5.48
-27 -1 1 31.59 6.24
-27 1 2 391.93 20.38
-27 -1 2 413.87 20.06
-27 1 3 41.94 6.22
-27 -1 3 6.12 4.98
-27 -1 4 244.71 12.88
-27 1 4 256.14 13.41
-27 -1 5 40.09 4.73
-27 1 5 37.3 4.76
-27 1 6 181.48 10.14
-27 -1 6 173.97 9.76
-27 1 7 4.91 2.13
-27 1 7 8.65 3.5
-27 -1 7 10.47 3.05
-27 1 8 133.75 8.15
-27 1 8 119.05 6.35
-27 -1 8 117.55 7.53
-27 1 9 20.9 3.97
-27 -1 9 27.14 3.65
-27 1 9 60.96 6.18
-27 -1 10 165.14 9.71
-27 1 10 152.93 8.2
-27 1 10 174.48 9.73
-27 -1 11 49.15 4.41
-27 -1 11 36.46 4.26
-27 1 11 40.18 3.44
-27 1 11 45.71 4.96
-27 1 12 93.61 6.79
-27 -1 12 84.99 6.21
-27 1 12 104.97 6.97
-27 -1 12 101.64 6.95
-27 -1 13 70.05 6.43
-27 1 13 45.24 5.38
-27 1 13 81.11 6.25
-27 -1 14 207.59 13.01
-27 1 14 204.14 13.03
-27 1 14 219.59 12.99
-27 -1 15 8.8 3.54
-27 1 15 13.08 3.33
-27 1 16 220.11 13.96
-27 -1 16 207.16 11.43
-27 1 17 52.23 6.09
-27 -1 17 51.12 5.7
-27 1 18 312.97 18.59
-27 -1 18 296.38 19.38
-27 3 1 50.42 6.49
-27 -3 1 44.59 5.03
-27 3 2 146.03 10.45
-27 -3 2 125.55 9.75
-27 -3 3 63.85 5.32
-27 3 3 67.23 7.14
-27 3 4 144.37 9.45
-27 -3 4 137.48 9.56
-27 3 5 28.39 5.08
-27 -3 5 40.76 5.86
-27 -3 6 197.71 11.65
-27 3 6 233.4 13.3
-27 -3 7 99.52 7.37
-27 3 7 76.95 7.35
-27 -3 8 42.97 5.2
-27 3 8 20.86 5.89
-27 3 9 6.49 5.77
-27 -3 9 11.94 2.99
-27 3 10 6.89 4.01
-27 3 11 11.61 4.01
-27 3 12 55.79 5.03
-27 3 12 38.01 5.55
-27 3 13 20.01 4.28
-27 3 13 22.2 5.04
-27 3 14 287.82 17.27
-27 3 14 316.86 19.44
-27 3 15 47.13 4.59
-27 -3 15 72.52 6.5
-27 3 15 50.3 5.88
-27 3 16 250.17 15.99
-27 -3 16 208.31 14.28
-27 5 4 126.89 9.53
-27 -5 4 167.02 11.41
-27 -5 5 32.22 5.58
-27 5 5 75.67 7.14
-27 5 6 53 7.34
-27 5 7 168.05 11.68
-27 5 8 15.03 4.84
-27 5 9 35.42 5.55
-27 5 10 25.39 4.51
-27 5 11 32.99 4.6
-27 5 12 26.93 5.2
-26 -4 -1 49.18 5.8
-26 -4 0 110.9 9.19
-26 4 0 56.67 6.16
-26 -2 -3 7.43 5.58
-26 2 -3 12.72 5.29
-26 2 -2 77.55 6.65
-26 -2 -2 71.33 7.37
-26 2 -1 -8.7 3.58
-26 -2 -1 6.45 3.85
-26 -2 0 134.49 9.41
-26 2 0 183.92 11.86
-26 0 -3 -2.15 3.27
-26 0 -2 231.35 14.26
-26 0 -1 -9.39 4.64
-26 0 0 362.28 18.95
-26 0 1 12.76 5.08
-26 0 2 586.26 23.94
-26 0 3 -4.25 4.87
-26 0 4 260.4 12.47
-26 0 5 -3.3 3.3
-26 0 6 161.93 8.66
-26 0 7 2.35 3.58
-26 0 8 287.71 12.77
-26 0 8 290.13 12.47
-26 0 9 7.07 3.32
-26 0 9 -6.24 2.66
-26 0 10 158.14 8.47
-26 0 10 179.79 8.85
-26 0 11 8.51 3.98
-26 0 11 1.03 3.71
-26 0 12 97.34 6.8
-26 0 12 83.32 5.93
-26 0 13 3.56 4.31
-26 0 13 -1.67 2.4
-26 0 14 109.98 8.1
-26 0 15 17.99 4.96
-26 0 16 281.31 17.25
-26 0 17 1.18 4.61
-26 0 18 234.31 14.06
-26 2 1 66.68 5.78
-26 -2 1 106.64 8.68
-26 2 2 332.26 15.78
-26 -2 2 306.23 15.31
-26 -2 3 115.84 8.55
-26 2 3 108.58 7.57
-26 -2 4 439.92 19.17
-26 2 4 375.1 16.74
-26 2 5 13.13 3.72
-26 -2 5 36.14 4.73
-26 -2 6 500.83 20.96
-26 2 6 455.29 19.43
-26 2 7 66.84 5.58
-26 -2 7 59.16 5.37
-26 -2 8 93.27 6.76
-26 2 8 77.49 4.58
-26 2 8 67.18 5.57
-26 -2 9 163.59 9.1
-26 2 9 179.98 9.31
-26 2 9 152.22 8
-26 -2 10 65.72 5.16
-26 2 10 42.82 5.36
-26 2 10 45.91 3.82
-26 2 11 8.46 2.75
-26 2 11 8.24 3.3
-26 -2 11 8.63 2.64
-26 2 12 90.7 6.41
-26 -2 13 27.92 4.1
-26 2 13 42.92 5.58
-26 2 13 34.67 4.02
-26 2 14 64.89 5.51
-26 2 14 91.12 6.43
-26 -2 14 106.4 7.73
-26 2 15 21.13 4.75
-26 2 15 17.17 3.31
-26 -2 15 10.93 3.4
-26 2 16 205.08 11.03
-26 -2 16 191.22 11.35
-26 -2 17 35.16 6.31
-26 2 17 44.38 4.96
-26 2 18 93.58 9.7
-26 -2 18 116.98 9.35
-26 4 1 33.71 4.12
-26 -4 1 19.81 4.85
-26 -4 2 104.62 8.12
-26 4 2 114.07 8.27
-26 4 3 58.54 7.13
-26 -4 3 45.21 5.55
-26 -4 4 223.19 13.78
-26 4 4 272.6 15.77
-26 -4 5 54.86 5.88
-26 4 5 65.03 6.21
-26 -4 6 202.46 12.17
-26 4 6 218.27 14.19
-26 -4 7 45.39 4.33
-26 4 7 48.67 6.71
-26 -4 8 105.33 7.29
-26 4 8 131.24 9.17
-26 4 9 4.92 4.82
-26 4 10 31.31 6.14
-26 4 11 19.09 3.98
-26 4 12 60.07 6.54
-26 4 13 128.64 8.62
-26 4 13 111.4 8.29
-26 4 14 96.87 8.6
-26 4 14 117.89 7.22
-26 4 15 110.6 9.15
-26 4 15 68.37 6.23
-26 4 16 84.31 7.94
-26 4 16 120.63 8.62
-26 6 7 159.33 11.25
-26 6 8 48.19 5.66
-25 -5 0 75.96 6.81
-25 5 0 68.76 6.58
-25 -3 -3 21.78 5.63
-25 3 -3 23.69 5.39
-25 3 -2 104.42 7.77
-25 -3 -2 89.18 7.33
-25 -3 -1 34.39 4.41
-25 3 -1 29.83 4.8
-25 -3 0 17.65 3.89
-25 3 0 28.9 5.54
-25 1 -4 47.72 6.12
-25 -1 -4 74.63 7.71
-25 -1 -3 65.29 6.5
-25 1 -3 51.26 6.24
-25 1 -2 37.92 6.26
-25 -1 -2 44.79 5.28
-25 -1 -1 119.33 8.33
-25 1 -1 84.77 7.42
-25 -1 0 224.84 11.93
-25 1 0 163.55 9.23
-25 1 1 47.77 5.38
-25 -1 1 40.66 4.59
-25 1 2 308.73 14.77
-25 -1 2 314.8 13.53
-25 -1 3 32.09 5.61
-25 1 3 19.97 3.73
-25 1 4 383.13 15.29
-25 -1 4 356.56 16.23
-25 1 5 118.08 6.32
-25 -1 5 86.85 6.08
-25 1 5 96.56 5.44
-25 1 6 510.77 19.18
-25 -1 6 490.91 18.89
-25 1 6 479.68 20.3
-25 1 7 29.18 4.32
-25 -1 7 45.06 5.09
-25 1 7 27.32 3.31
-25 -1 8 526.63 21.04
-25 1 8 504.61 19.28
-25 1 8 440.9 18.98
-25 1 9 39.04 5.55
-25 -1 9 23.77 3.76
-25 1 9 41.79 3.76
-25 -1 10 180.93 9.56
-25 1 10 184.43 9.12
-25 1 10 180.14 8.53
-25 -1 11 93.35 6.16
-25 1 11 80.31 6.03
-25 1 11 114.62 7.25
-25 -1 11 117.87 7.64
-25 1 12 65.39 5.06
-25 1 12 81.81 4.99
-25 -1 12 81.43 6.34
-25 -1 12 71.06 5.54
-25 1 13 9.01 2.9
-25 -1 13 8.43 4.48
-25 -1 13 -0.63 2.4
-25 1 13 16.38 2.9
-25 1 14 11.21 4.05
-25 -1 14 11.66 4.39
-25 1 14 -3 3
-25 1 15 21.4 4.17
-25 -1 15 21.64 4.18
-25 -1 16 284.88 17.54
-25 1 16 285.66 16.92
-25 1 17 24.38 5.75
-25 -1 17 24.87 4.29
-25 -1 18 164.18 11.17
-25 1 18 146.23 11.16
-25 1 19 17.02 6.13
-25 -1 19 23.42 4.71
-25 -3 1 117.24 8.01
-25 3 1 113.48 8.35
-25 -3 2 99.92 7.36
-25 3 2 96.45 7.33
-25 -3 3 207.6 11.12
-25 3 3 233.71 11.31
-25 -3 4 261.11 12.73
-25 3 4 222.01 11.1
-25 -3 5 37.09 5.55
-25 3 5 29.95 4.44
-25 -3 6 303.33 13.43
-25 3 6 302.74 13.89
-25 -3 7 126.87 8.09
-25 3 7 108.88 7.23
-25 -3 8 120.99 6.74
-25 3 8 137.13 7.84
-25 -3 9 41.72 3.7
-25 3 9 39.19 4.31
-25 3 9 43.97 3.72
-25 -3 10 93.99 5.53
-25 3 10 78.15 4.87
-25 3 10 100.66 7.59
-25 3 11 41.83 5.94
-25 3 11 45.61 3.89
-25 3 12 261.68 13.59
-25 3 12 327.77 14.94
-25 3 13 53.11 5.12
-25 3 13 29.05 5.12
-25 3 14 316.68 18.44
-25 3 14 313.23 16.79
-25 -3 15 24.16 4.62
-25 3 15 29.9 4.69
-25 3 15 -2.05 4.11
-25 -3 16 62.55 6.47
-25 3 16 82.97 6.62
-25 3 16 73.43 5.95
-25 -3 17 91.41 8.01
-25 3 17 68.93 6.26
-25 -3 18 74.87 6.98
-25 3 18 90.77 6.48
-25 -5 1 92.21 7.55
-25 5 1 73.53 7.01
-25 5 2 211.52 13.14
-25 -5 2 240.79 14.67
-25 -5 3 107.13 9.49
-25 5 3 136.8 9.62
-25 -5 4 128.74 9.43
-25 5 4 138.32 9.83
-25 -5 5 337.95 19.33
-25 5 5 375.45 20.82
-25 -5 6 275.99 15.5
-25 5 6 331.81 18.71
-25 5 7 102.76 7.82
-25 5 8 245.27 13.77
-25 5 9 7.46 5.21
-25 5 10 30.14 5.7
-25 5 11 100 8.55
-25 5 12 36.35 5.28
-25 5 13 73.18 7.23
-25 5 14 12.94 3.87
-25 5 15 152.89 10.47
-25 5 15 148.74 10.49
-24 -4 -3 56.54 6.53
-24 4 -3 81.72 7.76
-24 4 -2 17.44 3.88
-24 -4 -2 7.07 3.69
-24 -4 -1 58.25 6.67
-24 4 -1 47.01 5.02
-24 -4 0 39.89 4.87
-24 4 0 39.14 4.82
-24 2 -5 48.98 5.89
-24 -2 -5 25.43 4.74
-24 2 -4 69.05 6.92
-24 -2 -4 54.24 5.8
-24 -2 -3 -4.36 3.42
-24 2 -3 4.99 3.36
-24 -2 -2 110.33 8.77
-24 2 -2 141.08 9.94
-24 2 -1 88.07 7.19
-24 -2 -1 106.12 7.86
-24 2 0 226.7 11.16
-24 -2 0 190.49 11.25
-24 0 -6 236.35 14.47
-24 0 -5 3.26 4.89
-24 0 -4 269.96 15.28
-24 0 -3 13.26 3.5
-24 0 -2 356.15 15.95
-24 0 -1 0.62 4.76
-24 0 0 174.04 9.08
-24 0 1 7.07 4.78
-24 0 2 98.28 6.56
-24 0 3 2.07 3.21
-24 0 4 243.61 11.22
-24 0 5 1.85 2.98
-24 0 6 782.8 29.29
-24 0 7 -3.48 2.35
-24 0 8 289.03 12.53
-24 0 8 300.86 12.38
-24 0 9 -6.76 2.66
-24 0 9 -2.03 2.14
-24 0 10 246 12.26
-24 0 10 305.05 14.2
-24 0 11 -4.23 2.27
-24 0 11 5.26 3.97
-24 0 12 214.42 10.36
-24 0 12 181.87 9.7
-24 0 13 -0.11 4.62
-24 0 13 8.12 2.6
-24 0 14 90.28 6.17
-24 0 14 102.97 7.54
-24 0 15 -7.41 2.9
-24 0 16 521.1 21.67
-24 0 17 -8.55 3.74
-24 0 18 375.37 19.68
-24 0 19 18.79 4.14
-24 -2 1 167.82 9.05
-24 2 1 131.28 8.67
-24 -2 2 448.97 19.9
-24 2 2 454.3 18.79
-24 -2 3 38.86 5.63
-24 2 3 48.71 4.96
-24 -2 4 810.8 29.9
-24 2 4 838.98 30.88
-24 2 5 69.07 5.78
-24 -2 5 52.28 4.94
-24 2 6 433.45 18.21
-24 -2 6 490.42 20.35
-24 2 6 538.38 19.2
-24 2 7 204.2 9.3
-24 2 7 170.16 8.14
-24 -2 7 227.03 10.9
-24 -2 8 472.07 19.06
-24 2 8 515.23 20.38
-24 2 8 486.56 19.52
-24 2 9 95.57 5.64
-24 -2 9 85.58 6.18
-24 2 9 121.29 8.23
-24 2 10 257.37 12.08
-24 2 10 257.86 11.53
-24 -2 10 250.69 12.28
-24 2 11 15.03 2.75
-24 2 11 48.01 5.24
-24 -2 11 25.59 3.28
-24 -2 12 37.64 3.63
-24 2 12 22.54 3.18
-24 2 12 25.15 4.01
-24 2 13 -2.26 3.9
-24 2 13 4.97 4.13
-24 2 14 71.13 5.61
-24 2 14 88.75 6.71
-24 -2 14 80.03 6.05
-24 2 15 4.43 4.65
-24 2 15 8.75 3.09
-24 -2 15 -7.23 2.98
-24 -2 16 143.3 9.22
-24 2 16 142.56 9.31
-24 -2 17 72.77 7.18
-24 2 17 95.36 6.96
-24 2 18 149.78 10.01
-24 -2 18 141.2 10.01
-24 -2 19 28.76 4.94
-24 2 19 35.52 6.71
-24 -4 1 47.89 5.19
-24 4 1 39.35 4.94
-24 -4 2 210.97 11.87
-24 4 2 243.62 11.71
-24 -4 3 62.72 5.88
-24 4 3 49.8 6.19
-24 -4 4 279.91 13.01
-24 4 4 257.99 12.44
-24 -4 5 115.78 6.73
-24 4 5 123.49 7.75
-24 -4 6 154.78 8.39
-24 4 6 200.24 10.23
-24 4 7 149.84 8.75
-24 -4 7 168.64 8.9
-24 4 8 129.42 7.8
-24 -4 8 168.83 8.82
-24 4 9 64.05 6.33
-24 4 10 55.57 4.51
-24 4 10 55.13 6.11
-24 4 11 206.75 10.71
-24 4 11 189.17 9.75
-24 4 12 109.75 6.46
-24 4 12 125.47 7.74
-24 4 13 173.3 11.63
-24 4 13 192.29 11.46
-24 4 14 75.84 7.15
-24 4 14 76.27 6.26
-24 4 15 60.8 6.24
-24 4 15 82.74 7.7
-24 4 16 83.9 7.79
-24 4 16 50.36 6.08
-24 4 17 36.32 5.28
-24 -4 17 29.69 4.79
-24 6 1 69.13 7.13
-24 -6 1 78.91 7.92
-24 -6 2 15.01 3.83
-24 6 2 36.35 6.1
-24 -6 3 87.41 7.11
-24 6 3 67.68 7.45
-24 -6 4 28.76 3.68
-24 6 4 17.67 5.37
-24 6 5 333.17 17.83
-24 6 6 109.82 8.16
-24 6 7 88.77 7.2
-24 6 8 198.51 12.94
-24 6 9 130.92 9.21
-24 6 10 7.84 5.5
-24 6 11 55.93 6.82
-24 6 12 2.44 4.78
-24 6 13 26.37 4.58
-23 -5 -3 73.72 7.35
-23 5 -3 50.88 5.34
-23 -5 -2 23.54 4.9
-23 5 -2 51.07 6.67
-23 -5 -1 9.27 3.73
-23 5 -1 -2.46 3.7
-23 -5 0 65.12 7.26
-23 5 0 48.22 5.56
-23 3 -5 10.15 4.57
-23 -3 -5 9.67 3.54
-23 -3 -4 123.09 9.41
-23 3 -4 126.32 8.46
-23 3 -3 43.88 4.68
-23 -3 -3 38.83 5.97
-23 3 -2 46.83 4.79
-23 -3 -2 18.69 4.41
-23 -3 -1 42.32 5.79
-23 3 -1 24.5 5.41
-23 -3 0 138.44 8.04
-23 3 0 131.38 7.51
-23 -1 -6 91.31 6.89
-23 1 -6 106.25 8.27
-23 -1 -5 -3.28 3.08
-23 1 -5 9.16 3.36
-23 1 -4 55.31 5.02
-23 -1 -4 68.93 6.3
-23 -1 -3 35.81 5.18
-23 1 -3 17.81 3.69
-23 -1 -2 128.7 7.21
-23 1 -2 126.67 8.36
-23 1 -1 36.38 4.33
-23 -1 -1 31.4 4.7
-23 -1 0 266.2 13.03
-23 1 0 246.78 11.74
-23 1 1 -5.69 3.1
-23 -1 1 17.26 3.35
-23 1 2 149.26 8.92
-23 -1 2 171.94 8.08
-23 1 3 5.27 4.44
-23 -1 3 9.26 4.58
-23 1 3 7.99 1.47
-23 1 4 644.66 27.19
-23 -1 4 802.2 28.52
-23 1 4 850.18 28.42
-23 1 5 18.45 2.33
-23 1 5 24.49 4.84
-23 -1 5 33.82 4.94
-23 1 6 805.7 30.73
-23 1 6 910.82 31.6
-23 -1 6 919.14 32.97
-23 -1 7 70.66 4.8
-23 1 7 66.35 4.6
-23 1 7 94.34 6.37
-23 -1 8 891.21 31.66
-23 1 8 823.22 31.08
-23 1 8 903.88 30.28
-23 -1 9 110.32 7.07
-23 1 9 141.36 7
-23 1 9 141.06 7.32
-23 1 10 329.63 14.3
-23 -1 10 353.58 14.22
-23 1 10 317.2 12.96
-23 1 11 70.67 5.48
-23 1 11 58.78 4.34
-23 -1 11 94.83 5.73
-23 -1 11 77.94 5.6
-23 -1 12 56.38 4.47
-23 1 12 86.62 6.55
-23 1 12 64.55 5.17
-23 1 13 170.29 8.53
-23 -1 13 164.16 9.51
-23 1 13 116.83 8.05
-23 -1 13 139.27 7.88
-23 -1 14 116.4 6.96
-23 1 14 92.8 6.22
-23 1 14 103.11 6.23
-23 -1 15 2.78 3.32
-23 1 15 -0.85 2.67
-23 1 15 0.72 2.06
-23 1 16 500.58 18.55
-23 -1 16 460.53 19.4
-23 -1 17 -3.42 3.31
-23 1 17 4.88 3.6
-23 -1 18 195.05 12.53
-23 1 18 177.36 12.28
-23 -1 19 19.07 6.18
-23 1 19 10.21 4.1
-23 1 20 231.79 14.71
-23 -1 20 220.77 12.7
-23 3 1 46 4.93
-23 -3 1 44.59 4.75
-23 -3 2 211.22 11.1
-23 3 2 219.14 10.96
-23 -3 3 33.37 5.13
-23 3 3 16.69 3.71
-23 3 4 349.21 14.1
-23 -3 4 292.3 13.89
-23 -3 5 124.92 6.92
-23 3 5 76.27 5.98
-23 3 6 233.45 10.63
-23 -3 6 218.13 10.14
-23 3 7 74.74 5.75
-23 -3 7 81.72 6.17
-23 3 7 73.74 4.34
-23 3 8 362.1 15.35
-23 3 8 380.94 15.74
-23 -3 8 387.38 14.31
-23 3 9 46.42 5.21
-23 -3 9 49.95 5.42
-23 3 9 43.83 3.29
-23 3 10 446.87 18.02
-23 -3 10 477.68 17.89
-23 3 10 422.81 18.85
-23 3 11 32.55 5.19
-23 3 11 14.48 3.15
-23 3 12 448.88 17.27
-23 3 12 408.15 17.03
-23 3 13 6.8 2.82
-23 3 13 28.73 4.79
-23 3 14 125.74 7.56
-23 3 14 115.35 7.9
-23 3 15 24.21 5.22
-23 3 15 13.95 2.87
-23 -3 15 18.7 4.02
-23 -3 16 53.62 7.03
-23 3 16 47.77 5.01
-23 3 16 48.87 5.78
-23 3 17 111.96 9.51
-23 -3 17 67.95 6.97
-23 -3 18 105.33 8.41
-23 3 18 98.43 7.94
-23 -3 19 47.86 7.55
-23 3 19 115.49 8.45
-23 -5 1 47.47 5.22
-23 5 1 34.91 4.43
-23 -5 2 237.7 12.7
-23 5 2 218.41 12.02
-23 5 3 189.74 10.47
-23 -5 3 169.37 9.76
-23 -5 4 209.58 11.16
-23 5 4 216.45 10.98
-23 5 5 124.88 8.98
-23 -5 5 170.29 9.26
-23 -5 6 197.69 10.38
-23 5 6 251.48 12.99
-23 5 7 62.63 5.43
-23 -5 7 87.35 6.57
-23 5 8 222.2 10.35
-23 5 9 198.38 10.4
-23 5 10 64.27 7.3
-23 5 11 183.15 11.76
-23 5 11 207.84 12.29
-23 5 12 11.32 3.2
-23 5 12 11.34 3.34
-23 5 13 104.77 7.53
-23 5 14 14.29 4.41
-23 5 14 1.33 4.38
-23 5 15 55.44 5.55
-23 5 16 103.3 8.45
-23 7 4 -10.39 4.47
-23 7 5 126.08 9.26
-23 7 6 33.66 5.49
-23 7 7 224.02 13.37
-23 7 8 85.53 8.05
-23 7 9 116.96 9.27
-23 7 10 28.2 5.95
-22 -6 -2 85.54 8.28
-22 6 -2 123.29 8.51
-22 -6 -1 92.85 6.89
-22 6 -1 80.36 7.15
-22 -6 0 31.21 6.12
-22 6 0 36.73 4.56
-22 4 -5 137.96 9.74
-22 -4 -5 169.18 11.2
-22 4 -4 55.12 6.33
-22 -4 -4 42.92 5.8
-22 4 -3 100.16 7.67
-22 -4 -3 86.98 8.15
-22 -4 -2 22.24 5.51
-22 4 -2 60.5 5.52
-22 4 -1 107.37 6.98
-22 -4 -1 122.53 8.19
-22 -4 0 87.15 6.81
-22 4 0 84.47 5.86
-22 2 -7 13.2 4.67
-22 2 -6 294.17 16.37
-22 -2 -6 319.94 18.06
-22 2 -5 -1.72 3.15
-22 -2 -5 2.59 3.72
-22 -2 -4 107.44 7.6
-22 2 -4 102.72 6.24
-22 2 -3 43.58 4.39
-22 -2 -3 44.93 4.59
-22 2 -2 39.52 5.62
-22 -2 -2 32.45 5.55
-22 2 -1 137.12 7.62
-22 -2 -1 118.35 7.79
-22 -2 0 8.94 3.47
-22 2 0 25.46 5.03
-22 0 -7 4.38 3.36
-22 0 -6 234.21 13.82
-22 0 -5 1.84 3.48
-22 0 -4 316.75 15.29
-22 0 -3 -14.04 4.44
-22 0 -2 134.2 8.02
-22 0 -1 12.16 4.57
-22 0 0 89.66 5.95
-22 0 1 7.39 4.27
-22 0 2 24.85 4.26
-22 0 3 -3.42 2.9
-22 0 4 57.81 4.45
-22 0 6 408.02 17.53
-22 0 7 -3.27 2.76
-22 0 8 1136.5 39.76
-22 0 9 4.1 2.66
-22 0 9 -3.3 1.92
-22 0 10 502.81 20.09
-22 0 10 593.19 20.77
-22 0 11 -6.3 2.27
-22 0 11 8.46 3.75
-22 0 12 384.41 15
-22 0 12 376.12 14.66
-22 0 13 6.32 3.64
-22 0 13 -2.9 2.18
-22 0 14 501.71 21.28
-22 0 14 523.45 20.15
-22 0 15 3.1 3.42
-22 0 16 199.45 10.71
-22 0 17 3.51 3.4
-22 0 18 59.86 6.15
-22 0 20 81.87 8.84
-22 -2 1 39.13 4.42
-22 2 1 48.54 4.22
-22 -2 2 69.77 6.3
-22 2 2 61.77 5.16
-22 2 3 48.59 4.53
-22 -2 3 60.13 5.85
-22 2 4 296.68 12
-22 2 4 232.57 9.67
-22 -2 4 225.02 10.01
-22 2 5 81.98 6.28
-22 2 5 88.32 4.62
-22 -2 5 74.53 5.77
-22 2 6 261.96 11.34
-22 -2 6 305.56 13.05
-22 2 6 269.62 11.72
-22 2 7 132.1 7.4
-22 2 7 102.78 5.45
-22 -2 7 105.46 6.52
-22 2 8 426.71 16.18
-22 -2 8 404.97 15.26
-22 2 8 400.59 16.09
-22 -2 9 28.31 3.35
-22 2 9 34.53 3.58
-22 2 9 24.4 2.76
-22 2 10 368.05 14.22
-22 2 10 354.59 14.24
-22 -2 10 338.61 13.85
-22 -2 11 -1.65 1.75
-22 2 11 0 4.08
-22 2 11 -6.25 2.44
-22 2 12 176.76 8.31
-22 2 12 177.44 8.95
-22 -2 12 172.02 8.91
-22 2 13 35.87 4.77
-22 2 13 35.18 4.3
-22 -2 14 76.89 6.37
-22 2 14 67.11 5.3
-22 2 14 89.26 6.89
-22 2 15 85.29 6.19
-22 -2 15 67.14 6.72
-22 2 15 65.32 6.13
-22 2 16 275.1 12.62
-22 2 16 259.61 12.71
-22 -2 16 221.99 12.25
-22 2 17 43.08 6.73
-22 -2 17 47.73 5.36
-22 -2 18 271.53 15.3
-22 2 18 233.78 13.05
-22 2 19 38.76 4.6
-22 2 20 319.25 18.29
-22 -2 20 333.75 20.64
-22 -4 1 98.41 7.65
-22 4 1 93.71 8.13
-22 4 2 68.85 5.57
-22 -4 2 70.09 5.51
-22 -4 3 76.3 5.59
-22 4 3 73.11 5.57
-22 -4 4 200.19 10.07
-22 4 4 174.44 9.61
-22 4 5 152.04 8.86
-22 -4 5 171.05 8.82
-22 4 6 107.37 8.11
-22 -4 6 108.73 7.26
-22 -4 7 82.14 4.86
-22 4 7 82.29 6.34
-22 4 7 62.89 4.31
-22 -4 8 256.94 12.07
-22 4 8 258.1 11.86
-22 4 9 86.94 5.54
-22 -4 9 119.87 6.42
-22 4 9 95.12 6.5
-22 4 10 554.53 23.31
-22 4 10 552.89 21.41
-22 4 11 337 13.75
-22 4 11 285.5 13.37
-22 4 12 213.85 10.61
-22 4 12 258.01 11.41
-22 4 13 138.99 8.46
-22 4 13 117.18 7.26
-22 4 14 18.36 3.88
-22 4 14 26.79 5.42
-22 4 15 36.2 5.93
-22 4 15 24.03 5.14
-22 -4 16 -2.87 3.29
-22 4 16 15.06 4.47
-22 4 17 66.43 6.03
-22 -4 17 47.87 7.08
-22 -4 18 104.07 9.51
-22 4 18 84.75 9.25
-22 -6 1 103.32 7.95
-22 6 1 112.03 9.44
-22 -6 2 10.45 3.31
-22 6 2 16.78 3.83
-22 -6 3 170.22 11.72
-22 6 3 223.01 13.1
-22 -6 4 29.97 5.05
-22 6 4 15.1 3.72
-22 -6 5 253.17 15.79
-22 6 5 290.26 16.06
-22 6 6 203.61 11.97
-22 6 7 76.7 8.21
-22 6 8 116.59 9.11
-22 6 9 154.96 10.52
-22 6 10 6.71 5.69
-22 6 11 22.35 5.59
-22 6 12 74.54 7.05
-22 6 12 92.55 7.54
-22 6 13 56.58 5.17
-22 6 14 70.27 6.3
-22 6 15 89.02 7.41
-21 -7 0 2.59 5.06
-21 7 0 5.12 4.7
-21 5 -5 123.6 8.08
-21 -5 -5 138.62 10.04
-21 5 -4 11.22 3.4
-21 -5 -4 7.14 3.52
-21 5 -3 52.73 5.25
-21 -5 -3 44.08 5.87
-21 5 -2 111.36 8.15
-21 -5 -2 109.61 7.93
-21 -5 -1 80.29 6.54
-21 5 -1 117.15 8.47
-21 5 0 144.53 9.21
-21 -5 0 125.6 9.54
-21 -3 -7 31.41 5.83
-21 3 -7 17.52 3.36
-21 -3 -6 338.78 19.07
-21 3 -6 384.16 19.66
-21 -3 -5 19 3.86
-21 3 -5 5.47 3.14
-21 -3 -4 176.05 10.51
-21 3 -4 180.77 9.2
-21 3 -3 69.35 6.51
-21 -3 -3 39.51 4.42
-21 -3 -2 249.51 11.76
-21 3 -2 240.07 10.68
-21 -3 -1 46.5 5.08
-21 3 -1 48.98 5.31
-21 -3 0 269.73 12.55
-21 3 0 264.41 12.26
-21 -1 -8 51.95 5.33
-21 1 -8 63.12 5.72
-21 1 -7 39.28 4.18
-21 -1 -7 21.92 4.1
-21 1 -6 281.95 15.34
-21 -1 -6 262.7 13.91
-21 1 -5 36.13 3.89
-21 -1 -5 29.8 4.54
-21 -1 -4 422.13 17.93
-21 1 -4 422.33 17.76
-21 1 -3 222.04 10.17
-21 -1 -3 216.08 11.31
-21 -1 -2 319.46 14.21
-21 1 -2 279.44 12.37
-21 1 -1 26.63 3.82
-21 -1 -1 44.85 4.51
-21 -1 0 194.8 9.59
-21 1 0 214.2 10.29
-21 1 1 5.17 4.14
-21 -1 1 15.63 3.88
-21 -1 2 169.38 8.82
-21 1 2 148.18 8.4
-21 -1 3 176.08 8.89
-21 1 3 152.75 7.87
-21 -1 4 415.71 16.58
-21 1 4 419.47 15.85
-21 1 4 379.98 14.8
-21 1 5 45.75 3.5
-21 1 5 34.17 4.83
-21 -1 5 37.22 4.12
-21 1 6 380.81 14.9
-21 -1 6 387.39 15.07
-21 1 6 410.24 15.47
-21 1 7 82.19 5.56
-21 1 7 93.58 5.95
-21 -1 7 116.94 6.86
-21 -1 8 200.58 9.15
-21 1 8 200.86 9.24
-21 1 8 245.48 9.79
-21 1 9 18.73 2.36
-21 1 9 24.86 4.4
-21 -1 9 51.26 4.41
-21 1 10 173.48 8.07
-21 1 10 146.14 7.52
-21 -1 10 155.13 7.98
-21 1 11 4.18 2.68
-21 1 11 10.46 2.97
-21 -1 11 6.83 3
-21 -1 11 2.74 2.96
-21 -1 12 47.66 4.48
-21 1 12 45.37 3.75
-21 -1 12 42.61 4.14
-21 1 12 50.6 4.53
-21 1 13 75.1 4.61
-21 -1 13 60.15 4.18
-21 -1 13 45.51 6.28
-21 1 13 58.02 4.02
-21 1 14 413.08 15.89
-21 -1 14 376.34 15.24
-21 1 14 346.16 14.85
-21 1 15 10.31 4.68
-21 -1 15 -6.51 2.77
-21 1 15 1.23 3.09
-21 -1 16 86.79 6.73
-21 1 16 115.49 8.49
-21 -1 17 14.27 3.94
-21 -1 18 229.65 12.6
-21 1 18 199.21 12.65
-21 1 19 12.04 5.86
-21 -1 19 28.51 4.45
-21 -1 20 200.17 13.46
-21 1 20 213.3 13.69
-21 -3 1 171.74 9.56
-21 3 1 177.73 8.56
-21 3 2 68.3 6.99
-21 -3 2 67.47 5.28
-21 -3 3 119.8 6.74
-21 3 3 111.58 7.11
-21 3 4 121.77 7.62
-21 -3 4 121.41 6.68
-21 3 4 137.48 6.33
-21 -3 5 177.03 9.1
-21 3 5 172.75 8.56
-21 3 5 231.35 10.6
-21 3 6 88.86 5.43
-21 3 6 89.85 4.5
-21 -3 6 74.9 5.52
-21 3 7 170.42 7.4
-21 -3 7 184.08 8.55
-21 3 7 190.27 9.31
-21 3 8 308.99 13.59
-21 3 8 301.81 13.14
-21 -3 8 357.43 14.24
-21 3 9 105.39 7.12
-21 3 9 98.93 5.65
-21 -3 9 91.43 5.28
-21 -3 10 545.78 19.92
-21 3 10 501.23 20.05
-21 3 10 498.31 19.19
-21 3 11 10.1 3.68
-21 3 11 39.6 4.76
-21 -3 11 34.85 3.91
-21 3 12 255.96 11.43
-21 3 12 258.32 11.44
-21 3 13 90.86 5.89
-21 3 13 99.51 5.93
-21 3 14 28.68 5.45
-21 3 14 21.27 4.7
-21 -3 15 9.66 3.72
-21 3 15 2.82 3.87
-21 3 15 17.28 4.53
-21 3 16 22.27 3.42
-21 3 16 21.32 5.44
-21 -3 16 34.81 4.6
-21 -3 17 64.57 6.13
-21 3 17 62.11 5.96
-21 3 18 225.58 14.96
-21 -3 18 193.01 13.72
-21 3 19 -0.62 3.85
-21 5 1 57.59 5.07
-21 -5 1 42.15 5.23
-21 -5 2 55.4 5.96
-21 5 2 51.94 4.96
-21 5 3 290.29 13.49
-21 -5 3 296.56 14.27
-21 5 4 289.89 13.57
-21 -5 4 208.68 11.7
-21 -5 5 81.21 6.03
-21 5 5 67.8 5.97
-21 -5 6 99.39 6.57
-21 5 6 88.44 6.67
-21 -5 7 116.51 6.89
-21 5 7 80.13 6.03
-21 5 8 76.89 6
-21 5 8 72.71 4.86
-21 5 9 197.44 9.68
-21 5 9 225.62 11.08
-21 5 10 70.53 4.27
-21 5 10 57.53 6.07
-21 5 11 177.77 10.15
-21 5 11 180.97 9.36
-21 5 12 21.99 4.06
-21 5 12 19.28 2.99
-21 5 13 18.42 4.89
-21 5 13 23.9 4.02
-21 5 14 43.18 6.21
-21 5 15 4.39 3.66
-21 5 16 10.62 3.75
-21 -5 17 1.39 4.28
-21 5 17 30.65 5.1
-21 7 1 41.56 4.39
-21 -7 1 21.08 4.2
-21 -7 2 19.18 4.93
-21 7 2 28.29 5.33
-21 7 3 7.83 3.55
-21 7 4 17.3 4.17
-21 7 5 126.98 9.17
-21 7 6 81.42 7.06
-21 7 7 314.59 17.95
-21 7 8 156 9.72
-21 7 9 202.39 11.97
-20 6 -4 92.06 6.79
-20 -6 -4 85.17 8.72
-20 6 -3 75.48 7.19
-20 -6 -3 51.2 6.89
-20 6 -2 82.4 7.7
-20 -6 -2 65.21 6.68
-20 6 -1 229.35 13.67
-20 -6 -1 254.28 14.6
-20 6 0 8.73 4.89
-20 -6 0 -1.29 4.73
-20 4 -7 247.78 14.49
-20 -4 -7 209.67 13.97
-20 4 -6 69.87 6.56
-20 -4 -6 57.2 7.39
-20 4 -5 290.95 15.21
-20 -4 -5 276.37 15.7
-20 -4 -4 104.87 8.9
-20 4 -4 78.18 5.53
-20 4 -3 186.24 10.16
-20 -4 -3 127.89 8.72
-20 -4 -2 299.86 13.26
-20 4 -2 317.75 14.53
-20 -4 -1 164.32 9.19
-20 4 -1 137.32 8.64
-20 4 0 91.55 5.77
-20 -4 0 91.04 6.72
-20 2 -9 10.01 3.58
-20 -2 -9 12.05 3.19
-20 2 -8 204.34 12.31
-20 -2 -8 201.43 13.99
-20 2 -7 15.13 3.56
-20 -2 -7 9.29 5.06
-20 -2 -6 146.14 9.16
-20 2 -6 134.15 7.87
-20 2 -5 20.71 3.56
-20 -2 -5 24.2 4.99
-20 -2 -4 177.16 10.58
-20 2 -4 164.47 8.71
-20 -2 -3 141.16 8.62
-20 2 -3 176.44 9.54
-20 2 -2 522.36 20.44
-20 -2 -2 451.56 18.31
-20 2 -1 188.25 9.06
-20 -2 -1 157.76 8.57
-20 -2 0 465.43 18.18
-20 2 0 442.04 16.96
-20 0 -9 -4.09 3.06
-20 0 -8 45.57 5.53
-20 0 -7 -4.19 2.56
-20 0 -6 610.44 24.11
-20 0 -5 -2.57 3.29
-20 0 -4 749.28 28.5
-20 0 -3 -1.04 4.36
-20 0 -2 713.71 26.34
-20 0 -1 4.28 2.82
-20 0 0 137.29 7.86
-20 0 1 0.73 4.28
-20 0 2 29.13 4.79
-20 0 3 25.7 4.77
-20 0 4 555.22 20.58
-20 0 5 2.57 2.46
-20 0 6 1788.02 60.3
-20 0 7 -3.58 2.66
-20 0 8 1513.85 51.75
-20 0 9 3.4 2.55
-20 0 9 -0.51 3.07
-20 0 10 740.79 27.12
-20 0 10 772.02 27.07
-20 0 11 1.17 3.74
-20 0 11 -0.41 2.06
-20 0 12 1115.91 38.84
-20 0 12 1139.39 38.85
-20 0 13 -2.14 2.88
-20 0 13 9.17 2.99
-20 0 14 300.86 12.72
-20 0 14 278.77 12.22
-20 0 15 -0.85 4.58
-20 0 16 154.07 9.79
-20 0 17 5.29 3.38
-20 0 18 44.65 5.8
-20 0 19 9.96 4.82
-20 0 20 118.48 8.89
-20 0 21 -2.91 3.43
-20 -2 1 42.21 5.6
-20 2 1 39.33 4.01
-20 2 2 1176.8 37.95
-20 2 2 1071.09 38.98
-20 -2 2 1095.89 38
-20 2 3 136.51 6.6
-20 2 3 99.87 5
-20 -2 3 115.36 6.51
-20 2 4 424.25 15.78
-20 -2 4 455.41 17.47
-20 2 4 381.27 14.34
-20 -2 5 66.17 5.16
-20 2 5 46.9 3.22
-20 2 5 59.34 4.61
-20 -2 6 363.83 14.33
-20 2 6 373.57 13.81
-20 2 6 376.13 14.89
-20 2 7 31.19 3.52
-20 2 7 49.42 4.18
-20 -2 8 441.87 16.97
-20 2 8 559.47 19.49
-20 2 8 470.68 18.58
-20 2 9 4.17 2.95
-20 -2 9 5.31 2.35
-20 2 9 5.42 3.4
-20 -2 10 492.93 17.54
-20 2 10 477.99 18.54
-20 2 10 461.29 17.69
-20 -2 11 34.17 3.63
-20 2 11 28.35 3.56
-20 2 11 11.04 3.71
-20 -2 12 155.71 7.88
-20 2 12 157.17 7.89
-20 2 12 153.93 7.88
-20 -2 13 29.11 4.01
-20 2 13 44.25 4.77
-20 2 13 35.02 4.39
-20 -2 14 137.38 7.46
-20 2 14 146.91 7.86
-20 2 14 172.01 7.96
-20 -2 15 191.22 9.54
-20 2 15 196.9 10.8
-20 2 15 213.83 9.78
-20 2 16 125.82 7.29
-20 -2 16 103.15 7.39
-20 2 16 113.34 6.79
-20 -2 17 77.32 7.28
-20 2 17 80.46 6.1
-20 -2 18 111.48 8.04
-20 2 18 115.43 8.07
-20 -2 19 5.23 3.63
-20 2 19 11.04 5.31
-20 -2 20 114.63 9.29
-20 2 20 96.53 8.84
-20 4 1 81.32 7.11
-20 -4 1 88.91 6.93
-20 -4 2 210.36 10.45
-20 4 2 248.97 11.59
-20 4 3 132.14 6.92
-20 -4 3 123.33 7.09
-20 -4 4 186.63 9.14
-20 4 4 222.04 10.21
-20 4 5 46.57 3.19
-20 4 5 52.41 4.51
-20 -4 5 46.55 4.24
-20 -4 6 86.81 6.44
-20 4 6 133.09 8.18
-20 4 6 130.5 6.38
-20 4 7 227.96 10.91
-20 -4 7 209.88 9.04
-20 4 8 415.42 17.2
-20 -4 8 386.22 16.27
-20 4 8 397.18 15.61
-20 4 9 386.78 16.68
-20 -4 9 482.45 17.77
-20 4 9 432.63 17.37
-20 4 10 572.21 22.24
-20 4 10 558.58 21.75
-20 4 11 263.74 11.18
-20 4 11 231.61 11
-20 4 12 201.02 10.28
-20 4 12 178.1 8.96
-20 4 13 54.19 4.8
-20 4 13 61.75 5.05
-20 4 14 7.42 3.03
-20 4 14 28.52 5.13
-20 4 15 64.7 5.75
-20 4 16 32.11 6.26
-20 -4 16 59.61 5.79
-20 4 17 45.1 5.94
-20 -4 17 40.62 6.56
-20 -4 18 115.6 8.24
-20 4 18 75.14 6.78
-20 -4 19 79.32 8.03
-20 4 19 59.17 6.56
-20 -6 1 174.52 10.14
-20 6 1 204.17 9.52
-20 -6 2 20.64 3.85
-20 6 2 23.17 5.4
-20 6 3 131.14 7.91
-20 -6 3 153.9 9.3
-20 -6 4 19.91 4.43
-20 6 4 -0.31 3.21
-20 -6 5 193.04 10.8
-20 6 5 212.87 10.88
-20 6 6 183.93 10.32
-20 6 7 104.58 8.31
-20 6 8 66.36 6.64
-20 6 9 126.91 7.86
-20 6 10 37.19 3.49
-20 6 10 47.32 5.8
-20 6 11 56.73 6.19
-20 6 11 85.54 6.43
-20 6 12 149.95 9.56
-20 6 13 53.32 6.32
-20 6 14 110.63 7.9
-20 6 15 103.15 8.15
-20 8 4 12.03 3.8
-20 8 5 319.95 18.09
-19 7 -3 91.11 7.48
-19 -7 -3 69.35 6.82
-19 7 -2 30.56 4.2
-19 -7 -2 14.91 3.78
-19 -7 -1 94.75 9.31
-19 7 -1 94.61 7.26
-19 7 0 66.26 6.31
-19 -7 0 27.21 5.62
-19 -5 -7 64.89 7.17
-19 5 -7 76.01 6.59
-19 5 -6 20.75 3.63
-19 -5 -6 9.62 4.06
-19 -5 -5 73.43 6.96
-19 5 -5 39.59 4.04
-19 -5 -4 149.72 9.55
-19 5 -4 146.55 9.74
-19 -5 -3 136.8 8.59
-19 5 -3 87.08 6.93
-19 5 -2 209.49 10.39
-19 -5 -2 200.46 10.23
-19 5 -1 172.92 9.04
-19 -5 -1 211.08 10.56
-19 5 0 126.43 7.69
-19 -5 0 158.19 9.26
-19 -3 -9 2.19 3.96
-19 3 -9 -4.42 3.6
-19 -3 -8 339.2 19.01
-19 3 -8 354.73 18.76
-19 3 -7 -3.05 3.76
-19 3 -6 323.28 13.05
-19 -3 -6 362.07 15.51
-19 -3 -5 20.54 4.09
-19 3 -5 -1.62 3.95
-19 -3 -4 214.32 10.88
-19 3 -4 236.86 11.95
-19 3 -3 101.62 6.22
-19 -3 -3 83.1 7.39
-19 -3 -2 340.53 15.31
-19 3 -2 300.01 12.64
-19 -3 -1 305.1 13.01
-19 3 -1 313.85 12.77
-19 3 0 207.2 9.16
-19 -3 0 235.79 11.41
-19 1 -10 23.66 3.59
-19 -1 -10 23.39 3.8
-19 1 -9 22.38 3.79
-19 -1 -9 7.8 4.41
-19 1 -8 78.19 6.56
-19 -1 -8 92.33 8.45
-19 1 -7 17.35 4.7
-19 -1 -7 7.1 3.5
-19 -1 -6 243.79 11.5
-19 1 -6 245.81 12.31
-19 -1 -5 146.92 7.84
-19 1 -5 148.74 8.47
-19 -1 -4 354.79 15.98
-19 1 -4 403.55 16.75
-19 -1 -3 51.54 5.97
-19 1 -3 64.73 5.37
-19 1 -2 442.2 17.3
-19 -1 -2 508.3 18.86
-19 -1 -1 67.57 5.48
-19 1 -1 61.29 6
-19 1 0 156.99 8.2
-19 -1 0 175.08 8.36
-19 -1 1 79.22 5.27
-19 1 1 84.65 5.39
-19 1 1 72.34 4.11
-19 1 2 169.46 8.92
-19 1 2 194.48 8.6
-19 -1 2 180.1 8.84
-19 -1 3 -10.01 3.86
-19 1 4 271.94 10.32
-19 1 4 224.79 9.34
-19 -1 4 272.45 11.26
-19 1 5 224.66 9.49
-19 1 5 251.09 10.49
-19 -1 5 191.86 8.18
-19 -1 6 359.68 13.84
-19 1 6 329.89 12.94
-19 1 6 348.24 13.5
-19 1 7 239.03 8.93
-19 -1 7 219.15 9.98
-19 1 7 196.61 8.79
-19 -1 8 307.74 13
-19 1 8 333.01 12.93
-19 1 8 311.96 12.69
-19 -1 9 82.65 5.56
-19 1 9 112.46 6.85
-19 1 9 113.57 5.69
-19 1 10 1082.86 39.25
-19 -1 10 1222.04 41.44
-19 1 10 1264.52 41.94
-19 1 11 283.15 11.03
-19 -1 11 245.96 11.44
-19 1 11 223.7 10.42
-19 -1 11 301.77 12.44
-19 1 12 673.93 22.91
-19 -1 12 587.57 22.59
-19 1 12 531.51 22.23
-19 -1 12 589.51 22.86
-19 -1 13 265.71 12
-19 -1 13 244.18 10.88
-19 1 13 261.68 11.17
-19 1 13 234.25 11.13
-19 1 14 818.71 30.83
-19 -1 14 912.41 34.03
-19 1 14 943.31 30.87
-19 -1 14 873.15 31.4
-19 1 15 23.94 4.03
-19 1 15 10.62 2.68
-19 -1 15 32.62 4.25
-19 1 16 208.84 12.17
-19 -1 16 229.47 11.42
-19 1 17 2.31 3.68
-19 -1 17 -2.65 4.87
-19 1 18 102.73 7.34
-19 -1 18 139.44 8.9
-19 -1 19 -1.68 3.9
-19 1 19 -1.56 4.27
-19 1 20 101.98 7.68
-19 -1 20 98.29 7.89
-19 1 21 -2.89 4.13
-19 -1 21 1.99 3.76
-19 -3 1 148.28 7.99
-19 3 1 149.26 7.72
-19 3 2 61.92 4.62
-19 -3 2 66.48 5.51
-19 -3 3 405.5 16.62
-19 3 3 360.18 14.28
-19 3 3 380.34 13.93
-19 3 4 102.01 4.92
-19 3 4 93.7 5.64
-19 -3 4 106.29 6.79
-19 -3 5 47.1 3.92
-19 3 5 46.4 3.07
-19 3 5 28.67 3.98
-19 3 6 205.17 9.39
-19 -3 6 185.14 7.71
-19 3 6 183.03 7.57
-19 -3 7 100.36 5.9
-19 3 7 119.95 6.3
-19 3 7 127.07 6.38
-19 3 8 865.83 29.24
-19 -3 8 816.73 28.41
-19 3 8 805.98 30.44
-19 -3 9 78.58 3.99
-19 3 9 64.06 4.89
-19 3 9 78.43 5.26
-19 3 10 999.22 35.85
-19 3 10 1062.05 36.47
-19 -3 10 1095.15 37.36
-19 3 11 107.43 5.83
-19 -3 11 94.73 5.63
-19 3 11 93.53 5.48
-19 3 12 545.47 20.64
-19 3 12 587.83 21.53
-19 3 13 85.55 6.53
-19 3 13 79.85 6.04
-19 3 14 245.32 11.1
-19 3 14 225.39 10.57
-19 -3 15 29.9 4.37
-19 3 15 27.59 3.63
-19 3 15 29.57 4.83
-19 -3 16 127.64 7.85
-19 3 16 127.98 6.74
-19 3 17 31.79 4.71
-19 -3 17 38.92 4.83
-19 3 18 178.04 10.79
-19 -3 18 165.5 11.54
-19 3 19 42.79 5.73
-19 -3 19 47.15 7.1
-19 3 20 129.07 9.89
-19 -3 20 169.73 11.32
-19 -5 1 260.1 12.6
-19 5 1 250.65 11.87
-19 -5 2 223.3 11.37
-19 5 2 289.37 12.9
-19 -5 3 194.35 11.18
-19 5 3 175.59 9.02
-19 5 4 67 5.87
-19 -5 4 72.83 5.37
-19 -5 5 99.16 6.15
-19 5 5 94.02 6.06
-19 5 6 70.85 5.22
-19 -5 6 60.5 4.52
-19 5 6 64.76 3.92
-19 5 7 337.07 13.8
-19 -5 7 286.89 12.92
-19 5 7 299.62 13.33
-19 5 8 122.43 8.33
-19 5 8 109.54 6.6
-19 -5 8 138.18 7.24
-19 5 9 382.2 14.96
-19 5 9 384.97 16.11
-19 5 10 110.18 7.5
-19 5 10 114.02 7.2
-19 5 11 140.25 8.44
-19 5 11 168.23 8.13
-19 5 12 197.37 10.09
-19 5 12 192.01 10.84
-19 5 13 34.13 4.02
-19 5 14 216.8 11.03
-19 5 15 95.73 7.88
-19 5 16 36.87 5.44
-19 5 17 154.43 11.2
-19 -5 17 140.39 9.84
-19 -5 18 23.75 4.54
-19 5 18 31.66 5.73
-19 -7 1 109.06 8.33
-19 7 1 89.87 7.05
-19 -7 2 48.65 5.7
-19 7 2 9.13 5.35
-19 7 3 87.17 6.82
-19 -7 3 92.59 7.82
-19 7 4 23.21 4.71
-19 7 5 280.5 15.07
-19 7 6 1.46 3.85
-19 7 7 513.55 25.1
-19 7 8 53.21 6
-19 7 11 171.07 10.08
-19 7 12 52.6 5.41
-19 7 13 226.07 12.72
-19 7 14 20.05 4.8
-18 8 0 19.56 4.78
-18 -8 0 2.38 3.68
-18 6 -6 91.76 7.07
-18 -6 -6 54.13 6.26
-18 -6 -5 140.01 11.45
-18 6 -5 113.16 7.78
-18 -6 -4 171.15 11.78
-18 6 -4 172.66 10.92
-18 -6 -3 168.06 11.03
-18 6 -3 191.23 10.61
-18 6 -2 59.87 6.17
-18 -6 -2 73.33 6.38
-18 6 -1 261.04 11.26
-18 6 -1 250.68 11.88
-18 -6 -1 228.94 11.19
-18 -6 0 18.54 5.07
-18 6 0 9.3 3.76
-18 -4 -9 85.66 7.11
-18 4 -9 178.34 10.9
-18 4 -8 178.89 11.23
-18 -4 -8 158.77 10.31
-18 -4 -7 105.63 7.43
-18 4 -7 113.27 7.84
-18 4 -6 125.23 7.82
-18 -4 -6 106.1 8.6
-18 4 -5 14.81 3.17
-18 -4 -5 15.79 5.51
-18 4 -4 208.31 9.48
-18 -4 -4 214.46 11.94
-18 4 -3 -2.04 3.37
-18 -4 -3 33.51 5.43
-18 4 -2 266.84 11.87
-18 -4 -2 270.17 13.38
-18 -4 -1 95.84 6.95
-18 4 -1 113.94 6.7
-18 4 0 189.51 9
-18 -4 0 105.17 7.07
-18 2 -10 92.91 6.61
-18 -2 -10 66.36 7.46
-18 2 -9 5.21 3.07
-18 -2 -9 7.86 3.31
-18 -2 -8 154.57 9.68
-18 2 -8 184.31 11.07
-18 -2 -7 -8.29 2.9
-18 2 -7 0.51 2.24
-18 -2 -6 171.44 9.62
-18 2 -6 189.53 9.83
-18 2 -5 42.55 4.17
-18 -2 -5 59.74 5.95
-18 -2 -4 415.93 16.79
-18 2 -4 397.64 16.25
-18 -2 -3 388.49 15.25
-18 2 -3 372.65 15.54
-18 -2 -2 672.27 24.35
-18 2 -2 702.77 25
-18 2 -1 23.53 3.07
-18 -2 -1 5.61 4.66
-18 2 0 428.28 14.48
-18 -2 0 352.5 14.39
-18 2 0 337.82 13.46
-18 0 -11 0.31 4.11
-18 0 -10 52.12 5.35
-18 0 -9 -0.21 2.87
-18 0 -8 299.52 13.98
-18 0 -7 -0.72 4.42
-18 0 -6 553.4 21.48
-18 0 -5 0.41 4.14
-18 0 -4 569.21 21.01
-18 0 -3 1.46 2.5
-18 0 -2 362.62 14.65
-18 0 -1 3.63 1.5
-18 0 -1 3.14 2.93
-18 0 0 2.72 3.03
-18 0 0 9.04 1.37
-18 0 2 480.11 17.51
-18 0 3 4.97 2.59
-18 0 4 415.25 16.08
-18 0 5 5.74 2.56
-18 0 6 706.18 25.47
-18 0 7 1.43 3.06
-18 0 8 316.44 13.36
-18 0 8 405.56 14.44
-18 0 9 -0.61 2.86
-18 0 9 5.61 2.54
-18 0 10 509.72 17.33
-18 0 10 459.62 17.21
-18 0 11 -2.34 2.77
-18 0 12 1282.59 42.85
-18 0 12 1216.84 42.02
-18 0 13 1.6 2.98
-18 0 13 10.98 2.26
-18 0 14 501.78 17.93
-18 0 14 449.64 18.26
-18 0 15 10.84 2.58
-18 0 15 -2.75 3.18
-18 0 16 159.97 10.89
-18 0 17 -10.09 5.15
-18 0 18 39.76 6.18
-18 0 19 -8.85 3.54
-18 0 20 49.25 6.43
-18 0 21 -5.16 3.82
-18 2 1 207.71 9.47
-18 -2 1 204.47 8.74
-18 2 1 185.28 7.89
-18 2 1 207.85 8.3
-18 -2 1 212.57 10.1
-18 2 2 132.52 6.26
-18 2 2 123.83 5.27
-18 -2 2 142.37 7.31
-18 2 2 159.57 6.49
-18 2 3 98.71 4.35
-18 -2 3 82.99 5.04
-18 2 3 90.92 5.03
-18 2 4 54.4 5.52
-18 2 4 39.71 2.69
-18 -2 4 48.54 4.06
-18 2 5 38.59 3.57
-18 -2 5 40.5 4.33
-18 2 5 35.76 2.9
-18 2 6 67.73 5.69
-18 -2 6 55.17 4.21
-18 2 6 65.3 3.86
-18 2 7 20.92 3.2
-18 -2 7 34.38 3.58
-18 2 7 22.7 3.04
-18 2 8 292.68 11.5
-18 2 8 288.98 11.61
-18 -2 8 270.49 11.04
-18 -2 9 32.11 3.49
-18 2 9 23.86 4.15
-18 2 9 28.13 3.2
-18 -2 10 513.34 19.26
-18 2 10 503.37 18.28
-18 2 10 484.48 17.62
-18 2 11 35.72 3.51
-18 2 11 50.01 4.77
-18 -2 11 27.66 3.32
-18 2 12 537.32 19.39
-18 -2 12 524.19 20.32
-18 2 12 514.78 19.64
-18 -2 13 131.56 8.47
-18 2 13 143.41 7.62
-18 -2 13 172.99 6.93
-18 2 13 153.1 7.35
-18 2 14 176.76 9.87
-18 -2 14 171.93 9.27
-18 2 14 229.01 9.59
-18 2 15 134.12 7.54
-18 -2 15 128.53 8.53
-18 2 15 120.63 7.83
-18 2 16 414.19 17.36
-18 -2 16 400.46 15.81
-18 2 17 -5.45 3.46
-18 -2 17 1.91 3.4
-18 -2 18 253.08 13.15
-18 2 18 276.71 13.74
-18 -2 19 59.8 6.48
-18 2 19 39.4 6.24
-18 2 20 132.31 9.34
-18 -2 20 153.2 10.51
-18 2 21 87.73 8.26
-18 -2 21 78.41 8.13
-18 4 1 113.92 7.12
-18 -4 1 116.22 6.85
-18 4 2 354.91 13.98
-18 -4 2 372.23 14.79
-18 4 3 136.38 6.23
-18 -4 3 143.21 7.43
-18 4 3 147.16 7.22
-18 4 4 24.9 2.03
-18 4 4 18.74 3.38
-18 -4 4 29.27 3.24
-18 4 5 154.02 7.68
-18 -4 5 105.84 6.23
-18 4 5 105.35 5.42
-18 4 6 219.1 9.59
-18 -4 6 217.55 9.26
-18 4 6 160.54 7.65
-18 4 7 361.55 14.43
-18 4 7 384.01 14.45
-18 -4 7 361.87 13.87
-18 4 8 346.22 14.4
-18 4 8 387.11 14.96
-18 -4 8 385.23 14.25
-18 4 9 391.55 15.01
-18 4 9 352.13 15.08
-18 -4 9 353.98 14.3
-18 -4 10 151.03 6.5
-18 4 10 154.62 7.94
-18 4 10 178.76 8.41
-18 4 11 240.16 10.79
-18 4 11 242.12 11.4
-18 4 12 227.78 10.56
-18 4 12 227.58 10.21
-18 4 13 193.31 9.4
-18 4 13 124.23 6.56
-18 4 14 190.58 9.82
-18 4 15 117.1 7.68
-18 4 16 158.31 8.32
-18 -4 16 137.27 10.22
-18 4 17 45.16 6.38
-18 -4 17 63.33 5.93
-18 4 18 81.14 7.43
-18 -4 18 70.61 7.24
-18 4 19 49.02 5.74
-18 -4 19 77.05 7.25
-18 6 1 256.84 11.97
-18 -6 1 222.13 10.84
-18 -6 2 41.48 4.94
-18 6 2 43.89 5.42
-18 6 3 236.26 11.91
-18 -6 3 211.24 10.63
-18 -6 4 5.6 2.85
-18 6 4 26.85 3.94
-18 -6 5 204.04 11.34
-18 6 5 198.46 9.75
-18 -6 6 70.73 5.06
-18 6 6 62.43 5.56
-18 6 7 77.29 5.96
-18 6 7 76.26 5.35
-18 6 8 27.68 3.64
-18 6 8 21.06 3.89
-18 6 9 118.57 7.88
-18 6 9 137.63 7.57
-18 6 10 65.5 6.04
-18 6 10 80.35 5.77
-18 6 11 203.03 11.34
-18 6 12 313.78 14.8
-18 6 13 125.65 8.89
-18 6 14 123.73 8.31
-18 6 15 170.23 10.7
-18 6 16 26.52 4.51
-18 8 1 71.35 6.49
-18 8 1 75.08 6.57
-18 8 3 202.93 13
-17 -7 -5 149.42 9.98
-17 7 -5 126.02 8.18
-17 -7 -4 55.89 7.25
-17 7 -4 39.82 4.86
-17 7 -3 164.6 10.18
-17 -7 -3 147.82 11.06
-17 -7 -2 -5.84 3.14
-17 7 -2 0.74 3.91
-17 7 -1 95.52 6.06
-17 7 -1 84.07 6.14
-17 -7 -1 75.61 6.62
-17 7 0 15.63 4.44
-17 7 0 5.62 2.6
-17 -7 0 19.46 4.76
-17 5 -8 10.71 2.94
-17 5 -7 81.01 6.28
-17 -5 -7 70.13 6.34
-17 5 -6 18.72 3.12
-17 -5 -6 19.4 4.82
-17 5 -5 12.76 4.15
-17 -5 -5 16.4 4.18
-17 -5 -4 177.58 8.84
-17 5 -4 178.03 9.18
-17 5 -3 174.14 9.08
-17 -5 -3 196.82 9.28
-17 5 -2 137.73 7.39
-17 5 -2 144.07 8.13
-17 -5 -2 166.47 9.06
-17 5 -1 353.38 14.14
-17 -5 -1 324.52 14.07
-17 5 0 269.59 11.82
-17 -5 0 256.97 12.11
-17 3 -10 197.08 11.78
-17 -3 -10 225.89 13.59
-17 3 -9 5.64 2.67
-17 -3 -9 -8.06 3.45
-17 3 -8 209.56 10.91
-17 -3 -8 158.37 10.1
-17 3 -7 16.15 3.25
-17 -3 -7 6.18 5.03
-17 3 -6 102.56 5.81
-17 -3 -6 95.37 7.47
-17 3 -5 58.85 5.28
-17 -3 -5 56.89 5.06
-17 -3 -4 217.97 11.02
-17 3 -4 295.02 12.7
-17 3 -3 94.16 5.61
-17 -3 -3 116.37 7.95
-17 3 -2 419.51 16.15
-17 3 -2 423.01 15.97
-17 -3 -2 396.02 16.01
-17 -3 -1 250.28 10.48
-17 3 -1 283.84 12.23
-17 -3 0 803.1 28.87
-17 3 0 754.1 26.84
-17 1 -11 24.71 3.1
-17 -1 -11 32.34 5.47
-17 1 -10 122.1 7.97
-17 -1 -10 101.32 6.95
-17 -1 -9 -8.24 3.19
-17 1 -9 11.58 4
-17 1 -8 147.62 7.66
-17 -1 -8 160.54 9.36
-17 -1 -7 133.92 7.92
-17 1 -7 124.18 6.82
-17 1 -6 231.52 11.1
-17 -1 -6 242.67 11.12
-17 1 -5 170.04 8.4
-17 -1 -5 206.39 9.98
-17 -1 -4 653.02 24.56
-17 1 -4 663.67 24.56
-17 -1 -3 14.91 3.36
-17 1 -3 21.46 4.64
-17 -1 -2 462.99 18.37
-17 1 -2 423.51 16.73
-17 1 -2 486.5 17.55
-17 1 -1 46.97 4.14
-17 -1 -1 64.99 4.97
-17 1 -1 58 2.92
-17 1 0 617.47 23.12
-17 -1 0 631.5 21.29
-17 1 0 631.21 22.1
-17 -1 0 620.43 22.35
-17 -1 1 47.69 5.28
-17 1 1 63.18 4.86
-17 1 2 592.79 22.43
-17 -1 2 601.35 22.32
-17 1 2 589.05 20.84
-17 1 3 4.82 2.67
-17 -1 3 1.98 2.51
-17 -1 4 403.62 15.05
-17 1 4 388.93 14.77
-17 1 4 442.26 16.96
-17 1 5 202.23 8.29
-17 -1 5 171.49 7.46
-17 1 5 203.09 8.21
-17 1 6 330.84 12.97
-17 1 6 364.17 12.9
-17 -1 6 371.67 14.07
-17 1 7 58.6 4.37
-17 -1 7 62.67 4.51
-17 1 7 64.93 3.74
-17 -1 8 132.79 6.18
-17 1 8 154.37 7.09
-17 1 8 146.53 6.42
-17 -1 9 144.15 6.72
-17 1 9 116.24 6.97
-17 1 9 138.21 6.32
-17 1 10 416.86 15.39
-17 1 10 461.09 16.06
-17 -1 10 470.67 16.68
-17 -1 11 149.12 6.75
-17 -1 11 151.57 7.92
-17 1 11 153.19 7.83
-17 1 11 162.34 7.89
-17 -1 12 624.92 23.39
-17 1 12 712.24 24.55
-17 -1 12 687.1 23.44
-17 1 12 728.59 25.78
-17 -1 13 229.04 8.88
-17 1 13 195.05 9.18
-17 -1 13 218.97 10.41
-17 1 13 222.95 9.54
-17 -1 14 557.75 23.79
-17 1 14 569.45 21.45
-17 -1 14 502.76 20.87
-17 1 14 579.24 21.96
-17 -1 15 115.57 7.53
-17 1 15 95.86 6.3
-17 1 15 101.48 6.25
-17 1 16 175.17 9.29
-17 -1 16 155.69 8.8
-17 1 17 4.81 3.66
-17 -1 17 26.42 4.74
-17 1 18 53.44 5.73
-17 -1 18 77.65 7.57
-17 -1 19 -8.05 3.76
-17 1 19 7.57 4.15
-17 1 20 115.85 9.2
-17 -1 20 133.4 8.88
-17 1 21 17.76 4.52
-17 -1 21 21.26 5.08
-17 3 1 363.11 14.52
-17 -3 1 368.5 14.57
-17 3 2 84.31 3.75
-17 -3 2 110.39 6.27
-17 3 2 106 6.67
-17 3 3 132.1 7.07
-17 3 3 101.16 4.68
-17 -3 3 100.71 6.02
-17 3 4 23.74 3.77
-17 -3 4 25.96 3.24
-17 3 4 25.32 2.3
-17 3 5 26.51 3.35
-17 -3 5 20.85 3.51
-17 3 5 26.6 2.61
-17 3 6 493.29 17.78
-17 3 6 508.23 18.42
-17 -3 6 400.77 15.78
-17 3 7 132.47 6.27
-17 3 7 123.02 6.48
-17 -3 7 141.92 6.56
-17 -3 8 542.73 19.8
-17 3 8 594.61 19.89
-17 3 8 529.17 20.39
-17 3 9 69.52 5.25
-17 3 9 65.97 3.84
-17 -3 9 61.88 3.71
-17 3 10 463.06 17.9
-17 -3 10 514.1 19.6
-17 3 10 502.28 19.37
-17 3 11 121.48 6.69
-17 -3 11 106.9 5.76
-17 3 11 89.61 6.1
-17 -3 12 305.28 13.89
-17 3 12 315.97 13.69
-17 3 12 313.96 13.2
-17 3 13 56.41 5.18
-17 3 13 96.99 5.8
-17 -3 14 209.78 10.89
-17 3 14 188.07 9.53
-17 3 15 42.06 5.79
-17 -3 15 33.1 4.58
-17 3 16 299.21 13.01
-17 -3 16 336.16 13.62
-17 -3 17 55.6 6.85
-17 3 17 65.9 7.03
-17 -3 18 11.34 4.71
-17 3 18 36.58 5.13
-17 3 19 80.36 7.31
-17 -3 19 60.68 6.74
-17 3 20 29.09 6.44
-17 -3 20 41.68 5.98
-17 5 1 51.07 5.3
-17 -5 1 67.67 4.2
-17 -5 2 324.16 14.01
-17 5 2 344.56 14.39
-17 -5 3 162.53 9.07
-17 5 3 204.69 9.24
-17 5 4 81.57 6.18
-17 -5 4 87.5 5.18
-17 5 4 78.8 4.16
-17 -5 5 49.46 4.58
-17 5 5 75.48 5.64
-17 5 5 62.34 3.94
-17 5 6 5.3 2.44
-17 5 6 -10.81 4.39
-17 -5 6 1.95 2.05
-17 5 7 108.44 6.01
-17 -5 7 104.99 5.89
-17 5 7 92.97 5.04
-17 -5 8 75.87 5.24
-17 5 8 82.57 6.1
-17 5 8 76.22 5.34
-17 5 9 272.5 11.62
-17 5 9 229.55 11.49
-17 5 10 71.59 6.52
-17 5 10 44.44 4.52
-17 5 11 46.79 5.01
-17 5 11 47.71 3.65
-17 5 12 174.17 8.79
-17 5 13 77.11 5.52
-17 5 14 92.62 6.24
-17 5 15 217.6 10.9
-17 5 16 115.88 8.2
-17 5 17 170.37 11.45
-17 -5 17 190.38 12.24
-17 -5 18 97.96 9.52
-17 5 18 104.03 10.16
-17 -7 1 117 7.59
-17 7 1 116.75 6.88
-17 -7 2 35.4 5.81
-17 7 2 74.12 5.91
-17 -7 3 96.95 6.67
-17 7 3 136.05 7.92
-17 7 4 31.9 4.83
-17 -7 4 53.4 6.7
-17 7 5 287.91 13.36
-17 7 6 48.49 6.37
-17 7 8 9.17 3.44
-17 7 9 178.93 8.57
-17 7 10 38.76 4.29
-17 7 11 417.65 22.6
-17 7 12 72.53 6.36
-17 7 13 184.02 11.32
-17 7 14 53.2 5.75
-17 7 15 45.94 5.08
-16 -8 -3 68.81 7.68
-16 8 -3 72.91 6.41
-16 8 -2 39.91 4.38
-16 -8 -2 67.35 6.5
-16 -8 -1 78.43 6.94
-16 8 -1 104.19 7.3
-16 8 -1 91.35 8.02
-16 -8 0 43.38 5.63
-16 8 0 62.77 6.42
-16 8 0 53.6 5.2
-16 6 -8 68.39 6.06
-16 -6 -8 93.3 8.35
-16 6 -7 12.36 2.96
-16 -6 -7 23.14 4.97
-16 -6 -6 167.44 11.37
-16 6 -6 122.32 8.15
-16 6 -5 39.97 5.16
-16 -6 -5 29.69 4.43
-16 -6 -4 128.58 7.8
-16 6 -4 91.44 6.64
-16 6 -3 300.05 12.72
-16 -6 -3 288.5 13.69
-16 6 -2 10.19 3.36
-16 6 -2 2.82 3.03
-16 -6 -2 5.83 3.67
-16 -6 -1 278.44 13.7
-16 6 -1 309.68 12.91
-16 6 -1 328.92 13.26
-16 -6 0 69.63 5.63
-16 6 0 96.29 6.95
-16 4 -10 131.36 8.75
-16 -4 -10 102.83 8.85
-16 4 -9 119.41 8.15
-16 -4 -9 116.16 8.53
-16 -4 -8 80.2 7.45
-16 4 -8 78.57 5.6
-16 -4 -7 39.62 5.53
-16 4 -7 46.45 4.63
-16 4 -6 22.55 3.9
-16 -4 -6 41.65 5.85
-16 -4 -5 69.76 5.65
-16 4 -5 72.4 4.53
-16 -4 -4 128.84 8.01
-16 4 -4 152.07 7.73
-16 4 -3 237.3 9.33
-16 -4 -3 186.55 9.53
-16 4 -3 195.31 8.68
-16 4 -2 414.23 16.09
-16 4 -2 366.34 15.16
-16 -4 -2 400.48 16.87
-16 -4 -1 146.05 7.41
-16 4 -1 132.47 7.14
-16 -4 0 337.15 14.01
-16 4 0 348.79 13.5
-16 2 -12 83.59 6.38
-16 -2 -12 112.39 8.76
-16 -2 -11 12.55 3.84
-16 2 -11 13.32 3.82
-16 2 -10 150.82 9.82
-16 -2 -10 179.21 11.06
-16 -2 -9 16.28 4.15
-16 2 -9 67.96 4.62
-16 2 -8 74.15 5.22
-16 -2 -8 89.38 6.46
-16 -2 -7 32.44 4.37
-16 2 -7 41.27 3.47
-16 -2 -6 284.31 12.73
-16 2 -6 273.93 11.61
-16 2 -5 68.39 5.1
-16 -2 -5 76.79 6.5
-16 2 -4 507.92 18.85
-16 -2 -4 552.99 20.87
-16 2 -3 27.21 4.18
-16 -2 -3 32.6 3.91
-16 2 -2 1285.62 42.46
-16 2 -2 1153.85 40.35
-16 -2 -2 1125.25 39.78
-16 -2 -1 9.77 2.97
-16 2 -1 14.82 2.97
-16 2 0 666.01 24.76
-16 -2 0 752.54 26.44
-16 2 0 727.45 24.01
-16 2 0 731.42 23.66
-16 0 -12 182.11 12.5
-16 0 -11 -6.91 2.68
-16 0 -10 139.15 9.04
-16 0 -9 0.21 2.78
-16 0 -8 207.42 10.14
-16 0 -7 -1.86 2.58
-16 0 -6 838.5 29.69
-16 0 -5 -3.84 2.49
-16 0 -4 353.31 14.46
-16 0 -3 2.53 1.58
-16 0 -3 -0.31 2.51
-16 0 -2 233.65 10.24
-16 0 -2 214.94 9.53
-16 0 -1 2.83 2.73
-16 0 0 782.55 29.52
-16 0 0 792.78 27.9
-16 0 1 -0.51 1.13
-16 0 1 -1.36 2.41
-16 0 2 304.25 13.75
-16 0 2 278.49 11.51
-16 0 4 490.46 17.93
-16 0 5 1.53 2.45
-16 0 6 687.53 24.18
-16 0 7 -5.08 1.93
-16 0 8 614.48 19.38
-16 0 8 459.38 19.69
-16 0 9 2.01 2.54
-16 0 9 1.83 2.14
-16 0 10 1156.22 36.95
-16 0 10 1090.4 37.05
-16 0 11 2.55 2.33
-16 0 11 0.51 2.66
-16 0 12 1675.33 59.6
-16 0 12 1874.59 60.31
-16 0 13 0.42 4.34
-16 0 13 -3.4 2.27
-16 0 14 793.61 29.27
-16 0 14 748.85 28.61
-16 0 15 -7.9 3.37
-16 0 15 3.97 2.3
-16 0 16 147.67 8.74
-16 0 17 2.3 4.7
-16 0 18 224.05 11.49
-16 0 19 8.59 3.62
-16 0 20 116.66 9.5
-16 0 21 -5.44 3.9
-16 2 1 662.37 22.02
-16 2 1 566.3 20.9
-16 -2 1 665.55 22.82
-16 2 1 567.83 20.73
-16 -2 1 613.84 23.3
-16 2 2 432.13 15.97
-16 -2 2 472.21 17.26
-16 2 2 499.55 17.38
-16 2 3 176.29 7.57
-16 -2 3 157.48 7.28
-16 2 3 139.24 6
-16 -2 4 506.55 17.77
-16 2 4 466.05 15.95
-16 2 4 411.76 15.88
-16 -2 5 80.11 4.97
-16 2 5 91.18 4.32
-16 2 5 75.74 4.87
-16 2 6 19.3 2.36
-16 2 6 27.67 3.54
-16 -2 6 37.45 3.49
-16 2 7 104.51 5.27
-16 -2 7 81.81 4.84
-16 2 7 80.55 5.55
-16 2 8 414.81 14.02
-16 2 8 344.51 13.8
-16 -2 8 381.24 13.63
-16 -2 9 9.78 2.06
-16 2 9 11.2 3.73
-16 2 9 19.23 2.46
-16 2 10 130.13 6.51
-16 2 10 143.71 7.08
-16 -2 10 132.15 6.45
-16 -2 11 129.49 5.84
-16 2 11 134.32 6.63
-16 2 11 130.13 7.16
-16 2 12 575.88 19.73
-16 2 12 522.66 19.72
-16 -2 12 531.6 19.39
-16 2 13 191.89 9.59
-16 -2 13 194.29 8.46
-16 2 13 224.65 9.61
-16 -2 13 199.15 9.13
-16 -2 14 525.76 19.35
-16 2 14 524.54 21.07
-16 2 14 512.04 20.56
-16 2 15 17.4 4.01
-16 -2 15 12.91 3.6
-16 2 16 536.04 20.98
-16 -2 16 561.68 22.98
-16 2 17 43.03 4.82
-16 -2 17 36.28 4.98
-16 -2 18 111.38 8.68
-16 2 18 70.8 7.41
-16 2 19 78.28 7.59
-16 -2 19 79.6 6.65
-16 2 20 17.67 4.55
-16 -2 20 33.48 4.73
-16 2 21 15.74 4.12
-16 -2 21 21.76 5.44
-16 4 1 173.15 8.08
-16 -4 1 160.22 7.74
-16 -4 2 261.4 10.42
-16 4 2 240.56 10.55
-16 4 3 48.51 2.75
-16 4 3 47.7 4.31
-16 -4 3 64.41 5.4
-16 4 4 231.95 10.06
-16 -4 4 216.5 9.81
-16 4 4 218.16 9.21
-16 4 5 249.06 10.81
-16 4 5 285.89 10.84
-16 -4 5 265.39 11.05
-16 4 6 54.82 4.56
-16 -4 6 39.48 3.79
-16 4 7 368.45 13.91
-16 -4 7 369.47 13.91
-16 4 7 381.59 14.24
-16 4 8 256.1 10.9
-16 4 8 247.57 11.65
-16 -4 8 280.12 10.74
-16 4 9 150.47 8.42
-16 4 9 135.01 7.32
-16 -4 9 146.56 6.89
-16 4 10 210.57 9.34
-16 -4 10 230.62 9.1
-16 4 10 211.2 9.59
-16 4 11 123.99 6.61
-16 4 11 158.72 8.01
-16 4 12 370.01 15.27
-16 4 12 370.48 14.63
-16 4 13 130.45 7.41
-16 4 14 284.33 13.57
-16 4 15 98.29 8.53
-16 -4 15 96.33 7.81
-16 4 16 205.97 10.78
-16 -4 16 165.95 9.6
-16 4 17 34.52 4.62
-16 -4 17 24.99 4.29
-16 4 18 36.36 5.03
-16 -4 18 41.24 5.91
-16 4 19 30.96 5.34
-16 -4 19 18.04 4.19
-16 -4 20 6.22 4.61
-16 6 1 353.94 14.97
-16 -6 1 331.49 14.9
-16 6 2 49.68 4.71
-16 -6 2 44.35 3.66
-16 6 3 249.44 11.73
-16 -6 3 227.31 11.4
-16 6 4 38.11 5.09
-16 -6 4 31.65 4.77
-16 6 5 216.51 10.22
-16 6 5 211.23 10.8
-16 -6 5 220.2 11.17
-16 6 6 2.99 4.33
-16 6 6 16.93 2.9
-16 -6 6 11.14 2.37
-16 6 7 56.24 5.76
-16 6 7 66.61 4.9
-16 6 8 19 5.13
-16 6 8 26.82 3.1
-16 6 9 193.01 9.62
-16 6 10 113.21 7.37
-16 6 11 176.75 9.33
-16 6 12 357.75 16.67
-16 6 13 94.31 6.3
-16 6 14 10.88 4.54
-16 6 15 329.18 18.87
-16 6 16 20.04 4.3
-16 6 17 100.92 7.98
-16 -6 17 93.06 8.6
-16 8 1 244.38 14.58
-16 8 1 280.8 15.35
-16 -8 1 315.09 19.47
-16 8 10 10.76 3.27
-16 8 11 206.82 12.66
-16 8 12 8.42 3.95
-15 7 -6 89.84 6.7
-15 -7 -6 50.62 6.28
-15 -7 -5 140.02 10.84
-15 7 -5 144.3 9.99
-15 -7 -4 60.54 5.74
-15 7 -4 96.25 6.7
-15 7 -3 41.37 5.41
-15 -7 -3 62.83 6.71
-15 7 -3 44.7 4.23
-15 7 -2 14.96 2.72
-15 -7 -2 6.49 3.14
-15 7 -2 0.53 2.87
-15 7 -1 193.51 8.79
-15 -7 -1 171.72 10.02
-15 7 -1 168.43 9.37
-15 7 0 50.76 4.57
-15 -7 0 30.18 5.2
-15 5 -10 55.8 5.12
-15 -5 -10 32.89 4.96
-15 -5 -9 64 6.58
-15 5 -9 68.24 5.62
-15 5 -8 11.98 3.15
-15 -5 -8 17.01 5.49
-15 -5 -7 -0.75 3.33
-15 5 -7 8.37 3.45
-15 5 -6 120.3 6.51
-15 -5 -6 132.63 7.98
-15 -5 -5 89.94 6.03
-15 5 -5 104.12 6.08
-15 5 -4 287.74 12.2
-15 -5 -4 276.87 13.18
-15 5 -3 490.62 19.67
-15 -5 -3 523.72 20.91
-15 5 -3 550.95 19.73
-15 -5 -2 588.96 24.07
-15 5 -2 561.5 22.5
-15 5 -2 619.64 23.19
-15 5 -1 447.09 17.26
-15 -5 -1 493.73 19.33
-15 -5 0 625.69 23.7
-15 5 0 685.37 24.72
-15 3 -12 241.71 13.92
-15 -3 -12 217.79 13.33
-15 3 -11 12.58 2.91
-15 -3 -11 20.91 4.42
-15 -3 -10 367.57 19.69
-15 3 -10 371.06 16.95
-15 -3 -9 38.23 4.84
-15 3 -9 31.64 4.31
-15 -3 -8 176.36 10.14
-15 3 -8 226.05 9.8
-15 -3 -7 54.87 6.1
-15 3 -7 18.58 3.86
-15 -3 -6 160.72 8.36
-15 3 -6 214.18 8.92
-15 3 -5 72.68 4.48
-15 -3 -5 60.01 5.18
-15 -3 -4 279.29 12.54
-15 3 -4 340.35 13.04
-15 -3 -3 141.29 7.87
-15 3 -3 151.77 7.78
-15 3 -2 196.27 8.62
-15 3 -2 206.56 7.93
-15 -3 -2 189.05 9.5
-15 3 -1 388 14.22
-15 -3 -1 376.09 14.38
-15 -3 0 511.79 19.34
-15 3 0 476.91 17.02
-15 -1 -12 111.28 7.4
-15 1 -12 97.99 7.3
-15 -1 -11 36.69 5.49
-15 1 -11 54.42 4.36
-15 -1 -10 155.91 9.17
-15 1 -10 146.44 7.71
-15 1 -9 36.18 4.02
-15 -1 -9 67.9 6.22
-15 1 -8 167.68 8.31
-15 -1 -8 134.01 7.31
-15 1 -7 225.32 11.32
-15 -1 -7 285.23 13.13
-15 1 -6 143.12 7.98
-15 -1 -6 138.3 8.07
-15 -1 -5 10.45 3.03
-15 1 -5 22.97 4.43
-15 1 -4 688.24 22.98
-15 -1 -4 647.51 22.86
-15 1 -4 619.81 24.52
-15 1 -3 87.27 6.02
-15 -1 -3 58 4.44
-15 1 -3 72.56 3.57
-15 1 -2 408.3 14.4
-15 -1 -2 418.06 15.25
-15 1 -2 373.26 14.3
-15 -1 -1 73.29 5.63
-15 1 -1 45.75 3.42
-15 1 -1 51.45 2.77
-15 -1 0 1219.8 44.52
-15 1 0 1275.82 43.67
-15 1 0 1394.9 45.76
-15 -1 0 1403.7 43.25
-15 1 1 14.09 1.56
-15 1 1 16.9 3.71
-15 -1 1 8.57 2.75
-15 -1 2 1013.52 34.61
-15 1 2 1097.03 36.74
-15 1 3 334.32 13.36
-15 -1 3 323.94 12.74
-15 -1 4 736.95 25.87
-15 1 4 652.9 22.35
-15 1 4 671.17 22.52
-15 1 5 118.84 5.34
-15 1 5 136.49 6.31
-15 -1 5 124.71 6.52
-15 -1 6 73.68 4.42
-15 1 6 75.53 4.56
-15 1 6 86.36 4.6
-15 1 7 28.95 2.67
-15 1 7 28.84 2.93
-15 -1 7 32.4 2.66
-15 1 8 159.63 7.31
-15 -1 8 174.57 7.32
-15 1 8 156.13 7.1
-15 -1 9 229.3 9.39
-15 1 9 227.17 9.17
-15 1 9 223.39 10.22
-15 1 10 736.6 26.72
-15 1 10 814.97 26.94
-15 -1 10 737.45 25.63
-15 1 11 448.77 16.66
-15 -1 11 413.2 16.68
-15 -1 11 467.01 15.32
-15 1 11 456.06 16.63
-15 -1 12 379.18 13.29
-15 1 12 352.85 13.93
-15 1 12 386.07 13.77
-15 -1 12 354.22 14.18
-15 1 13 7.27 3.22
-15 1 13 -0.11 2.76
-15 -1 13 11.9 4.32
-15 -1 14 235.49 10.94
-15 -1 14 238.88 10.38
-15 1 14 232.96 10.52
-15 1 14 241.27 10.33
-15 -1 15 1.79 4.42
-15 1 15 -5.9 3.06
-15 -1 16 327.2 16.45
-15 1 16 338.58 14.34
-15 -1 17 64.02 5.55
-15 1 17 65.32 5.12
-15 -1 18 159.8 10.77
-15 1 18 200.79 10.43
-15 1 19 51.34 6.1
-15 -1 19 35.51 4.99
-15 1 20 168.19 11.65
-15 -1 20 193.63 12.04
-15 1 21 4.81 4.71
-15 -1 21 10.72 3.71
-15 3 1 246.48 9.57
-15 -3 1 226.11 9.86
-15 -3 2 2.97 2.76
-15 3 2 6.25 1.06
-15 3 3 417.94 14.86
-15 3 3 407.71 15.07
-15 -3 3 389.29 14.47
-15 -3 4 452.55 17.17
-15 3 4 404.59 15.61
-15 3 4 463.53 16.49
-15 3 5 28.54 2.6
-15 -3 5 25.32 2.69
-15 3 5 25.91 3.24
-15 3 6 710.45 23.95
-15 3 6 769.48 26.1
-15 -3 6 755.76 25.52
-15 -3 7 21.25 2.86
-15 3 7 24.78 3.33
-15 3 7 14.99 2.68
-15 3 8 291.89 11.75
-15 3 8 317.3 12.06
-15 -3 8 291.89 10.9
-15 3 9 29.72 4.15
-15 -3 9 19.3 2.58
-15 3 9 5.64 2.87
-15 3 10 132.5 7.36
-15 3 10 204.27 8.69
-15 -3 10 169.83 7.24
-15 3 11 15.37 4.24
-15 -3 11 33.79 2.8
-15 3 11 33.62 4.41
-15 -3 12 207.61 8.08
-15 3 12 219.08 10.02
-15 3 12 203.56 9.58
-15 3 13 303.12 12.47
-15 -3 14 415.25 18.18
-15 3 14 432.54 17.67
-15 3 15 184.56 8.7
-15 -3 15 156.93 8.55
-15 -3 16 143.7 9.09
-15 3 16 133.58 7.92
-15 3 17 182.62 9.5
-15 -3 17 172.93 10.27
-15 3 18 14.55 4.5
-15 -3 18 27.65 4.68
-15 3 19 33.08 5.64
-15 -3 19 26.75 5.42
-15 -3 20 27.84 4.13
-15 3 20 64.87 6.77
-15 5 1 372.62 14.67
-15 -5 1 354.54 14.42
-15 5 2 398.92 15.56
-15 5 2 417.96 15.78
-15 -5 2 417.42 16.12
-15 -5 3 284.55 11.81
-15 5 3 313.88 12.27
-15 5 3 321.53 12.78
-15 5 4 89.72 6.18
-15 -5 4 76.95 4.76
-15 5 4 95.4 4.46
-15 5 5 203.87 9.46
-15 -5 5 195.95 8.81
-15 5 5 198.16 7.83
-15 5 6 84.64 5.22
-15 -5 6 65.1 4.12
-15 5 6 70.9 4.4
-15 5 7 222.68 10.43
-15 5 7 218.81 9.21
-15 -5 7 209.73 9.48
-15 5 8 20.39 3.67
-15 -5 8 10.38 2.22
-15 5 8 7.94 2.25
-15 5 9 109.33 6.45
-15 5 9 122.8 6.08
-15 -5 9 120.84 5.81
-15 5 10 104.95 6.45
-15 5 11 152.46 7.52
-15 5 12 201.54 9.73
-15 5 13 256.23 12.47
-15 5 14 175.7 9.96
-15 5 15 240.75 12.81
-15 -5 16 105.23 7.21
-15 5 16 138.49 9.18
-15 -5 17 97.31 8.08
-15 5 17 109.2 7.9
-15 5 18 132.62 9.37
-15 -5 18 181.33 11.47
-15 -5 19 9.34 4.08
-15 5 19 54.4 7.34
-15 7 1 240.18 11.71
-15 -7 1 257.57 12.22
-15 7 2 23.3 4.03
-15 -7 2 25.53 3.88
-15 7 3 264.67 12.84
-15 -7 3 253.13 13.19
-15 -7 4 21.49 3.41
-15 7 4 35.4 5.38
-15 7 5 241.66 11.93
-15 7 6 20.66 2.66
-15 7 7 148.7 7.89
-15 7 8 28.65 4.2
-15 7 9 196.58 9.24
-15 7 10 107.6 5.74
-15 7 11 184.38 10.17
-15 7 12 113.62 9
-15 7 13 136.69 9.2
-15 7 14 17.65 4.86
-15 7 15 53.88 7.06
-15 9 1 282.87 16.49
-15 9 2 20.49 4.15
-14 8 -5 26.43 3.73
-14 -8 -5 17.99 4.85
-14 8 -4 36.2 4.28
-14 -8 -4 46.24 6.37
-14 -8 -3 50.81 6.27
-14 8 -2 91.53 7.37
-14 -8 -2 78.93 7.36
-14 -8 -1 161.03 11.51
-14 8 -1 168.77 10.46
-14 8 0 64.5 6.48
-14 -8 0 46.92 5.2
-14 6 -9 28.65 3.72
-14 -6 -9 40.81 5.11
-14 6 -8 177.99 10.76
-14 -6 -8 210.59 14.57
-14 -6 -7 24.14 5.09
-14 6 -7 22.73 3.17
-14 -6 -6 49.85 5.09
-14 6 -6 41.62 4.34
-14 6 -5 239.23 10.96
-14 -6 -5 241.63 12.92
-14 -6 -4 4.21 4.75
-14 6 -3 338.14 14.24
-14 6 -3 323.27 13.3
-14 -6 -3 318.82 14.79
-14 -6 -2 25.61 4.97
-14 6 -2 -4.02 3.8
-14 6 -2 10.44 2.59
-14 6 -1 312.81 13.44
-14 -6 -1 295.82 13.19
-14 6 -1 339.56 14.02
-14 6 0 384.52 15.59
-14 -6 0 413.38 18.21
-14 -4 -11 131.99 9.44
-14 4 -11 147.58 9.35
-14 4 -10 106.32 6.74
-14 -4 -10 94.68 8.13
-14 -4 -9 27.73 4.48
-14 4 -8 14.78 3.31
-14 -4 -8 19.72 5.65
-14 -4 -7 33.25 5.54
-14 4 -7 42.35 3.72
-14 4 -6 145.39 6.23
-14 -4 -6 134.4 7.7
-14 4 -5 53.61 4.95
-14 -4 -5 45.75 4.91
-14 -4 -4 267.96 11.8
-14 4 -4 265.42 10.81
-14 -4 -3 29.29 3.96
-14 4 -3 32.82 4.34
-14 4 -3 24.87 2.16
-14 -4 -2 286.43 11.1
-14 4 -2 333.79 13.12
-14 4 -2 383.03 13.88
-14 -4 -1 74.08 5.91
-14 4 -1 64.26 4.77
-14 4 0 659.01 22.73
-14 -4 0 707.63 23.62
-14 -2 -13 4.79 3.02
-14 2 -12 193.74 11.45
-14 -2 -12 169.28 11
-14 -2 -11 40.48 4.48
-14 2 -11 29.84 4.03
-14 2 -10 249.2 11.13
-14 -2 -10 258.43 11.78
-14 -2 -9 71.07 5.33
-14 2 -9 49.57 4
-14 2 -8 53.9 4.7
-14 -2 -8 62.9 5.33
-14 2 -7 138.1 7.27
-14 -2 -7 166.78 9.23
-14 -2 -6 114.81 7.77
-14 2 -6 170.74 7.69
-14 2 -5 47.69 3.77
-14 -2 -5 62.53 5.67
-14 -2 -4 263.57 11.97
-14 2 -4 284.62 12.01
-14 2 -3 101.22 5.73
-14 -2 -3 114.15 5.63
-14 2 -2 717.41 26.87
-14 2 -2 798.14 25.33
-14 -2 -2 698.96 24.38
-14 -2 -1 195.34 8.45
-14 2 -1 138.14 6.47
-14 2 0 879.58 28.66
-14 -2 0 830.01 28.28
-14 2 0 832.09 29.43
-14 -2 0 853.66 30.38
-14 0 -13 -5.19 2.49
-14 0 -12 193.98 11.23
-14 0 -11 0.93 2.69
-14 0 -10 609.43 23.2
-14 0 -9 4.03 3.51
-14 0 -8 746.66 27.36
-14 0 -7 8.81 4.04
-14 0 -6 347.65 14.06
-14 0 -5 7.62 3.96
-14 0 -5 0.42 1.36
-14 0 -4 9.9 1.67
-14 0 -4 8.59 2.83
-14 0 -3 -0.63 0.94
-14 0 -3 4.2 3.47
-14 0 -2 366.41 13.88
-14 0 -2 358.83 13.69
-14 0 -1 2.3 1.04
-14 0 -1 0.84 2.21
-14 0 0 1403.41 46.86
-14 0 0 1358.91 45.58
-14 0 1 -5.02 2.2
-14 0 1 2.28 1.76
-14 0 2 1782.75 58.81
-14 0 3 -2.58 3.1
-14 0 4 1929.23 62.52
-14 0 6 656.1 22.25
-14 0 8 1161.26 36.73
-14 0 8 1052.58 37.43
-14 0 9 -6.02 2.43
-14 0 9 -3.04 2.23
-14 0 10 684.36 23.54
-14 0 10 661.43 23.03
-14 0 11 5.54 2.46
-14 0 11 -3.92 2.44
-14 0 12 135.05 7.53
-14 0 12 178.53 7.33
-14 0 13 0.85 4.65
-14 0 13 2.19 2.4
-14 0 14 80.89 5.91
-14 0 15 -0.84 3.15
-14 0 16 197.68 10.38
-14 0 18 247.71 11.76
-14 0 19 -3.09 3.4
-14 0 20 155.11 10.08
-14 0 21 11.44 3.78
-14 2 1 175.5 8.6
-14 -2 1 181.27 8.76
-14 2 1 181.83 6.48
-14 -2 1 189.21 6.99
-14 -2 2 719.53 25.02
-14 2 2 693.42 23.37
-14 2 2 665.64 23.14
-14 -2 3 347.32 12.53
-14 2 3 320.27 12.07
-14 2 3 358.85 12.76
-14 -2 4 1547.25 51.8
-14 2 4 1452.74 49.73
-14 2 4 1489.02 46.75
-14 2 5 101.57 5.36
-14 2 5 126.31 4.79
-14 -2 5 131.38 5.63
-14 2 6 251.85 9.67
-14 2 6 225.65 9.6
-14 -2 6 237.85 9.16
-14 -2 7 62.18 3.92
-14 2 7 57.58 4.09
-14 2 7 59.36 4.33
-14 2 8 96.87 5.39
-14 2 8 100.44 5.66
-14 -2 8 118.47 5.5
-14 -2 9 173.66 7.38
-14 2 9 172.84 7.33
-14 2 9 158.97 7.22
-14 2 10 451.86 15.75
-14 -2 10 429.57 14.32
-14 2 10 439.46 16.07
-14 -2 11 145.13 5.92
-14 2 11 143.39 5.91
-14 2 11 115.5 6.85
-14 2 12 360.76 13.84
-14 -2 12 279.04 12.97
-14 2 12 354.19 14.49
-14 -2 12 365.46 13.05
-14 -2 13 259.75 11.24
-14 -2 13 241.36 11.42
-14 2 13 263.99 11.11
-14 2 14 1129.79 39.33
-14 -2 14 1109.61 37.63
-14 -2 15 88.61 6.44
-14 2 15 117.27 7.3
-14 -2 16 283.68 13.46
-14 2 16 314.83 13.76
-14 -2 17 99.67 6.75
-14 2 17 128.91 7.57
-14 -2 18 239.24 12.55
-14 2 18 188.7 10.78
-14 2 19 49.81 5.82
-14 -2 19 32.94 4.71
-14 2 20 127.04 9.32
-14 -2 20 144.58 10.15
-14 2 21 0.93 3.91
-14 -2 21 -0.21 3.95
-14 -4 1 230.94 9.39
-14 4 1 192.69 8.09
-14 4 2 454.71 16.94
-14 -4 2 426.04 16.48
-14 4 2 493.84 17.61
-14 -4 3 186.26 7.69
-14 4 3 174.79 7.26
-14 4 3 192.15 8.24
-14 -4 4 980.56 31.27
-14 4 4 1010.13 34.97
-14 4 4 994.08 33.39
-14 4 5 562.16 20.26
-14 -4 5 494.26 17.59
-14 4 5 622.37 20.46
-14 4 6 314.02 12.49
-14 -4 6 366.66 13.43
-14 4 6 341.43 12.03
-14 4 7 465.66 17.82
-14 4 7 496.94 17.92
-14 -4 7 467.09 16.24
-14 -4 8 196.18 8.52
-14 4 8 197.15 9.27
-14 4 9 119.44 6.33
-14 -4 9 129.07 6.02
-14 4 9 143.58 7.37
-14 4 10 10.93 2.97
-14 4 10 10.58 3.08
-14 -4 10 11.54 1.87
-14 4 11 343.87 13.7
-14 4 12 123.04 7.54
-14 4 13 143.08 7.64
-14 4 14 171.37 9.44
-14 -4 15 134.24 8.67
-14 4 15 114.64 8.46
-14 4 16 171.58 9.63
-14 -4 16 161.81 9.56
-14 -4 17 8.97 3.85
-14 4 17 34.64 5.06
-14 4 18 23.55 6.52
-14 -4 18 46.9 6.84
-14 -4 19 6.83 3.1
-14 4 19 10.49 4.72
-14 4 20 51.56 7.85
-14 -4 20 62.73 7.36
-14 6 1 557.66 20.65
-14 -6 1 482.97 20.07
-14 6 2 305.97 13.49
-14 -6 2 282.72 12.92
-14 -6 3 293.84 12.33
-14 6 3 238.81 11.23
-14 6 3 258.32 10.24
-14 6 4 208.69 8.69
-14 -6 4 222.11 9.86
-14 6 4 187.42 9.3
-14 6 5 321.79 13.88
-14 6 5 336.95 13.14
-14 -6 5 320.16 13.16
-14 -6 6 29.68 3
-14 6 6 36.02 3.83
-14 6 6 47.93 3.87
-14 6 7 119.38 6.52
-14 -6 7 106.08 5.94
-14 6 7 90.76 5.91
-14 6 8 79.83 4.94
-14 6 9 89.78 5.49
-14 6 10 99.2 6.13
-14 6 11 394.31 17.43
-14 6 12 78.76 6.71
-14 6 13 365.97 17.54
-14 6 14 27.6 5.59
-14 6 15 265.4 15.14
-14 6 16 25.08 5.98
-14 6 17 192.5 12.12
-14 -6 17 177.18 10.16
-14 -8 1 260.72 15.35
-14 -8 2 13.7 4.53
-14 8 7 120.07 8.16
-14 8 8 53.08 5.42
-14 8 9 311.95 18.78
-14 8 10 35.52 4.34
-14 8 11 296.44 17.01
-14 8 13 115.93 8.75
-13 9 -2 1.46 4.39
-13 9 -1 149.38 11.33
-13 9 0 6.94 3.67
-13 -7 -8 51.75 5.85
-13 7 -8 47.37 4.45
-13 -7 -7 169.44 12.04
-13 7 -7 152.94 9.88
-13 -7 -6 -0.11 3.13
-13 7 -6 1.38 2.65
-13 7 -5 38.96 4.78
-13 -7 -5 28.51 4.54
-13 7 -4 2.02 2.23
-13 -7 -4 -11.77 5.07
-13 7 -3 -0.21 2.34
-13 7 -3 3.33 2.29
-13 -7 -3 -2.27 4.43
-13 -7 -2 33.39 5.62
-13 7 -2 27.51 4.37
-13 7 -2 31.34 3.63
-13 7 -1 240.18 10.93
-13 -7 -1 288.31 12.25
-13 7 -1 256.51 11.49
-13 -7 0 94.17 5.98
-13 7 0 121.06 7.38
-13 -5 -11 208.55 12.95
-13 5 -11 166.44 10.51
-13 -5 -10 22.28 4.11
-13 5 -10 11.99 3.08
-13 5 -9 106.07 7.01
-13 -5 -9 118.19 8.99
-13 5 -8 51.92 4.22
-13 -5 -8 41.01 4.75
-13 -5 -7 72.01 6.37
-13 5 -7 94.9 5.81
-13 -5 -6 40.39 5.82
-13 5 -6 37.49 3.58
-13 -5 -5 191.62 11.23
-13 5 -5 228.71 9.84
-13 -5 -4 89.67 5.61
-13 5 -4 100.75 5.8
-13 -5 -3 300.21 11.82
-13 5 -3 291.2 12.22
-13 5 -3 321.38 12.49
-13 -5 -2 115.28 6.49
-13 5 -2 149.84 7.07
-13 5 -2 148.12 6.64
-13 5 -1 113.46 6.32
-13 -5 -1 69.63 6.15
-13 -5 0 145.16 7.05
-13 5 0 111.85 6.93
-13 3 -13 -8.23 2.75
-13 -3 -12 362.59 18.94
-13 3 -12 391.01 20.48
-13 3 -11 93.99 6.58
-13 -3 -11 74.15 7.08
-13 -3 -10 136.97 8.27
-13 3 -10 165.03 8.22
-13 -3 -9 31.94 4.01
-13 3 -9 39.59 2.98
-13 -3 -8 112.79 7.51
-13 3 -8 110.5 6.36
-13 3 -7 197.07 9.02
-13 -3 -7 208.38 9.67
-13 -3 -6 172.82 8.7
-13 3 -6 182.4 7.99
-13 -3 -5 91.9 5.83
-13 3 -5 77.7 5
-13 -3 -4 112.57 6.59
-13 3 -4 106.54 5.53
-13 -3 -3 77.59 5.75
-13 3 -3 75.02 3.43
-13 3 -3 61.5 4.5
-13 3 -2 407.67 15.05
-13 -3 -2 351.64 14.14
-13 3 -1 82.49 4.52
-13 -3 -1 75.64 5.35
-13 3 0 408.67 15.15
-13 -3 0 413.67 15.4
-13 1 -14 253.05 14.7
-13 -1 -14 263.7 14.36
-13 1 -13 35.86 4.18
-13 -1 -13 29.07 4.47
-13 1 -12 162.29 9.25
-13 -1 -12 154.99 9.42
-13 1 -11 3.94 3.11
-13 -1 -11 15.03 3.63
-13 1 -10 178.26 8.88
-13 -1 -10 192.55 9.13
-13 1 -9 171.65 7.73
-13 -1 -9 147.63 7.65
-13 1 -8 304.6 13.17
-13 -1 -8 268.34 12.09
-13 1 -7 99.02 5.4
-13 -1 -7 121.22 6.92
-13 1 -6 61.12 3.31
-13 1 -6 48.07 4.14
-13 -1 -6 46.88 5.12
-13 -1 -5 23.07 3.36
-13 1 -5 7.23 3.2
-13 1 -5 19.46 1.56
-13 -1 -4 275.36 11.36
-13 1 -4 239.28 10.44
-13 1 -4 262.31 9.79
-13 -1 -3 89.21 5.31
-13 1 -3 75.43 4.37
-13 1 -3 65.76 3.02
-13 1 -2 478.46 16.58
-13 1 -2 464.34 17.45
-13 -1 -2 469.98 18.53
-13 -1 -2 467.76 17.12
-13 -1 -1 55.06 3.73
-13 1 -1 56 2.34
-13 1 -1 46.47 4.15
-13 -1 -1 58.22 5.01
-13 1 0 1534.79 50
-13 -1 0 1546.8 50.12
-13 -1 0 1495.55 51.88
-13 -1 0 1428.81 47.42
-13 1 0 1460.18 48.55
-13 -1 1 161.09 7.46
-13 1 1 156.66 7.43
-13 -1 1 145.77 6.98
-13 1 2 1310.79 43.63
-13 -1 2 1243.1 43.41
-13 -1 2 1416.48 52.25
-13 1 3 18.99 2.74
-13 -1 3 15.38 2.72
-13 1 4 271.73 9.64
-13 1 4 261.52 9.77
-13 -1 4 268.69 10.57
-13 1 5 7.95 2.62
-13 -1 5 4.94 2.88
-13 1 5 5.86 1.81
-13 1 6 776.33 27.34
-13 1 6 886.91 26.92
-13 -1 6 783.81 26.57
-13 -1 7 127.48 6.16
-13 1 7 120.49 5.5
-13 1 7 132.85 6.06
-13 1 8 245.84 9.3
-13 1 8 230.22 8.95
-13 -1 8 244.07 9.16
-13 1 9 231.07 9.6
-13 1 9 251.83 9.73
-13 -1 9 237.52 8.95
-13 1 10 596.01 19.2
-13 -1 10 499.83 19.31
-13 -1 10 560.33 18.58
-13 1 10 514.61 19.3
-13 -1 11 31.46 2.78
-13 1 11 36.72 3.73
-13 1 11 45.21 3.53
-13 -1 11 36.95 4.5
-13 1 12 384.49 14.42
-13 1 12 362.03 14.04
-13 -1 12 376.44 13.48
-13 -1 12 333.34 13.5
-13 1 13 19.95 3.61
-13 -1 13 31.8 4.2
-13 1 14 406.17 16.27
-13 -1 14 412.81 17.4
-13 -1 15 14.13 4.92
-13 1 15 7.26 3.68
-13 -1 16 622.18 23.99
-13 1 16 561.19 22.24
-13 -1 17 25.39 5.62
-13 1 17 25.1 4.58
-13 1 18 390.24 17.3
-13 -1 18 390.06 16.19
-13 -1 19 23.86 4.55
-13 1 19 12.79 4.33
-13 1 20 160.18 10.39
-13 -1 20 122.04 8.97
-13 -1 21 -8.21 4.92
-13 1 21 -0.82 3.78
-13 3 1 119.19 4.26
-13 -3 1 137.71 6.23
-13 3 1 105.84 5.85
-13 -3 2 665.54 22.69
-13 3 2 640.02 22.24
-13 3 2 644.43 22.29
-13 3 3 375 14.01
-13 3 3 390 13.9
-13 -3 3 404.89 13.68
-13 3 4 1310.17 44.7
-13 -3 4 1370.59 43.77
-13 3 4 1411.09 43.98
-13 3 5 84.51 5.57
-13 3 5 110.35 4.9
-13 -3 5 102.71 5.41
-13 -3 6 690.32 23.73
-13 3 6 689.21 24.44
-13 3 6 796.04 24.18
-13 -3 7 72.59 3.82
-13 3 7 71.04 4.66
-13 3 7 78.85 4.41
-13 3 8 179.73 7.75
-13 -3 8 175.96 6.9
-13 3 8 181.16 7.74
-13 3 9 83.02 5.23
-13 3 9 82.08 4.91
-13 -3 9 78.43 4.07
-13 -3 10 230.63 9.53
-13 3 10 251.75 10.82
-13 3 10 242.85 10.05
-13 3 11 156.57 6.95
-13 3 11 115.08 6.58
-13 -3 11 149.08 6.55
-13 -3 12 276.01 10.5
-13 3 12 246.77 10.26
-13 3 13 226.08 10.98
-13 -3 14 625.03 24.57
-13 3 14 609.34 21.7
-13 3 15 55.2 6.35
-13 -3 15 66.85 4.99
-13 3 16 159.45 9.32
-13 -3 16 143.87 7.78
-13 -3 17 79.06 6.47
-13 3 17 110.61 8.33
-13 3 18 29.16 4.93
-13 -3 18 42.17 4.55
-13 -3 19 -2.53 4.85
-13 3 19 8.47 4.39
-13 -3 20 163.76 12.03
-13 3 20 127.6 9.8
-13 5 1 44.88 4.49
-13 -5 1 28.31 3.66
-13 5 1 35.87 2.11
-13 -5 2 673 24.53
-13 5 2 680.25 24.17
-13 5 2 675.3 25.15
-13 5 3 416.84 15.41
-13 5 3 382.6 14.68
-13 -5 3 421.4 15.54
-13 5 4 46.68 4.44
-13 5 4 65.95 3.25
-13 -5 4 80.77 4.57
-13 5 5 161.26 7.63
-13 5 5 151.47 6.92
-13 -5 5 136.56 7.03
-13 -5 6 18.32 2.16
-13 5 6 16.1 3.28
-13 5 6 14.24 2.74
-13 5 7 104.3 6.75
-13 -5 7 86.26 4.69
-13 5 7 127.27 7.09
-13 5 8 15.97 3.73
-13 -5 8 4.65 1.82
-13 5 8 1.64 3.5
-13 -5 9 36.43 2.56
-13 5 9 57.86 4.17
-13 5 10 180.08 8.38
-13 5 11 31.12 4.03
-13 5 12 134.67 8.6
-13 5 13 353.83 15.56
-13 5 14 447.41 18.86
-13 5 15 264.69 13.78
-13 -5 16 192.37 11.6
-13 5 16 188.28 11.32
-13 5 17 158.33 10.35
-13 -5 17 133.03 10.3
-13 -5 18 142.68 10.21
-13 5 18 154.56 9.61
-13 5 19 33.63 6.62
-13 -5 19 42.2 4.82
-13 7 1 187.62 9.41
-13 -7 1 175.34 8.51
-13 -7 2 37.41 3.78
-13 7 2 59.76 5.22
-13 7 3 149.34 7.75
-13 -7 3 161.36 9.3
-13 7 4 9.65 2.67
-13 -7 4 2.56 2.24
-13 7 5 176.53 9.05
-13 7 6 79.35 5.2
-13 7 7 238.3 12.39
-13 7 8 216.78 10.69
-13 7 9 338.11 14.81
-13 7 10 112.23 7.79
-13 7 11 162.5 10.48
-13 7 12 -2.75 3.91
-13 7 13 106.49 9.01
-13 7 14 16.3 4.31
-13 7 15 152.56 10.44
-13 7 16 6.38 4.5
-13 9 1 110.18 8.66
-13 9 2 22.11 3.83
-13 9 9 63.85 6.59
-12 -8 -5 58.84 7.31
-12 -8 -4 27.83 6.02
-12 8 -3 139.09 9.07
-12 -8 -3 122.94 9.28
-12 8 -2 64.79 5.4
-12 -8 -2 59.12 5.61
-12 8 -1 174.61 10.74
-12 -8 -1 163.99 10.63
-12 -8 0 79.42 6.82
-12 8 0 64.38 5.3
-12 6 -10 155.61 9.57
-12 -6 -10 184.09 12.44
-12 6 -9 125.75 7.34
-12 -6 -9 107.81 8.71
-12 -6 -8 49.54 6.29
-12 6 -8 87.74 6.05
-12 -6 -7 156.62 8.37
-12 6 -7 171.46 7.78
-12 6 -6 53.89 5.09
-12 -6 -6 36.21 5.73
-12 -6 -5 220.34 10.75
-12 6 -5 273.88 11.73
-12 -6 -4 7.02 3.13
-12 6 -4 18.67 3.82
-12 -6 -3 278.75 12.72
-12 6 -3 332.56 13.76
-12 6 -3 326.76 13.6
-12 6 -2 81.08 5.53
-12 6 -2 89.9 5.67
-12 -6 -2 95.78 6.18
-12 6 -1 251.64 10.46
-12 6 -1 221.36 10
-12 -6 -1 223.16 10.02
-12 6 0 319.23 13.5
-12 -6 0 302.11 12.34
-12 -4 -13 209.56 13.15
-12 -4 -12 141.93 10.12
-12 4 -12 131.72 7.6
-12 4 -11 174.47 9.46
-12 -4 -11 145.99 8.84
-12 -4 -10 107.03 6.78
-12 4 -10 106.54 5.9
-12 4 -9 180.21 8.51
-12 -4 -9 188.86 9.81
-12 -4 -8 196.21 10.33
-12 4 -8 181.22 8.47
-12 -4 -7 317.56 13.68
-12 4 -7 323.9 12.06
-12 -4 -6 57.61 5.57
-12 4 -6 69.47 4.06
-12 4 -5 402.72 14.97
-12 -4 -5 385.09 16.77
-12 4 -4 207.59 8.16
-12 -4 -4 201.86 9.77
-12 -4 -3 291.28 12.91
-12 4 -3 288.49 11.15
-12 4 -3 273.19 10.68
-12 4 -2 407.52 15.61
-12 4 -2 448.8 15.63
-12 -4 -2 372.92 15.1
-12 -4 -1 232.72 9.61
-12 4 -1 236.27 9.72
-12 4 0 31.87 3.01
-12 -4 0 34.04 3.44
-12 -2 -14 196.45 12.63
-12 2 -14 143.88 10.12
-12 -2 -13 1.04 2.72
-12 2 -13 4.39 2.82
-12 -2 -12 264.22 14.32
-12 2 -12 276.83 14.84
-12 2 -11 89.01 6.13
-12 -2 -11 90.61 6.4
-12 2 -10 374.13 14.71
-12 -2 -10 347.62 15.51
-12 2 -9 236.5 10.04
-12 -2 -9 232.94 10.33
-12 2 -8 213.04 9.17
-12 -2 -8 216.59 10.11
-12 -2 -7 193.68 10.21
-12 2 -7 217.56 9.45
-12 2 -6 426.67 16.16
-12 -2 -6 382.81 15.03
-12 2 -5 10.79 3.26
-12 -2 -5 23.13 3.79
-12 2 -4 410.94 15.13
-12 -2 -4 364.17 13.82
-12 -2 -3 51.94 4.46
-12 2 -3 25.99 3.16
-12 -2 -2 471.32 17.34
-12 2 -2 439.97 16.06
-12 -2 -1 296.4 12.12
-12 2 -1 290.26 11.4
-12 2 0 693.37 23.55
-12 2 0 740.08 24.17
-12 -2 0 628.95 24.52
-12 -2 0 741.74 22.6
-12 0 -14 229.01 13.47
-12 0 -13 0.52 3.85
-12 0 -12 388.97 16.89
-12 0 -10 354.78 14.5
-12 0 -9 1.56 2.28
-12 0 -8 442.8 17.18
-12 0 -7 1.25 3.43
-12 0 -6 284.07 12.38
-12 0 -6 307.95 11.58
-12 0 -5 -2.2 2.1
-12 0 -5 -2.82 1.25
-12 0 -4 18.3 3.58
-12 0 -4 20.03 1.98
-12 0 -3 -1.69 2.11
-12 0 -3 -0.31 1.04
-12 0 -2 949 31.07
-12 0 -2 912.67 30.96
-12 0 -1 0.72 1.03
-12 0 -1 0.21 1.9
-12 0 0 1778.83 62.22
-12 0 0 1962.69 61.82
-12 0 1 -1.47 3.14
-12 0 1 -1.56 1.04
-12 0 2 1009.7 33.4
-12 0 3 -2.88 2.78
-12 0 4 874.1 28.82
-12 0 5 0.71 2.53
-12 0 6 2645.56 85.52
-12 0 7 3.98 2.72
-12 0 7 -1.11 2.31
-12 0 8 1058.21 39.47
-12 0 8 1261.45 39.68
-12 0 9 -3.87 2.14
-12 0 9 -4.44 2.01
-12 0 10 806.58 26.14
-12 0 10 786.39 26.67
-12 0 11 1.87 1.56
-12 0 11 8.36 3.18
-12 0 12 76.4 4.24
-12 0 12 66.71 5.29
-12 0 13 7.28 3.48
-12 0 14 126.82 6.54
-12 0 15 3.24 4.5
-12 0 16 382.05 16.34
-12 0 17 10.78 3.11
-12 0 18 457.32 19.62
-12 0 19 -0.92 3.7
-12 0 20 158.69 9.75
-12 2 1 406.57 14.52
-12 -2 1 410.78 14.39
-12 2 1 442.97 15.36
-12 -2 1 419.51 16.12
-12 -2 2 1083.33 36.18
-12 2 2 1020.07 32.5
-12 2 2 1012.08 34.23
-12 2 3 447.3 15.45
-12 -2 3 417.02 15.43
-12 2 3 449.22 15.66
-12 2 4 796.77 25.17
-12 2 4 754.06 26.79
-12 -2 4 736.67 24.24
-12 -2 5 21.67 2.39
-12 2 5 20.92 3.52
-12 2 5 20.95 2.7
-12 2 6 465.56 17.11
-12 2 6 517.72 17.9
-12 -2 6 472.52 17.06
-12 2 7 238.03 9.34
-12 2 7 255.02 9.95
-12 -2 7 249.52 8.59
-12 -2 8 128.84 5.5
-12 2 8 134.31 6.12
-12 2 8 142.02 6.06
-12 2 9 49.81 3.87
-12 2 9 44.46 3.8
-12 -2 9 31.77 2.46
-12 2 10 164.12 7.6
-12 2 10 165.03 7.64
-12 -2 10 157.15 6.11
-12 -2 11 125.47 5.54
-12 2 11 127.55 6.74
-12 2 11 138.18 7.19
-12 -2 12 281.91 12.41
-12 2 12 278.68 11.37
-12 -2 12 321.14 11.73
-12 2 13 107.14 6.61
-12 -2 13 123.57 6.94
-12 2 14 770.82 26.32
-12 -2 14 766.02 27.75
-12 2 15 166.33 9.33
-12 -2 15 154.37 8.64
-12 2 16 306.91 13.66
-12 -2 16 291.13 12.98
-12 2 17 112.44 7.36
-12 -2 17 80.41 7.33
-12 -2 18 253.43 12.39
-12 2 18 225.93 12.15
-12 2 19 7.89 6.44
-12 -2 19 36.4 5.52
-12 -2 20 90.42 7.48
-12 2 20 116.32 10.14
-12 2 21 30.53 5.76
-12 -2 21 11.69 4.24
-12 4 1 151.7 6.44
-12 -4 1 151.72 7.34
-12 4 1 156.25 5.89
-12 4 2 1115.9 35.82
-12 4 2 1001.32 34.94
-12 -4 2 1139.18 36
-12 4 3 271.96 11.02
-12 4 3 264.84 9.98
-12 -4 3 258.69 9.98
-12 4 4 1043.29 34.9
-12 4 4 1002 33.3
-12 -4 4 1033.62 33.48
-12 -4 5 564.84 18.71
-12 4 5 596.12 19.78
-12 4 5 548.56 19.17
-12 4 6 217.18 9.5
-12 -4 6 249.99 8.7
-12 4 6 261.94 9.58
-12 4 7 193.82 8.21
-12 4 7 186.91 7.89
-12 -4 7 171.42 7.09
-12 4 8 127.4 5.91
-12 4 8 103.08 6.47
-12 -4 8 108.16 5.06
-12 -4 9 63.48 3.25
-12 4 9 50.51 4.14
-12 4 9 58.61 4.89
-12 -4 10 57.62 3.36
-12 4 10 58.32 4.35
-12 4 11 135.16 7.34
-12 -4 11 134.05 5.94
-12 4 12 106.78 6.37
-12 4 13 49.27 5.08
-12 -4 14 523.75 22.7
-12 4 14 550.87 21.97
-12 4 15 50.43 6.24
-12 -4 15 70.72 6.49
-12 -4 16 71.5 5.97
-12 4 16 82.74 6.14
-12 4 17 55.73 6.66
-12 -4 17 18.4 3.62
-12 -4 18 67.4 5.97
-12 4 18 44.89 6.85
-12 4 19 164.17 10.23
-12 -4 19 100 9.05
-12 4 20 118.27 8.5
-12 -4 20 164.17 12.12
-12 6 1 400.46 15.81
-12 -6 1 334.56 13.96
-12 6 2 90.45 5.17
-12 6 2 72.87 4.22
-12 -6 2 72.25 4.44
-12 6 3 253.14 10.02
-12 6 3 260.28 10.19
-12 -6 3 241.84 11.14
-12 6 4 3.97 1.93
-12 6 5 124.1 5.87
-12 6 5 85.68 6.27
-12 -6 5 82.94 5.08
-12 6 6 377.24 14.63
-12 -6 6 324.35 14.35
-12 -6 7 114.83 5.86
-12 6 7 112.69 6.15
-12 6 8 132.02 7.46
-12 6 9 92.64 6.6
-12 6 10 49.88 4.88
-12 6 11 217.21 10.8
-12 6 12 5.37 3.69
-12 6 13 239.16 12.74
-12 6 14 -2 4.52
-12 6 15 262.74 15.22
-12 6 16 81.65 7.57
-12 -6 16 120.2 8.87
-12 6 17 145.67 10.32
-12 -6 17 177.45 11.8
-12 -8 1 337.43 15.62
-12 -8 2 34.7 4.1
-12 8 5 182.7 9.44
-12 8 6 36.34 4.81
-12 8 7 128.59 7.55
-12 8 8 45.93 5.51
-12 8 9 150.46 9.22
-12 8 10 7.56 3.57
-12 8 11 14.42 5.48
-12 8 12 17.9 4.11
-12 8 13 13.98 3.79
-11 -9 -3 144.81 11.07
-11 -9 -2 -12.12 4.18
-11 9 -2 -2.17 2.99
-11 9 -1 230.5 13.22
-11 -9 -1 194.39 12.75
-11 9 0 22.65 3.85
-11 7 -9 316.35 15.47
-11 -7 -9 360.78 19.68
-11 7 -8 72.58 5.82
-11 -7 -8 72.46 8.32
-11 7 -7 110.01 7.21
-11 -7 -7 101.25 7.46
-11 -7 -6 7 3.77
-11 7 -6 5.52 2.86
-11 7 -5 99.05 5.66
-11 -7 -5 115.51 8.42
-11 7 -4 10.35 3.52
-11 -7 -4 12.06 5.49
-11 7 -3 119.51 6.65
-11 7 -3 112.32 6.76
-11 -7 -3 115.97 7.57
-11 7 -2 26.76 4.39
-11 7 -2 52.43 4.72
-11 -7 -2 17.13 3.66
-11 7 -1 233.14 10.65
-11 -7 -1 200.02 10.11
-11 7 -1 262.45 12.15
-11 -7 0 72.5 6.06
-11 -5 -12 58.16 5.87
-11 5 -11 169.26 10.04
-11 -5 -11 171.92 11.33
-11 -5 -10 46.06 4.67
-11 5 -10 72.83 5.1
-11 5 -9 82.86 4.89
-11 -5 -9 58.99 5.53
-11 5 -8 207.38 9.47
-11 -5 -8 194.67 10.11
-11 5 -7 167.22 7.76
-11 -5 -7 203.37 10.73
-11 -5 -6 24.48 4.31
-11 5 -6 13.94 2.32
-11 -5 -5 452.38 17.47
-11 5 -5 443.74 16.2
-11 5 -4 78.66 4.77
-11 -5 -4 66.12 5.61
-11 5 -3 174.64 8.31
-11 5 -3 188.99 7.96
-11 -5 -3 151.31 8.54
-11 5 -2 236.29 9.86
-11 5 -2 229.36 9.93
-11 -5 -2 262.2 10.95
-11 5 -1 121.46 6.34
-11 -5 -1 113.69 5.95
-11 5 0 609.27 21.86
-11 -5 0 533.38 20.78
-11 3 -14 143.98 8.61
-11 -3 -14 145.74 9.9
-11 3 -13 31.4 3.07
-11 -3 -13 16.3 5.29
-11 3 -12 406.19 19.2
-11 -3 -12 388.01 19.03
-11 -3 -11 30.6 5.4
-11 3 -11 17.51 3.11
-11 3 -10 168.6 7.91
-11 -3 -10 172.54 9.38
-11 -3 -9 27.3 4.76
-11 3 -9 36.93 3.49
-11 3 -8 862.72 30.05
-11 -3 -8 849.49 30.86
-11 -3 -7 30.47 5.19
-11 3 -7 57.92 3.98
-11 3 -6 607.97 21.76
-11 -3 -6 666.88 23.84
-11 3 -5 117.55 6.35
-11 -3 -5 94.34 5.21
-11 3 -4 145.19 6.48
-11 -3 -4 122.23 6.39
-11 3 -3 57.53 3.16
-11 3 -3 61.34 4.11
-11 -3 -3 60.78 4.26
-11 3 -2 15.18 3.39
-11 -3 -2 33.93 4.48
-11 3 -1 138.58 6.7
-11 -3 -1 184.59 8.17
-11 -3 0 202.06 8.83
-11 3 0 191.51 8.14
-11 -1 -15 88.43 6.53
-11 1 -15 93.86 6.93
-11 -1 -14 58.02 5.96
-11 1 -14 48.16 4.75
-11 -1 -13 13.85 3.33
-11 1 -13 8.68 2.3
-11 1 -12 250.72 11.24
-11 -1 -12 265.45 11.63
-11 1 -11 101.89 5.66
-11 -1 -11 50.93 5.11
-11 1 -10 401 15
-11 -1 -10 343.71 15.27
-11 1 -9 164.53 7.74
-11 -1 -9 166.4 7.78
-11 1 -8 473.22 17.37
-11 -1 -8 411.69 16.99
-11 1 -7 199.11 8.99
-11 -1 -7 259.73 10.67
-11 1 -7 190.59 9.05
-11 1 -6 231.62 9.43
-11 1 -6 243.39 9.76
-11 -1 -6 261.76 11.31
-11 1 -5 27.98 3.42
-11 -1 -5 21.86 4
-11 1 -5 19.15 1.67
-11 1 -4 194.55 7.96
-11 1 -4 205.21 7.73
-11 -1 -4 221.25 9.78
-11 1 -3 119.78 5.54
-11 -1 -3 103.56 5.12
-11 1 -3 111.7 4.46
-11 -1 -3 108.33 5.23
-11 1 -2 1203.4 36.83
-11 -1 -2 1181.66 39.87
-11 1 -2 1110.8 39.37
-11 1 -2 1199.11 38.87
-11 -1 -2 1195.93 39.77
-11 1 -1 27.35 1.46
-11 1 -1 20.16 3.52
-11 -1 -1 18.89 3.1
-11 -1 -1 27.1 2.46
-11 -1 0 1040.4 35.47
-11 1 0 1117.31 36.08
-11 1 0 1072.76 36.2
-11 -1 0 1049.29 35.85
-11 -1 1 61.55 3.8
-11 1 1 74.45 4.01
-11 -1 1 55.82 3.84
-11 -1 2 1886.05 60.64
-11 1 2 1927.5 59.45
-11 -1 3 298.64 10.8
-11 1 3 252.39 9.86
-11 1 3 285.45 9.98
-11 1 4 925.73 33.9
-11 1 4 1079.08 32.91
-11 -1 4 1130.46 37.16
-11 -1 5 461.21 15.14
-11 1 5 427.75 14.56
-11 1 5 398.49 14.53
-11 1 6 2053.88 63.56
-11 -1 6 2045.9 63.8
-11 1 6 1980.93 66.93
-11 -1 7 492.27 16.35
-11 1 7 419.27 15.28
-11 1 7 434.11 15.65
-11 -1 8 386.67 13.24
-11 1 8 372.48 12.96
-11 1 8 326.06 12.69
-11 1 9 277.15 9.78
-11 -1 9 264.36 9.21
-11 -1 9 232.27 9.9
-11 1 9 221.77 10.8
-11 1 10 261.73 11.75
-11 -1 10 244.61 10.26
-11 1 10 272.29 10.42
-11 -1 10 289.92 9.88
-11 -1 11 -7 2.72
-11 1 11 11.13 4.17
-11 1 11 15.68 2.84
-11 -1 11 19.09 1.88
-11 1 12 74 4.91
-11 -1 12 67.64 3.12
-11 -1 12 55.17 5.66
-11 1 13 -1.27 3.29
-11 -1 13 14.97 3.25
-11 1 14 188.74 9.65
-11 -1 14 190.72 9.55
-11 1 15 14.09 3.37
-11 -1 15 5.42 3.13
-11 1 16 573.96 23.18
-11 -1 16 623.34 24.72
-11 1 17 29.14 5.93
-11 -1 17 23.11 4.04
-11 1 18 504.42 20.34
-11 -1 18 473.85 19.24
-11 1 19 -6.49 5.26
-11 -1 19 31.28 5.46
-11 1 20 212.74 13.68
-11 -1 20 191.52 10.92
-11 1 21 23.9 6.33
-11 -1 21 17.19 4.61
-11 -3 1 521.49 19.75
-11 3 1 629.98 21.35
-11 3 1 587.13 20.24
-11 -3 1 526.33 18.93
-11 -3 2 1855.39 64.26
-11 3 2 2184.09 66.69
-11 3 2 2033.19 67.15
-11 3 3 129.61 6.02
-11 3 3 97.15 4.52
-11 -3 3 113.31 5.75
-11 -3 4 1236.38 39.63
-11 3 4 1177.22 38.18
-11 3 4 1256.95 39.57
-11 3 5 138.58 6.51
-11 3 5 178.76 7.05
-11 -3 5 146.34 5.86
-11 3 6 1423.98 44.03
-11 3 6 1450.54 46.92
-11 -3 6 1393.1 44.19
-11 -3 7 215.08 7.75
-11 3 7 197.57 8.19
-11 3 7 192.24 7.86
-11 3 8 283.05 10.97
-11 3 8 282.4 11.45
-11 -3 8 267.15 9.6
-11 3 9 149.29 7.18
-11 3 9 134.58 6.42
-11 -3 9 158.94 6.18
-11 3 10 67.4 4.48
-11 -3 10 64.32 2.9
-11 3 11 24.66 3.62
-11 -3 11 22.79 1.56
-11 3 12 212.56 9.51
-11 3 13 407.81 15.62
-11 -3 13 330.19 13.67
-11 3 14 219.36 9.81
-11 -3 14 258.63 10.94
-11 -3 15 130.95 8.04
-11 3 15 107.98 7.65
-11 3 16 61.12 5.29
-11 -3 16 56.18 4.75
-11 -3 17 95.75 6.66
-11 3 17 103.33 7.4
-11 3 18 219.72 11.29
-11 -3 18 270.71 14.18
-11 -3 19 37.15 4.31
-11 3 19 41.86 6.18
-11 3 20 228.17 14.21
-11 -3 20 224.01 15.13
-11 -5 1 188.14 8.57
-11 5 1 161.45 8.18
-11 5 1 148.75 6.37
-11 5 2 950.29 33.49
-11 5 2 1001.98 33.77
-11 -5 2 896.51 31.03
-11 5 3 664.37 24.09
-11 5 3 712.27 24.64
-11 -5 3 623.92 22.1
-11 -5 4 193.65 8.34
-11 5 4 198.79 8
-11 5 4 190.82 7.36
-11 5 5 369.91 13.91
-11 -5 5 357.38 13.24
-11 5 5 348.74 12.78
-11 5 6 130.7 7.35
-11 5 6 127.97 6.06
-11 -5 6 119.31 6.12
-11 5 7 91.77 5.94
-11 -5 7 85.82 4.5
-11 5 8 126.03 7.55
-11 -5 8 100.61 4.59
-11 -5 9 185.1 7.69
-11 5 10 11.28 3.27
-11 5 11 280.76 12.36
-11 5 12 91.79 6.45
-11 5 13 244.66 12.83
-11 5 14 180.41 10.69
-11 5 15 153.65 10.15
-11 -5 15 99.29 7.35
-11 -5 16 74.76 6.5
-11 5 16 76.54 7.71
-11 5 17 72.23 6.34
-11 -5 17 59.69 5.44
-11 5 18 140.71 9.51
-11 -5 18 69.01 6.41
-11 5 19 93.48 10.12
-11 -5 19 126.87 8.56
-11 -7 1 232.47 11.54
-11 7 2 36.47 3.25
-11 -7 2 30.06 3.13
-11 7 3 202.48 9.56
-11 -7 3 223.52 9.89
-11 7 4 105.92 6.04
-11 -7 4 89.72 5.48
-11 7 5 405.3 16.29
-11 -7 5 435.55 19.11
-11 7 6 208.93 10.55
-11 7 7 448.96 18.6
-11 7 8 119.74 7.17
-11 7 9 312.94 14.12
-11 7 10 32 4.31
-11 7 11 64.66 5.91
-11 7 12 33.45 4
-11 7 13 46.28 4.94
-11 7 14 -6.17 3.76
-11 7 15 89.42 7.76
-11 7 16 79.98 7.54
-11 -7 16 54.42 5.2
-11 9 1 115.44 9.71
-11 9 2 23.53 4.01
-11 9 6 22.79 3.18
-11 9 7 78.37 6.74
-11 9 8 0.62 2.89
-11 9 9 89.58 8.27
-10 -8 -8 0.11 3.75
-10 -8 -7 125.07 8.79
-10 -8 -5 61.88 6.42
-10 -8 -4 96.26 7.72
-10 8 -3 116.89 8
-10 -8 -3 177.65 11.3
-10 8 -2 17.05 4.9
-10 -8 -2 13.94 3.22
-10 8 -1 139.48 8.07
-10 -8 -1 127.5 7.68
-10 8 0 46.44 4.84
-10 -8 0 21.08 3.55
-10 -6 -12 96.84 7.43
-10 -6 -11 103.36 9.27
-10 6 -10 126.79 7.49
-10 -6 -10 122.54 9.04
-10 6 -9 180.98 9.42
-10 -6 -9 139.99 9.25
-10 6 -8 133.13 6.37
-10 -6 -8 131.72 8.69
-10 6 -7 302.25 12.98
-10 -6 -7 280.28 14.01
-10 6 -6 14.42 3.07
-10 -6 -6 6.26 3.67
-10 6 -5 342.23 13.25
-10 -6 -5 351.35 14.97
-10 6 -4 60.52 4.47
-10 -6 -4 58.38 5.93
-10 6 -3 374.1 14.65
-10 6 -3 378.25 14.87
-10 -6 -3 391.48 16.07
-10 6 -2 143.63 6.94
-10 6 -2 142.27 6.94
-10 -6 -2 126.36 7.04
-10 6 -1 182.13 8.43
-10 6 -1 188.45 8.17
-10 -6 -1 188.38 9.97
-10 6 0 21.31 3.29
-10 -6 0 24.26 4.31
-10 -4 -14 91.9 7.55
-10 4 -13 186.35 11.06
-10 -4 -13 173.83 12.32
-10 4 -12 160.23 8.13
-10 -4 -12 158.12 10.06
-10 4 -11 62.46 3.82
-10 -4 -11 56.9 5.71
-10 4 -10 141.12 6.15
-10 -4 -10 149.54 7.79
-10 4 -9 293.86 11.53
-10 -4 -9 246.95 11.9
-10 4 -8 163.48 7.36
-10 -4 -8 165.91 8.74
-10 4 -7 311.04 11.81
-10 -4 -7 260 12.29
-10 4 -6 399.01 15.17
-10 -4 -6 385.07 14.68
-10 4 -5 65.45 4.61
-10 -4 -5 80.33 5.37
-10 4 -4 172.53 7.26
-10 -4 -4 120.93 7.09
-10 4 -3 51.22 4.3
-10 4 -3 58.6 3.34
-10 -4 -3 74.91 5.58
-10 -4 -2 40.55 4.62
-10 4 -2 54.23 4.19
-10 4 -2 37.49 3.01
-10 4 -1 252.61 9.66
-10 -4 -1 238.78 9.72
-10 4 0 417.81 15.19
-10 -4 0 345.27 13.96
-10 2 -15 16.53 3.08
-10 2 -14 95.86 6.4
-10 -2 -14 119.84 8.64
-10 2 -13 14.96 2.83
-10 -2 -13 8.28 3.04
-10 -2 -12 150.33 7.82
-10 2 -12 165.26 7.81
-10 2 -11 39.04 3.21
-10 -2 -11 43.46 4.83
-10 2 -10 194.76 8.73
-10 -2 -10 195.44 9.4
-10 2 -9 213.89 9
-10 -2 -9 228.71 10.04
-10 2 -8 253.78 10.02
-10 -2 -8 227.23 10.04
-10 2 -7 36.97 3.06
-10 -2 -7 35.43 3.78
-10 2 -6 451.89 17.9
-10 -2 -6 461.77 17.5
-10 2 -5 44.6 3.57
-10 -2 -5 38.86 4.22
-10 -2 -4 689.57 23.56
-10 2 -4 717.35 24.55
-10 2 -3 503.46 16.92
-10 -2 -3 510.14 18.17
-10 -2 -2 632.4 21.68
-10 2 -2 731.5 25.13
-10 -2 -1 8.65 2.46
-10 -2 0 941.84 30.08
-10 2 0 986.14 32.13
-10 2 0 942.69 31.41
-10 -2 0 985.01 33.6
-10 -2 0 932.22 33.37
-10 0 -15 1.36 2.2
-10 0 -14 105.16 6.89
-10 0 -13 0.94 3.34
-10 0 -12 434.67 17.2
-10 0 -11 -5.52 3.54
-10 0 -10 714.84 25.81
-10 0 -8 342.37 11.75
-10 0 -7 -4.8 2.82
-10 0 -6 255.01 9.69
-10 0 -6 217.06 10.45
-10 0 -5 -4.94 1.89
-10 0 -5 0.21 0.83
-10 0 -4 685.95 22.93
-10 0 -4 646.79 23.21
-10 0 -3 -0.11 2.75
-10 0 -3 3.81 1.55
-10 0 -2 702.34 24.04
-10 0 -2 743.04 25.28
-10 0 -1 0.53 2.86
-10 0 -1 1.43 1.13
-10 0 0 2278.7 71.07
-10 0 0 2127.58 70.25
-10 0 1 1.46 1.88
-10 0 2 1511.91 47.72
-10 0 4 3798.51 123.52
-10 0 6 2435.44 79.16
-10 0 6 2441.13 83.07
-10 0 7 -3.99 2.31
-10 0 7 0.2 1.41
-10 0 8 1528.99 51.03
-10 0 8 1565.84 49.15
-10 0 9 2.07 1.86
-10 0 9 5.83 2.33
-10 0 10 22.07 4.14
-10 0 10 30.76 2.62
-10 0 11 -3.07 1.27
-10 0 11 7.95 2.65
-10 0 12 225.27 9.77
-10 0 14 105.39 6.52
-10 0 15 7.31 3.34
-10 0 16 578.11 22.41
-10 0 17 23.81 5.18
-10 0 18 370.1 15.25
-10 0 19 -7.9 3.69
-10 0 20 275.52 14.78
-10 0 21 8.46 3.87
-10 -2 1 197.8 8.54
-10 2 1 183.58 6.51
-10 2 1 193.05 6.94
-10 -2 1 208.78 8.83
-10 -2 1 215.14 7.77
-10 -2 2 1279.7 42.15
-10 2 2 1190.59 38.14
-10 2 2 1135.19 39.25
-10 -2 2 1264.28 48.07
-10 2 3 124.61 5.57
-10 2 3 98.68 4.48
-10 -2 3 103.59 5.1
-10 2 4 709.46 25.64
-10 2 4 760.31 24.68
-10 -2 4 700.06 22.85
-10 2 5 707.68 24.59
-10 2 5 782.04 25.97
-10 -2 5 731.93 24.3
-10 2 6 626.85 21.04
-10 2 6 629.32 20.97
-10 -2 6 605.93 20.03
-10 2 7 58.49 4.29
-10 -2 7 41.96 2.69
-10 2 7 54.13 3.56
-10 2 8 491.56 16.94
-10 2 8 484.47 17.79
-10 -2 8 455.3 15.63
-10 -2 9 45.25 2.46
-10 2 9 55.95 3.87
-10 2 9 62.68 4.38
-10 2 10 249.12 10.14
-10 -2 10 229.62 8.36
-10 2 11 16.38 3.21
-10 -2 11 18.99 1.48
-10 -2 11 20.46 3.84
-10 2 12 1070.16 35.21
-10 -2 12 1007.21 34.93
-10 -2 13 53.37 5.54
-10 2 13 32.38 5.86
-10 -2 14 321.58 12.85
-10 2 14 311.62 13.45
-10 2 15 187.24 8.82
-10 -2 15 195.75 9.15
-10 2 16 319.96 14.72
-10 -2 16 308.3 14.59
-10 2 17 41.85 6.72
-10 -2 17 48.01 4.69
-10 2 18 290.43 13.86
-10 -2 18 319.55 15.26
-10 -2 19 10.57 3.42
-10 2 19 -1.87 3.84
-10 -2 20 148.32 10.78
-10 2 20 133.77 9.43
-10 2 21 9.05 6.48
-10 -2 21 40.64 5.99
-10 4 1 113.3 6.13
-10 4 1 132.38 5.09
-10 -4 1 154.09 6.38
-10 4 2 1452.83 45.23
-10 4 2 1432.97 45.3
-10 -4 2 1455.15 47.66
-10 4 3 1024.15 35.15
-10 4 3 1123.76 36.56
-10 -4 3 1040.87 33.3
-10 4 4 1114.69 35.18
-10 -4 4 931.39 32.37
-10 4 4 1052.88 36.11
-10 4 5 728.99 23.91
-10 4 5 690.78 24.39
-10 -4 5 638.71 22.23
-10 4 6 395.25 14.96
-10 4 6 399.92 14.42
-10 -4 6 378.45 13.28
-10 4 7 287.11 10.89
-10 4 7 271.18 10.71
-10 -4 7 234.58 8.87
-10 4 8 57.12 4.13
-10 -4 8 72.29 3.54
-10 4 9 360.14 13.99
-10 -4 9 366.18 13.62
-10 4 10 87.31 6.35
-10 -4 10 86.86 3.65
-10 4 11 339.88 13.63
-10 4 12 260.58 11.17
-10 4 13 37.01 4.66
-10 4 14 57.88 6.88
-10 -4 14 57.65 4.65
-10 4 15 22.33 4.87
-10 -4 15 30.55 3.81
-10 4 16 135.45 7.86
-10 -4 16 138.53 7.99
-10 4 17 45.24 6.77
-10 -4 17 39.32 5.41
-10 -4 18 256.34 15.34
-10 4 18 284.68 16.41
-10 4 19 136.26 10.23
-10 -4 19 140.14 10.82
-10 4 20 43.62 5.98
-10 -4 20 33.03 5.49
-10 6 1 137.9 7.11
-10 -6 1 149.27 6.64
-10 6 1 140.59 6.95
-10 6 2 240.83 11.02
-10 6 2 240.85 9.39
-10 -6 2 237.33 10.54
-10 6 3 1.43 1.84
-10 -6 3 -3.43 1.93
-10 6 4 76.73 4.62
-10 -6 4 79.45 4.61
-10 6 5 112.45 5.8
-10 -6 5 127.17 5.97
-10 6 6 505.81 19.36
-10 -6 6 502.83 19.54
-10 6 7 132.57 7.36
-10 -6 7 126.31 6.09
-10 6 8 164.26 8.05
-10 6 9 103.38 7.17
-10 6 10 14.24 5.13
-10 6 11 315.36 14.55
-10 6 12 12.46 4.08
-10 6 13 130.62 8.84
-10 6 14 49.1 5.04
-10 6 15 119.13 8.41
-10 -6 15 128.72 9.03
-10 6 16 139.9 10.21
-10 -6 16 135.6 9.07
-10 6 17 135.29 10
-10 -6 17 129.25 9.08
-10 -8 1 262.49 12.52
-10 -8 2 7.96 3.77
-10 8 3 196.82 10.08
-10 8 4 4.01 3.19
-10 8 5 375.98 16.22
-10 8 6 -0.51 3.87
-10 8 7 303.39 14.31
-10 8 8 7.64 4.96
-10 8 9 146.27 9.15
-10 8 10 32.12 6.16
-10 8 11 13.47 3.87
-10 8 12 30.7 4.6
-10 8 13 42.34 5.43
-9 -9 -5 239.27 14.72
-9 -9 -4 13.29 4.15
-9 -9 -3 192.39 11.89
-9 9 -2 15.93 3.98
-9 -9 -2 19.86 4.7
-9 9 -1 75.75 7.51
-9 -9 -1 82.08 5.91
-9 9 0 6.63 3.82
-9 -7 -10 72.56 7.03
-9 -7 -9 166.55 12.1
-9 -7 -8 24.4 5.05
-9 -7 -7 117.42 7.97
-9 -7 -6 47.28 6.44
-9 -7 -5 147.41 8.29
-9 -7 -4 23.25 3.86
-9 7 -3 119.39 7.49
-9 -7 -3 132.57 7.86
-9 7 -2 17.38 4.25
-9 -7 -2 29.5 4.62
-9 7 -1 380.19 15.82
-9 -7 -1 395.17 15.98
-9 -7 0 28.92 4.09
-9 -5 -13 50.95 6.09
-9 -5 -12 35.2 6.31
-9 5 -11 58.49 3.92
-9 -5 -11 58.31 5.01
-9 5 -10 39.78 2.86
-9 -5 -10 59.65 7.17
-9 5 -9 224.89 9.69
-9 -5 -9 182.05 10.12
-9 5 -8 134.85 6.28
-9 -5 -8 112.99 7.48
-9 5 -7 487.41 18.15
-9 -5 -7 439.01 18.36
-9 5 -6 245.18 10.97
-9 -5 -6 232.39 10.83
-9 -5 -5 431.51 17.01
-9 5 -5 446.7 16.86
-9 5 -4 361.38 12.81
-9 -5 -4 298.76 12.01
-9 5 -4 314.87 12.95
-9 5 -3 90.23 5.31
-9 5 -3 102.12 4.96
-9 -5 -3 121.21 7.23
-9 5 -2 295.82 11.8
-9 5 -2 301.39 10.96
-9 -5 -2 312.13 11.92
-9 5 -1 133.11 7.09
-9 -5 -1 153.42 7.46
-9 5 0 216.25 8.56
-9 -5 0 197.8 8.46
-9 -3 -15 18.33 3.71
-9 3 -14 194.33 10.11
-9 -3 -14 147.32 10.04
-9 3 -13 18.51 2.63
-9 -3 -13 7.54 2.98
-9 3 -12 200.45 8.89
-9 -3 -12 234.2 11.06
-9 3 -11 41.31 3.84
-9 -3 -11 41.46 4.05
-9 -3 -10 97.77 6.4
-9 3 -10 138 5.94
-9 3 -9 73.58 4.23
-9 -3 -9 67.66 6.28
-9 3 -8 923.04 31.37
-9 -3 -8 803.52 29.22
-9 3 -7 155.07 6.4
-9 -3 -7 124.93 6.72
-9 3 -6 294.75 11.37
-9 -3 -6 333 13.79
-9 3 -5 319.82 11.2
-9 -3 -5 291.34 11.44
-9 3 -4 110.85 5.27
-9 -3 -4 114.51 5.97
-9 3 -3 339.43 12.67
-9 3 -3 330.4 12.13
-9 -3 -3 337.71 12.86
-9 3 -2 15.06 2.99
-9 -3 -2 26.89 3.63
-9 3 -1 614.54 21.2
-9 -3 -1 621.04 21.57
-9 3 0 804.45 26.56
-9 -3 0 668.23 23.68
-9 3 0 765.72 25.8
-9 -1 -16 152.91 10.28
-9 1 -16 187.16 10.97
-9 1 -15 3.38 3.06
-9 -1 -15 -1.36 2.4
-9 1 -14 48.96 4.45
-9 -1 -14 44.59 5.03
-9 1 -13 95.14 6.14
-9 -1 -13 151.82 8.34
-9 1 -12 213.21 9.97
-9 -1 -12 202.45 9.09
-9 1 -11 182.92 7.83
-9 -1 -11 173.85 8.32
-9 1 -10 433.3 17.11
-9 -1 -10 496.13 18.24
-9 1 -9 269.95 10.34
-9 -1 -9 291.6 11.01
-9 1 -8 349.03 12.97
-9 1 -8 359.31 15.2
-9 -1 -8 355.09 13.65
-9 1 -7 34.65 3.43
-9 1 -7 40.81 2.59
-9 -1 -7 47.12 3.77
-9 1 -6 597.28 20.48
-9 1 -6 558.69 21.22
-9 -1 -6 598.32 21.16
-9 1 -5 185.96 7.57
-9 -1 -5 188.02 8.37
-9 1 -5 202.19 8.19
-9 -1 -5 185.75 8.07
-9 1 -4 1174.6 39.84
-9 -1 -4 1118.16 39.67
-9 1 -4 1245.46 40.85
-9 -1 -4 1184.78 41.34
-9 1 -3 75.98 4.38
-9 1 -3 68.82 2.95
-9 -1 -3 68.92 3.82
-9 -1 -3 87.99 5.01
-9 1 -2 557.93 18.95
-9 1 -2 549.99 17.43
-9 -1 -2 623.52 20.5
-9 1 -2 582.86 19.42
-9 -1 -2 526.39 19.33
-9 1 -1 366.59 12.43
-9 -1 -1 312.25 12.4
-9 -1 -1 324.37 11.28
-9 1 -1 335.18 11.24
-9 1 0 268.95 9.23
-9 1 0 265.84 9.11
-9 -1 0 267.47 9.62
-9 -1 0 242.43 8.67
-9 -1 1 671.62 23.08
-9 1 1 705.41 22.56
-9 1 2 604.99 18.6
-9 1 2 496.54 17.97
-9 -1 2 582.13 20.36
-9 1 3 124.87 5.35
-9 1 3 117.06 4.98
-9 -1 3 100.71 4.96
-9 1 4 1004.67 34.88
-9 -1 4 1030.08 34.33
-9 1 4 1053.25 33.11
-9 -1 5 122.56 5.17
-9 1 5 137.79 5.68
-9 1 5 142.38 5.57
-9 1 6 1766.58 56.45
-9 -1 6 1782.69 55.83
-9 1 6 1753.47 60.35
-9 1 7 458.32 15.32
-9 -1 7 443.24 14.84
-9 1 7 412.75 15.72
-9 1 8 1740.58 53.84
-9 1 8 1650.43 55.96
-9 -1 8 1783.93 55.46
-9 1 9 63.8 3.69
-9 1 9 84.93 5.19
-9 -1 9 66.08 3.15
-9 -1 9 64.14 4.58
-9 1 10 712.96 27.26
-9 -1 10 829.73 27.7
-9 -1 10 751.43 26.58
-9 -1 11 115.49 6.19
-9 1 11 111.67 7.19
-9 -1 12 422.42 15.08
-9 1 12 424.84 16.74
-9 -1 13 66.76 4.82
-9 1 13 66.71 6.59
-9 -1 14 421.38 16.5
-9 1 15 119.07 7.17
-9 -1 15 136.51 6.9
-9 1 16 540.58 20.26
-9 -1 16 533.41 19.56
-9 1 17 82.66 6.68
-9 -1 17 102.58 7.56
-9 1 18 206.03 10.2
-9 -1 18 184.36 9.01
-9 -1 19 19.93 3.9
-9 1 19 8.04 4.33
-9 1 20 112.18 8.23
-9 -1 20 81.56 7.18
-9 1 21 -0.82 3.68
-9 -1 21 32.83 5.32
-9 3 1 292.2 10.13
-9 -3 1 285.3 10.36
-9 3 1 328.81 11.06
-9 -3 1 271.71 10.8
-9 3 2 1587.39 52
-9 3 2 1692.38 52.39
-9 -3 2 1493.4 50.95
-9 -3 2 1590.84 51.7
-9 3 3 758.39 26.17
-9 3 3 785.45 26.12
-9 -3 3 834.69 27.45
-9 3 4 1818.62 60.98
-9 -3 4 1792.59 58.4
-9 3 4 1924.92 59.31
-9 3 5 406.42 14.36
-9 -3 5 389.38 13.77
-9 3 5 363.06 13.53
-9 3 6 995.83 34.52
-9 3 6 968.79 33.11
-9 -3 6 932.63 31.27
-9 -3 7 123.42 5.05
-9 3 7 127.24 6.94
-9 3 7 126.43 5.97
-9 3 8 657.89 24.09
-9 -3 8 665.4 23.14
-9 3 9 78.42 5.53
-9 -3 9 67.18 3.09
-9 -3 10 839.54 27.46
-9 3 10 842.89 29.24
-9 3 11 76.68 6.06
-9 3 12 343.36 14.11
-9 -3 12 303.6 12.83
-9 -3 13 86.54 6.09
-9 3 13 90.12 6.39
-9 -3 14 194 9.5
-9 3 14 223.79 10.45
-9 3 15 92.71 6.59
-9 -3 15 78.07 5.17
-9 3 16 234.67 11.69
-9 -3 16 214.18 11.1
-9 3 17 37.15 5.6
-9 -3 17 22.79 4.73
-9 3 18 231.27 11.83
-9 -3 18 210.71 11.91
-9 -3 19 27.2 5.02
-9 3 19 27.54 4.71
-9 -3 20 177.36 11.53
-9 3 20 195.55 12.44
-9 5 1 316.71 12.53
-9 5 1 301.44 11.83
-9 -5 1 301.69 12.28
-9 5 2 -0.82 2.04
-9 5 2 3.96 3.55
-9 -5 2 -1.4 2.04
-9 5 3 455.94 16.75
-9 5 3 462.38 15.38
-9 -5 3 424.13 15.72
-9 5 4 211.15 8.25
-9 5 4 197.65 8.51
-9 -5 4 193.17 8.37
-9 5 5 544.97 18.62
-9 -5 5 480.76 17.38
-9 5 6 293.92 11.33
-9 -5 6 284.92 10.68
-9 5 7 75.21 5.55
-9 -5 7 76.74 3.79
-9 5 8 304.92 12.84
-9 -5 8 315.74 11.08
-9 -5 9 309.51 12.29
-9 5 9 301.83 12.22
-9 5 10 102.53 6.21
-9 5 11 96.44 6
-9 5 12 384.24 16.42
-9 5 13 55.65 6.31
-9 5 14 87.39 7.9
-9 -5 14 90.08 6.04
-9 5 15 42.02 7.48
-9 -5 15 50.94 5.4
-9 5 16 155.31 10.26
-9 -5 16 119.08 7.47
-9 5 17 117.41 10.35
-9 -5 17 171.29 10.9
-9 5 18 89.53 8.13
-9 -5 18 103.88 7.79
-9 5 19 138.9 10.76
-9 -7 1 352.99 15.24
-9 -7 2 45.37 4.63
-9 7 2 28.38 3.6
-9 7 3 590.81 22.85
-9 -7 3 569.62 22.24
-9 -7 4 224.01 9.64
-9 7 4 241.9 10.55
-9 7 5 637.92 24.35
-9 -7 5 566.73 24.24
-9 7 6 210.7 10.39
-9 7 7 520.88 20.4
-9 7 8 174.87 9.84
-9 7 9 163.31 9.35
-9 7 10 84.42 7.32
-9 7 11 12.07 4.79
-9 7 12 6.03 6.03
-9 7 13 64.58 6.67
-9 7 14 22.05 5.31
-9 7 15 45.79 6.04
-9 -7 16 93.57 7.22
-9 7 16 71.24 7.93
-9 9 1 173.56 11.89
-9 9 2 24.43 4.79
-9 9 4 2.38 2.7
-9 9 5 127.72 8.87
-9 9 6 5.12 3.99
-9 9 7 190.06 12.19
-9 9 8 30.23 3.73
-9 9 9 78.59 6.17
-9 9 10 28.2 4.9
-8 -8 -9 122.32 9.72
-8 -8 -8 10.85 4.25
-8 -8 -7 35.91 5.63
-8 -8 -6 22.41 3.93
-8 -8 -5 174.12 10.57
-8 -8 -4 46.57 6.49
-8 -8 -3 189.02 10.08
-8 8 -3 200.9 10.22
-8 8 -2 3.54 4.45
-8 -8 -2 6.4 4.59
-8 8 -1 202.06 9.85
-8 -8 -1 201.92 10.56
-8 -8 0 11.24 4.39
-8 8 0 8.48 3.59
-8 -6 -13 41.9 5.88
-8 -6 -12 97.2 9.05
-8 -6 -11 50.04 5.98
-8 6 -10 103.35 5.57
-8 -6 -10 86.46 7.17
-8 6 -9 125.97 6.74
-8 -6 -9 121.41 8.24
-8 6 -8 68.28 3.91
-8 -6 -8 67.53 6.16
-8 6 -7 212.65 9.56
-8 -6 -7 245.25 10.51
-8 6 -6 53.04 4.36
-8 -6 -6 54.71 6.56
-8 6 -5 539.56 19.38
-8 -6 -5 461.18 19.34
-8 6 -4 171.9 7.17
-8 6 -4 159.99 7.58
-8 -6 -4 144.29 8.5
-8 6 -3 312.68 12.01
-8 6 -3 293.39 12.11
-8 -6 -3 293.24 13.6
-8 6 -2 59.02 3.74
-8 6 -2 53.2 4.11
-8 -6 -2 48.6 5.26
-8 6 -1 164.28 7.06
-8 -6 -1 119.81 7.23
-8 6 -1 116.27 6.82
-8 -6 0 17.08 4.08
-8 -4 -15 145.58 10.17
-8 -4 -14 110.36 7.9
-8 -4 -13 122.14 9.21
-8 4 -12 6.23 2.01
-8 -4 -12 4.64 4.64
-8 4 -11 79.15 4.04
-8 -4 -11 108.61 7.26
-8 -4 -10 195.22 11.27
-8 4 -10 224.77 9.04
-8 4 -9 193.57 7.65
-8 -4 -9 189.21 9.75
-8 -4 -8 498.87 18.36
-8 4 -8 610.71 20.75
-8 4 -7 276.74 10.29
-8 -4 -7 284.25 12.21
-8 -4 -6 124.48 7.1
-8 4 -6 161.96 6.15
-8 4 -5 1.79 2.43
-8 -4 -5 6.43 2.68
-8 4 -4 35.45 3.59
-8 -4 -4 48.44 4.29
-8 4 -3 98.44 4.65
-8 4 -3 95.08 4.7
-8 -4 -3 97.4 6.01
-8 4 -2 3.78 2
-8 4 -2 8.73 1.79
-8 -4 -2 12.22 3.64
-8 4 -1 251.74 9.58
-8 -4 -1 259.65 10.37
-8 4 0 140.49 6.07
-8 -4 0 118.68 5.93
-8 4 0 147.3 6.34
-8 -2 -16 61.83 5.17
-8 2 -15 4.46 1.7
-8 -2 -15 5.46 2.94
-8 -2 -14 68.92 4.55
-8 2 -14 47.64 3.93
-8 -2 -13 23.12 4.94
-8 2 -13 25.96 3.15
-8 2 -12 60.71 3.98
-8 -2 -12 47.6 4.53
-8 2 -11 41.42 2.91
-8 -2 -11 39.4 4.31
-8 2 -10 533.95 19.64
-8 -2 -10 541.25 20.54
-8 2 -9 138.08 6.1
-8 -2 -9 100.68 6.85
-8 2 -8 824.24 28.2
-8 -2 -8 876.17 31.07
-8 2 -7 90.12 4.41
-8 -2 -7 89.5 4.86
-8 2 -6 1443.55 47.07
-8 -2 -6 1389.37 46.63
-8 -2 -5 92.1 5.29
-8 2 -5 72.98 4.2
-8 2 -4 697.51 24.04
-8 -2 -4 673.16 24.19
-8 2 -3 342.03 12.46
-8 2 -3 344.35 11.9
-8 -2 -3 356.41 13.67
-8 2 -2 427.9 15.63
-8 -2 -2 424.45 16.19
-8 -2 -2 423.46 15.57
-8 2 -1 229.4 8.42
-8 -2 -1 220.71 9.88
-8 -2 -1 222.84 8.52
-8 -2 0 611.57 20.89
-8 2 0 626.29 21.33
-8 -2 0 669.93 23.05
-8 -2 0 648.2 21.99
-8 0 -16 76.96 5.66
-8 0 -15 5.36 2
-8 0 -14 112.68 6.91
-8 0 -13 -2.09 2.93
-8 0 -12 367.97 14.65
-8 0 -11 -5.95 2.92
-8 0 -10 621.35 22.23
-8 0 -9 -4.17 2.61
-8 0 -8 37.71 3.67
-8 0 -7 -1.5 1.07
-8 0 -7 1.68 2.83
-8 0 -6 341.55 13.98
-8 0 -6 339.93 12.82
-8 0 -5 3.59 1.79
-8 0 -5 0.31 1.15
-8 0 -4 820 28.26
-8 0 -4 771.71 26.79
-8 0 -3 -6.16 2.76
-8 0 -3 -0.72 1.43
-8 0 -2 364.19 12.06
-8 0 -2 337.49 11.29
-8 0 -1 -3.93 1.59
-8 0 -1 3.85 1.01
-8 0 0 1074.03 37.59
-8 0 0 1184.75 37.06
-8 0 1 -0.52 1.99
-8 0 2 309.82 10.36
-8 0 3 1.12 2.33
-8 0 4 5357.57 169.05
-8 0 5 1.3 1.3
-8 0 6 4062.38 123.93
-8 0 6 3730.56 129.63
-8 0 7 4.11 1.85
-8 0 7 0.32 2.12
-8 0 8 2189.95 75.54
-8 0 8 2404.02 74.63
-8 0 9 9.81 2.67
-8 0 9 -1.69 1.69
-8 0 10 692.87 26.69
-8 0 11 0.43 2.55
-8 0 12 342.66 14.16
-8 0 13 -1.79 4.43
-8 0 14 337.4 13.73
-8 0 15 -2.3 2.92
-8 0 16 693.89 25.57
-8 0 17 -5.48 3.31
-8 0 18 272.17 11.92
-8 0 19 -6.88 3.49
-8 0 20 319.34 17.45
-8 0 21 -3.26 4.69
-8 -2 1 327.53 12.22
-8 2 1 345.49 11.56
-8 2 1 305.07 11.16
-8 -2 1 315.43 12.37
-8 -2 1 349.73 11.52
-8 2 2 53.74 3.15
-8 2 2 49.59 2.36
-8 -2 2 61 3.96
-8 -2 2 52.4 3.6
-8 2 3 226.73 8.46
-8 -2 3 238.11 8.68
-8 2 3 216.81 8.56
-8 2 4 1097.33 34.7
-8 -2 4 974.88 34.05
-8 2 4 1045.21 36.35
-8 2 5 1160.63 36.91
-8 2 5 1131.64 38.4
-8 -2 5 1135.46 37.16
-8 2 5 1039.02 36.28
-8 2 6 453.12 14.82
-8 2 6 423.74 15.5
-8 -2 6 423.11 13.73
-8 2 7 592.84 19.69
-8 -2 7 573.3 18.15
-8 2 7 569.33 20.89
-8 2 8 1249.67 41.3
-8 -2 8 1360.41 42.4
-8 2 9 110.29 5.49
-8 -2 9 135.43 5.12
-8 -2 10 1240.21 41.11
-8 2 10 1398.77 46.21
-8 -2 11 163.79 8.23
-8 2 11 152.11 8.47
-8 2 12 413.98 16.32
-8 -2 12 452.22 17
-8 -2 13 213.99 10.17
-8 2 13 235.63 9.96
-8 2 14 89.64 6.17
-8 -2 14 87.61 4.61
-8 2 15 118.32 8.17
-8 -2 15 114.77 6.91
-8 2 16 295.26 14.2
-8 -2 16 337.35 12.82
-8 2 17 88.05 6.1
-8 -2 17 69.93 4.79
-8 -2 18 306.52 13.98
-8 2 18 290.39 14.07
-8 2 19 24.12 6.45
-8 -2 19 29.37 4.97
-8 2 20 262.21 15.47
-8 -2 20 249.08 13.69
-8 2 21 1.13 3.71
-8 -2 21 18.24 6.08
-8 -4 1 884.01 30.21
-8 4 1 820.5 27.8
-8 4 1 884.26 28.47
-8 4 2 741.56 24.05
-8 4 2 709.98 23.52
-8 -4 2 716.56 24.45
-8 4 3 1208.11 36.37
-8 4 3 1051.81 35.67
-8 -4 3 976.03 33.67
-8 4 4 571.61 20.22
-8 -4 4 622.54 20.44
-8 4 4 644.69 20.45
-8 4 5 295.59 11.3
-8 4 5 310.52 11.12
-8 -4 5 277.22 10.15
-8 -4 6 567.09 19.47
-8 4 6 572.86 20.39
-8 4 7 601.52 21.66
-8 -4 7 591.84 20.39
-8 -4 8 973.98 32.64
-8 4 8 994.19 34.33
-8 4 9 483.07 17.2
-8 -4 9 486.28 16.36
-8 4 10 413.53 15.38
-8 4 11 172.04 9.51
-8 4 12 179.37 10.05
-8 4 13 132.1 7.31
-8 -4 13 158.4 7.41
-8 -4 14 115.59 6.36
-8 4 14 144.98 7.54
-8 -4 15 150.27 9.13
-8 4 15 152.29 8.71
-8 4 16 124.98 8.91
-8 -4 16 111.5 6.91
-8 4 17 83.1 6.88
-8 -4 17 72.49 6.58
-8 4 18 165.66 10.06
-8 -4 18 149.11 10.3
-8 4 19 195.16 14.44
-8 -4 19 201.56 12.21
-8 -6 1 217.83 9.77
-8 6 1 203.43 8.99
-8 -6 2 13.32 2.9
-8 6 2 14.55 1.96
-8 -6 3 141.64 6.92
-8 6 3 158.38 6.44
-8 -6 4 250.71 10.59
-8 6 4 256.03 11.05
-8 6 5 383.82 13.9
-8 -6 5 379.99 14.01
-8 6 6 364.1 14.44
-8 -6 6 347.92 13.71
-8 -6 7 535.09 22.9
-8 6 7 612.5 23.1
-8 6 8 230.91 10.4
-8 6 9 515.57 19.6
-8 6 10 51.57 6.55
-8 6 11 388.23 15.43
-8 6 12 41.59 5.1
-8 6 13 145.47 9.83
-8 6 14 74.17 6.69
-8 6 15 117.06 9.01
-8 -6 15 118.71 7.65
-8 6 16 69.42 6.92
-8 -6 16 76.21 5.54
-8 6 17 75.72 8.71
-8 -6 17 87.95 7.05
-8 8 1 190.24 9.09
-8 -8 1 208 10.4
-8 8 2 20.85 3.41
-8 -8 2 7.62 2.47
-8 8 4 0.82 2.35
-8 8 5 393.51 16.49
-8 8 6 21.81 4.79
-8 8 7 300.65 12.82
-8 8 8 23.34 3.91
-8 8 9 26.53 4.65
-8 8 10 33.31 5.08
-8 8 11 101.26 8.54
-8 8 12 13.87 4.87
-8 8 13 44.49 6.74
-8 10 1 73.53 7.33
-8 10 2 41.12 5.1
-8 10 3 72.85 7.72
-8 10 4 12.49 4.6
-7 -9 -6 12.12 5.37
-7 -9 -5 206.82 13.99
-7 -9 -4 12.48 3.7
-7 -9 -3 172.02 10.77
-7 9 -2 5.16 3.24
-7 -9 -2 6.48 4.25
-7 9 -1 168.77 10.92
-7 -9 -1 169.39 11.25
-7 9 0 62.65 6.21
-7 -9 0 86.48 7.07
-7 -7 -11 215.66 13.51
-7 -7 -10 99.97 7.54
-7 -7 -9 38.77 4.93
-7 -7 -8 4.27 3.63
-7 -7 -7 83.53 6.1
-7 -7 -6 43.47 5.55
-7 -7 -5 263.75 13.7
-7 -7 -4 65.49 5.55
-7 7 -3 169.67 9.24
-7 -7 -3 235.5 9.9
-7 7 -2 12.7 4.5
-7 -7 -2 9.49 2.99
-7 7 -1 161.83 8.43
-7 -7 -1 195.51 8.74
-7 -7 0 21.08 3.43
-7 7 0 32.72 4.07
-7 -5 -14 -1.19 2.93
-7 -5 -13 25.96 4.13
-7 -5 -12 57.02 5.99
-7 5 -11 116.32 5.78
-7 -5 -11 101.25 7.95
-7 5 -10 162.54 6.56
-7 -5 -10 127.88 7.62
-7 5 -9 307.54 11.67
-7 -5 -9 279.87 13.18
-7 5 -8 281.72 10.32
-7 -5 -8 238.95 11.62
-7 5 -7 366.09 13.43
-7 -5 -7 352.95 14.32
-7 5 -6 580.71 20.29
-7 -5 -6 562.46 19.85
-7 5 -5 395.3 14.1
-7 -5 -5 332.93 13.51
-7 5 -4 521.33 18.91
-7 5 -4 508.8 18.59
-7 -5 -4 503.46 18.8
-7 5 -3 80.35 4.4
-7 -5 -3 84.31 5.59
-7 5 -3 66.87 3.72
-7 5 -2 222.32 9.14
-7 5 -2 215.49 8.41
-7 -5 -2 164.85 8.51
-7 5 -1 332.2 12.63
-7 -5 -1 372.15 13.44
-7 5 0 82.89 4.74
-7 -5 0 80.6 5.06
-7 -3 -16 166.45 10.39
-7 -3 -15 32.1 4.9
-7 3 -14 172.44 8.47
-7 -3 -14 192.02 9.69
-7 3 -13 25.71 2.84
-7 -3 -13 35.94 3.95
-7 3 -12 107.66 5.58
-7 -3 -12 107.34 6.55
-7 3 -10 584.12 21.17
-7 -3 -10 573.77 21.72
-7 3 -9 36.84 2.48
-7 -3 -9 56.09 4.7
-7 3 -8 586 20.03
-7 -3 -8 448.93 18.06
-7 3 -7 124.7 5.5
-7 -3 -7 97.86 6.09
-7 3 -6 544.16 18.28
-7 -3 -6 568.8 21.03
-7 3 -5 142.53 5.94
-7 -3 -5 146.22 6.84
-7 3 -4 500.66 17.27
-7 -3 -4 470.67 16.84
-7 3 -3 36.26 2.71
-7 3 -3 44.58 2.49
-7 -3 -3 40.47 3.94
-7 3 -2 163.38 6.89
-7 -3 -2 146.19 6.86
-7 3 -1 284.85 8.9
-7 -3 -1 262.45 9.48
-7 3 0 883.52 28.26
-7 3 0 842.22 27.9
-7 -3 0 833.13 28.14
-7 1 -17 28.64 3.33
-7 -1 -17 34.27 4.31
-7 1 -16 161.13 9.47
-7 -1 -16 153.24 9.06
-7 1 -15 2.23 1.8
-7 -1 -15 5.55 2.51
-7 -1 -14 105.24 6.45
-7 1 -14 99.8 5.47
-7 1 -13 170.11 7.61
-7 -1 -13 133.91 7.29
-7 1 -12 248.61 9.83
-7 -1 -12 248.77 11.01
-7 1 -11 35.94 3.15
-7 -1 -11 41.32 3.77
-7 1 -10 913.05 31.19
-7 -1 -10 764.74 28.61
-7 -1 -9 14.6 3.65
-7 1 -9 18.63 2.61
-7 1 -8 613.77 24.26
-7 -1 -8 655.76 23.33
-7 1 -8 682.67 22.53
-7 1 -7 92.75 4.52
-7 1 -7 86.57 4.6
-7 -1 -7 95.64 5.26
-7 1 -6 997.78 32.77
-7 1 -6 969.66 35.2
-7 -1 -6 1011.3 34.49
-7 1 -5 52.34 3.04
-7 1 -5 53.32 2.35
-7 -1 -5 58.17 4.43
-7 -1 -5 65.66 3.42
-7 1 -4 1024.21 36.83
-7 -1 -4 1105.1 39.87
-7 -1 -4 1171.2 38.7
-7 1 -3 367.73 12.75
-7 -1 -3 345.09 12.77
-7 1 -3 336.16 12.35
-7 -1 -3 339.19 12.02
-7 1 -2 846.45 28.56
-7 1 -2 818.65 28.3
-7 1 -2 862.13 26.64
-7 -1 -2 765.57 27.94
-7 -1 -2 828.15 26.59
-7 1 -1 43.67 2.68
-7 1 -1 46.13 1.66
-7 -1 -1 45.46 2.62
-7 -1 -1 46.6 4.08
-7 1 0 1589.14 50.85
-7 -1 0 1551.08 53.65
-7 -1 0 1582.8 51.34
-7 -1 0 1470.41 49.63
-7 -1 1 499.65 17.65
-7 -1 1 514.03 18.92
-7 1 1 568.38 17.61
-7 1 1 486.98 17.3
-7 1 2 101.88 4.14
-7 1 2 107.12 4.06
-7 -1 2 105.84 4.18
-7 1 3 560.74 17.77
-7 1 3 531.59 18.65
-7 -1 3 512.59 17.78
-7 1 4 1337.96 45.51
-7 -1 4 1393.87 44.3
-7 1 4 1408.79 42.54
-7 1 5 148.4 6.59
-7 1 5 153.17 6.06
-7 -1 5 150.38 5.73
-7 -1 6 1909.95 57.86
-7 1 6 1638.71 58.11
-7 1 6 1961.4 59.82
-7 1 6 1892.86 62.39
-7 1 7 139.53 5.98
-7 1 7 166.78 6.63
-7 1 7 157.09 6.88
-7 -1 7 168.21 5.95
-7 1 8 320.36 13.51
-7 -1 8 367.69 11.92
-7 -1 8 313.18 12.83
-7 1 9 19.66 4
-7 -1 9 25.98 3.34
-7 1 10 1253.65 41.43
-7 -1 10 1126.37 40
-7 -1 11 203.88 9.7
-7 1 11 185.1 9.57
-7 1 12 535.1 21.79
-7 -1 12 572.83 21.44
-7 -1 13 23.26 4.09
-7 1 13 28.79 3.51
-7 1 14 356.37 14.58
-7 -1 14 392.4 14.51
-7 1 15 168.1 9.29
-7 -1 15 175.27 9.4
-7 1 16 279.13 13.36
-7 -1 16 270.01 11.47
-7 1 17 31.55 4.48
-7 -1 17 30.69 5.17
-7 1 18 112.55 8
-7 -1 18 124.09 8.16
-7 1 19 13.62 4.13
-7 -1 19 20.13 3.8
-7 1 20 337.35 18.15
-7 -1 20 350.09 19.54
-7 1 21 95.18 9.94
-7 -1 21 45.03 5.53
-7 3 1 20.58 2.88
-7 3 1 33.14 1.94
-7 -3 1 31.35 2.57
-7 3 2 223.47 7.95
-7 3 2 195.09 7.39
-7 -3 2 180.23 7.56
-7 -3 2 202.02 7.89
-7 3 3 78.63 4.63
-7 3 3 109.45 5.04
-7 3 3 112.78 4.82
-7 -3 3 113.98 4.73
-7 -3 3 121 4.87
-7 3 4 485.1 15.34
-7 -3 4 397.1 13.47
-7 3 4 394.47 14.65
-7 3 5 145.83 6.73
-7 3 5 125.9 6
-7 -3 5 125.86 5.15
-7 3 6 365.22 13.68
-7 -3 6 337.31 12.08
-7 3 7 114.62 5.49
-7 -3 7 129.67 4.68
-7 3 8 1150.63 39.47
-7 -3 8 1128.39 36.35
-7 3 9 120.33 6.14
-7 3 10 744.28 26.22
-7 3 11 201.92 9.47
-7 -3 11 177.73 8.45
-7 3 12 107.04 7.12
-7 -3 12 99 5.13
-7 3 13 170.71 8.95
-7 -3 13 139.37 7.15
-7 3 14 85.23 7.12
-7 -3 14 71.02 4.42
-7 -3 15 98.81 5.7
-7 3 16 153.23 8.07
-7 -3 16 140.97 8.01
-7 3 17 177.39 11.22
-7 -3 17 127.9 8.42
-7 -3 18 266.24 12.85
-7 3 18 278.21 12.8
-7 3 19 52.14 5.97
-7 -3 19 62.15 5.96
-7 3 20 336.42 18.94
-7 -3 20 314.77 18.44
-7 5 1 189.19 8.63
-7 5 1 216.17 8.44
-7 -5 1 207.38 8.14
-7 5 2 140.25 5.98
-7 -5 2 131.54 6.81
-7 5 3 249.16 9.28
-7 -5 3 225.95 8.47
-7 5 4 270.82 9.95
-7 -5 4 248.92 9.82
-7 5 5 10.41 3.37
-7 -5 5 15.64 2.22
-7 5 6 315 12.13
-7 -5 6 307.99 11.2
-7 5 7 279.93 10.81
-7 -5 7 267.48 10.74
-7 -5 8 120.25 4.51
-7 5 8 126.77 6.27
-7 5 9 673.15 23.43
-7 -5 9 583.75 21.75
-7 -5 9 608.13 22.21
-7 5 10 247.87 11.94
-7 5 11 96.8 6.06
-7 5 12 129.4 8.38
-7 5 13 155.91 9.04
-7 5 14 205.62 10.13
-7 -5 14 182.06 9.77
-7 5 15 45.84 5.68
-7 -5 15 62.22 5.73
-7 5 16 48.97 6.01
-7 -5 16 55.96 5.11
-7 5 17 144.9 10.14
-7 -5 17 178.82 10.28
-7 5 18 13.48 6.01
-7 -5 18 10.11 3.41
-7 7 1 230.56 9.57
-7 -7 1 260.31 11.7
-7 7 2 96.77 5.29
-7 -7 2 114.57 7.01
-7 -7 3 70.69 4.74
-7 7 4 193.7 9.29
-7 -7 4 176.15 8.11
-7 7 5 426.44 18.13
-7 -7 5 459.98 18.17
-7 7 6 29.89 4.68
-7 7 7 397.5 15.92
-7 7 8 5.23 3.49
-7 7 9 157.74 9.15
-7 7 10 5.15 5.36
-7 7 11 76.5 5.6
-7 7 12 19.4 6.19
-7 7 13 57.03 5.9
-7 7 14 42.01 6.01
-7 7 15 60.23 8.51
-7 -7 15 65.84 5.71
-7 -7 16 14.68 3.07
-7 7 16 9.35 6.03
-7 9 1 13.22 3.48
-7 9 2 40.9 5.67
-7 9 3 60.85 5.6
-7 9 4 12.8 3
-7 9 5 150.36 9.58
-7 9 6 5.63 3.17
-7 9 7 55.7 6.69
-7 9 8 -8.54 3.29
-7 9 9 115.8 9.66
-7 9 10 0 5.58
-6 10 -1 113.87 9.3
-6 10 0 22.8 4.2
-6 -8 -10 60.89 6.59
-6 -8 -9 20.53 4.76
-6 -8 -8 45.75 5.5
-6 -8 -7 42.96 5.18
-6 -8 -6 46.53 4.97
-6 -8 -5 338.88 15.23
-6 -8 -4 41.12 4.02
-6 8 -3 467.89 18.61
-6 -8 -3 438.06 19.89
-6 8 -2 149.55 8.88
-6 -8 -2 143.47 8.01
-6 -8 -1 291.77 13.44
-6 8 -1 281.94 12.51
-6 8 0 45.48 5.06
-6 -8 0 39.87 4.06
-6 -6 -13 21.7 4.99
-6 -6 -12 52.97 6.62
-6 -6 -11 98.27 8.13
-6 -6 -10 108.08 7.47
-6 -6 -9 165.59 8.44
-6 -6 -8 103.58 8.07
-6 -6 -7 560.29 22.87
-6 -6 -6 141.99 8.05
-6 -6 -5 502.68 19.8
-6 6 -4 264.38 11.06
-6 -6 -4 252.83 11.17
-6 6 -3 348.65 14.49
-6 -6 -3 341.51 14.3
-6 6 -2 95.64 5.77
-6 -6 -2 81.9 5.14
-6 6 -1 641.6 23.46
-6 -6 -1 570.47 21.09
-6 -6 0 32.74 3.43
-6 -4 -16 143.31 9.63
-6 -4 -15 77.4 6.92
-6 -4 -14 63.64 6.38
-6 -4 -13 91.47 6.51
-6 4 -12 66.66 3.71
-6 -4 -12 45.06 4.76
-6 4 -11 148.73 6.9
-6 -4 -11 110.96 7.7
-6 4 -10 199.74 7.67
-6 -4 -10 197.25 10.43
-6 4 -9 104.82 4.99
-6 -4 -9 102.78 6.82
-6 4 -8 339.62 11.74
-6 -4 -8 352.83 13.69
-6 4 -7 136.3 5.33
-6 -4 -7 131.53 7.66
-6 4 -6 333.06 11.84
-6 -4 -6 307.9 11.78
-6 4 -5 0.11 1.48
-6 -4 -5 4.18 3.43
-6 4 -4 758.68 25.48
-6 -4 -4 713.38 26.11
-6 4 -3 228.3 8.81
-6 4 -3 230.69 8.54
-6 -4 -3 202.96 8.83
-6 4 -2 471.96 15.48
-6 4 -2 431.43 15.18
-6 -4 -2 407.66 15.32
-6 4 -1 194.65 7.58
-6 -4 -1 222.54 8.64
-6 4 0 680.31 22.58
-6 4 0 639.49 22.23
-6 -4 0 615.54 21.26
-6 -2 -17 12.89 3.99
-6 2 -16 112.34 7.58
-6 -2 -16 112.61 7.64
-6 2 -15 29.3 2.67
-6 -2 -15 26.73 4.11
-6 2 -14 26.99 2.86
-6 -2 -14 26.86 4.43
-6 2 -13 8.58 2.3
-6 -2 -13 12.54 3.16
-6 2 -12 26.51 2.5
-6 -2 -12 23.3 3.27
-6 2 -11 84.73 4.38
-6 -2 -11 67.78 4.55
-6 2 -10 630.36 21.67
-6 -2 -10 601.4 22.21
-6 2 -9 25.1 2.67
-6 -2 -9 16.64 3.79
-6 2 -8 823.7 27.71
-6 -2 -8 756.57 27.71
-6 2 -7 82.48 3.91
-6 -2 -7 92.15 5.39
-6 2 -6 1994.8 62.84
-6 -2 -6 1760.82 58.47
-6 2 -5 188.93 7.62
-6 -2 -5 216.68 8.3
-6 2 -4 1554.57 49.5
-6 -2 -4 1554.81 49.19
-6 2 -3 836.5 27.6
-6 2 -3 820.17 27.26
-6 -2 -3 805.93 26.66
-6 -2 -3 769.56 26.83
-6 2 -2 1896.65 61.25
-6 2 -2 1972.73 59.65
-6 -2 -2 1904.12 63.04
-6 -2 -2 1873.23 59.65
-6 -2 -1 68.33 4.06
-6 2 -1 63.18 3.78
-6 -2 -1 58.41 3.2
-6 2 0 745.41 23.91
-6 -2 0 652.48 23.45
-6 -2 0 722.44 22.06
-6 0 -17 9.28 2.53
-6 0 -16 85.07 6.42
-6 0 -15 -3.9 2
-6 0 -14 549.12 21.52
-6 0 -13 -0.31 1.78
-6 0 -12 431.82 16.21
-6 0 -11 -2.72 1.67
-6 0 -10 248.53 9.49
-6 0 -9 -3.24 1.88
-6 0 -8 298.57 10.9
-6 0 -7 -3.78 1.68
-6 0 -7 -2.26 1.08
-6 0 -6 1738.37 58.94
-6 0 -6 1840.46 62.48
-6 0 -5 4.23 2.43
-6 0 -5 2.83 1.16
-6 0 -4 1287.1 41.96
-6 0 -4 1293.99 41.27
-6 0 -3 -2.13 1.6
-6 0 -3 0.61 1.02
-6 0 -2 752.09 25.53
-6 0 -2 761.54 24.47
-6 0 -1 -0.75 2.24
-6 0 0 1183.98 40.92
-6 0 0 1355.14 43.13
-6 0 1 -3.44 1.46
-6 0 2 2194.06 70.04
-6 0 3 5.59 2
-6 0 4 2141.68 69.19
-6 0 5 2.24 1.63
-6 0 5 4.86 1.59
-6 0 6 948.45 29.75
-6 0 6 897.87 30.8
-6 0 7 -0.41 0.93
-6 0 7 -0.84 1.37
-6 0 7 12.45 2.58
-6 0 8 819.6 29.34
-6 0 8 864.86 30.23
-6 0 9 1.66 0.93
-6 0 9 8.26 2.47
-6 0 10 886.42 31.15
-6 0 11 -4.37 2.77
-6 0 12 347.03 13.56
-6 0 13 8.34 4.01
-6 0 14 260.48 10.78
-6 0 15 -1.78 3.24
-6 0 16 92.2 6.36
-6 0 17 -4.04 3.21
-6 0 18 207.53 10.86
-6 0 19 -8.01 3.59
-6 0 20 397.85 22.09
-6 -2 1 1305.19 43.19
-6 2 1 1311.06 40.91
-6 2 1 1228.41 41.15
-6 -2 1 1320.78 43.66
-6 -2 1 1276.94 40.02
-6 2 2 73.1 3.99
-6 -2 2 60.65 3.65
-6 2 3 240.76 10.57
-6 2 3 315.7 11.01
-6 2 3 284.73 10.66
-6 -2 3 328.78 11.31
-6 2 4 216.87 8.34
-6 2 4 264.24 9.61
-6 2 4 260.79 9.21
-6 -2 4 248.05 8.85
-6 2 5 240.71 9.59
-6 2 5 301.67 10.63
-6 2 5 284.77 10.29
-6 -2 5 288.67 9.69
-6 2 6 867.65 29.03
-6 2 6 886.08 29.79
-6 -2 6 894.63 26.92
-6 2 7 193.02 8.04
-6 -2 7 205.44 6.78
-6 2 8 1462.93 48.33
-6 2 9 49.28 3.63
-6 -2 9 31.58 3.09
-6 2 10 1124.1 37.01
-6 -2 10 1088.54 37.5
-6 2 11 105.62 5.78
-6 -2 11 81.94 5.84
-6 2 12 549.69 20.06
-6 -2 12 529.83 20.6
-6 2 13 122.44 6.3
-6 -2 13 116.26 7.02
-6 2 14 336.56 13.67
-6 -2 14 336.74 13.36
-6 2 15 22.74 4.23
-6 -2 15 11.58 3.34
-6 2 16 152.56 8.57
-6 -2 16 169.5 10.23
-6 2 17 7.34 5.14
-6 -2 17 1.66 2.7
-6 2 18 107.25 6.81
-6 -2 18 103.95 6.75
-6 2 19 32.84 5.1
-6 -2 19 8.78 4.75
-6 2 20 41.78 5.9
-6 -2 20 23.01 4.34
-6 4 1 1027.66 36.05
-6 4 1 1091.29 35.16
-6 4 1 1075.38 34.69
-6 -4 1 1079.23 35.48
-6 4 2 258.51 10.38
-6 4 2 272.8 10.42
-6 4 2 291.27 9.7
-6 -4 2 282.71 10.42
-6 4 3 593.62 21.9
-6 4 3 635.2 21.23
-6 -4 3 639.81 20.89
-6 4 4 473.41 16.04
-6 -4 4 461.9 15.67
-6 4 5 574.79 19.77
-6 -4 5 555.17 18.81
-6 4 6 19.47 2.68
-6 -4 6 30.97 1.97
-6 4 7 902.54 30.77
-6 -4 7 830.37 28.74
-6 4 8 546.84 19.12
-6 -4 8 573.4 19.29
-6 -4 8 604.59 20.36
-6 4 9 80.28 5.42
-6 4 10 513.58 20.2
-6 4 11 21.46 3.98
-6 4 12 132.65 7.06
-6 -4 12 96.55 6.29
-6 -4 13 20.47 3.68
-6 4 13 11.58 3.79
-6 4 14 15.09 3.69
-6 -4 14 35.54 4.22
-6 4 15 2.01 5.81
-6 -4 15 9.31 3.17
-6 4 16 56.96 5.71
-6 -4 16 51.24 4.99
-6 4 17 95.54 6.77
-6 -4 17 93.77 7.11
-6 4 18 87.34 8.65
-6 -4 18 91.32 6.79
-6 4 19 136.01 9.79
-6 -4 19 160.15 10.91
-6 6 1 126.42 6.45
-6 -6 1 123.05 6.68
-6 6 2 105.28 5.28
-6 -6 2 118.17 5.84
-6 6 3 50.72 3.76
-6 -6 3 45.93 3.87
-6 6 4 376.74 13.84
-6 -6 4 319.25 12.57
-6 6 5 100.52 6.12
-6 -6 5 92.86 5.14
-6 6 6 271.49 11.28
-6 -6 6 246.68 9.84
-6 6 7 332.67 13.72
-6 -6 7 246.49 10.71
-6 6 8 167.29 8.8
-6 6 9 160.01 8.19
-6 6 10 38.98 4.84
-6 6 11 315.8 13.77
-6 6 12 188.86 9.89
-6 6 13 43.93 7.05
-6 6 14 81.67 8.32
-6 -6 14 67.22 5.18
-6 6 15 82.95 8.87
-6 -6 15 68.1 5.32
-6 6 16 25.07 6.37
-6 -6 16 22.85 3.51
-6 6 17 117.55 10.17
-6 -6 17 67.49 5.36
-6 8 1 230.23 11.22
-6 -8 1 221.06 10.9
-6 -8 2 9.94 3.64
-6 8 3 394 16.56
-6 8 4 12.75 2.96
-6 8 5 448.43 18.57
-6 8 6 8.74 3.46
-6 8 8 -6.13 5.01
-6 8 10 89.05 7.33
-6 8 11 115.69 8.68
-6 8 12 14.27 4.73
-6 8 13 35.04 5.56
-6 10 1 89.47 8.2
-6 10 2 -8.55 5.07
-6 10 3 135.41 10.51
-6 10 4 21.89 5.48
-5 -9 -7 163.66 11.14
-5 -9 -6 66.45 6.3
-5 -9 -5 362.36 21.12
-5 -9 -4 3.47 4.74
-5 -9 -3 245.47 14.76
-5 9 -2 34.72 5.02
-5 -9 -2 28.26 5.19
-5 9 -1 257.59 13.9
-5 -9 -1 227.23 13.26
-5 9 0 79.58 6.87
-5 -7 -12 32.09 5.37
-5 -7 -11 25.25 4.92
-5 -7 -10 19.74 5.87
-5 -7 -9 18.41 4.15
-5 -7 -8 50.74 5.1
-5 -7 -7 21.62 5.41
-5 -7 -6 92.62 6.05
-5 -7 -5 262.31 11.72
-5 -7 -4 107.12 6.8
-5 7 -3 285.97 13.31
-5 -7 -3 272.12 11.86
-5 7 -2 27.65 3.47
-5 -7 -2 26.11 3.93
-5 7 -1 551.41 20.17
-5 -7 -1 559.89 21.55
-5 7 0 46.2 4.25
-5 -7 0 29.84 4.37
-5 -5 -15 114.08 8.5
-5 -5 -14 9.76 5.21
-5 -5 -13 40.35 5.65
-5 -5 -12 -0.22 4.77
-5 5 -11 113.97 5.77
-5 -5 -11 113.48 7.07
-5 5 -10 151.32 6.32
-5 -5 -10 133.73 7.93
-5 5 -9 236.5 8.9
-5 -5 -9 213.96 10.64
-5 5 -8 390.65 13.52
-5 -5 -8 373.19 14.44
-5 5 -7 319.35 11.52
-5 -5 -7 282.07 13.07
-5 5 -6 528.04 19.12
-5 -5 -6 582.96 20.23
-5 5 -5 248.02 8.98
-5 -5 -5 226.52 9.8
-5 5 -4 456.54 15.52
-5 5 -4 391.95 15.16
-5 -5 -4 406.15 15.83
-5 5 -3 555.86 19.76
-5 5 -3 562.75 18.93
-5 -5 -3 539.08 19.3
-5 5 -2 355.32 13.42
-5 5 -2 358.8 13.29
-5 -5 -2 315.68 12.61
-5 5 -1 772.26 31.66
-5 -5 -1 939.39 31.52
-5 5 0 77.07 4.95
-5 5 0 82.22 4.76
-5 -5 0 86.28 5.27
-5 -3 -17 37.08 4.46
-5 -3 -16 176.44 11.59
-5 -3 -15 27.5 3.52
-5 3 -14 134.49 6.61
-5 -3 -14 119.83 7.32
-5 3 -13 20.55 2.1
-5 -3 -13 23.21 3.85
-5 3 -12 257.13 11.5
-5 -3 -12 237.77 11.25
-5 3 -11 18.19 2.08
-5 -3 -11 38.87 4.72
-5 3 -10 443.98 15.99
-5 -3 -10 392.89 15.49
-5 3 -9 115.41 4.61
-5 -3 -9 109.93 6.56
-5 3 -8 469.98 15.98
-5 -3 -8 443.37 16.11
-5 3 -7 219.97 8.19
-5 -3 -7 217.29 9.15
-5 3 -6 391.61 11.83
-5 -3 -6 344.86 13.35
-5 3 -5 994.26 32.01
-5 -3 -5 863.34 30.15
-5 3 -4 156.43 5.7
-5 -3 -4 142 6.75
-5 3 -3 454.14 15.83
-5 3 -3 435.81 14.91
-5 -3 -3 437.65 15.4
-5 3 -2 1085.69 34.08
-5 3 -2 1062.42 32.1
-5 -3 -2 918.61 33.29
-5 3 -1 843.34 30.17
-5 -3 -1 785.24 28.7
-5 -3 -1 815.81 27.24
-5 3 0 544.45 18.46
-5 3 0 497.82 17.65
-5 -3 0 528.97 17.88
-5 1 -17 18.07 2.79
-5 -1 -17 7.64 3.35
-5 1 -16 149.44 9.14
-5 -1 -16 181.74 9.53
-5 1 -15 139.8 6.76
-5 -1 -15 135.16 7.35
-5 1 -14 127.83 6.05
-5 -1 -14 104.33 6.24
-5 1 -13 86.6 4.59
-5 -1 -13 103.53 6.12
-5 1 -12 257.29 10.89
-5 -1 -12 267.33 10.83
-5 1 -11 86.65 4.44
-5 -1 -11 63.74 4.2
-5 1 -10 171.57 7.31
-5 -1 -10 161.74 7.17
-5 1 -9 143.91 6.45
-5 -1 -9 142.89 7.15
-5 1 -8 744.31 24.63
-5 1 -8 703.77 26.46
-5 -1 -8 705.96 25.73
-5 1 -7 60.71 3.26
-5 1 -7 56.73 2.89
-5 -1 -7 45.86 3.98
-5 1 -6 1406.52 45.6
-5 1 -6 1381.75 47.28
-5 -1 -6 1490.99 46.48
-5 -1 -6 1378.2 48.69
-5 1 -5 36.61 2
-5 1 -5 24.8 1.87
-5 -1 -5 25.49 2.42
-5 1 -4 2284.54 73.09
-5 1 -4 2267.6 75.38
-5 -1 -4 2161.91 74.63
-5 -1 -4 2246.02 71.7
-5 1 -3 376.87 12.37
-5 1 -3 365 12.6
-5 -1 -3 375.61 13.49
-5 -1 -3 385.12 12.51
-5 1 -2 717.34 28.4
-5 1 -2 784.32 27.64
-5 1 -2 847.64 26.16
-5 -1 -2 776.51 28.2
-5 -1 -2 830.46 27.43
-5 1 -1 1672.45 52.16
-5 -1 -1 1433.42 52.07
-5 -1 -1 1613.97 49.79
-5 -1 0 254.67 8.47
-5 1 0 241.71 7.79
-5 -1 0 247.79 8.71
-5 -1 0 237.45 8.16
-5 1 1 1385.26 50.2
-5 1 1 1590.12 47.37
-5 -1 1 1573.65 52.86
-5 1 2 394.34 13.96
-5 1 2 447.35 15.08
-5 -1 2 460.61 15.37
-5 1 3 163.27 5.76
-5 1 3 131.69 5.93
-5 -1 3 151.74 5.53
-5 1 4 402.76 13.93
-5 1 4 484.53 14.49
-5 1 4 388.5 14.74
-5 -1 4 468.63 13.83
-5 1 5 79.06 3.81
-5 1 5 80.4 3.56
-5 1 5 82.89 4.04
-5 -1 5 83.13 3.25
-5 1 6 2359.58 76.6
-5 1 6 2661.83 81.78
-5 -1 6 2783.19 83.92
-5 1 7 269.53 9.59
-5 1 7 285.2 10.69
-5 -1 7 274.99 10.57
-5 -1 8 1116.72 39.72
-5 1 8 1221.79 41.08
-5 1 9 7.97 2.37
-5 -1 9 11.38 2.21
-5 1 10 1606.12 52.64
-5 -1 10 1498.42 49.35
-5 -1 10 1491.97 50.43
-5 1 11 43 4.28
-5 -1 11 57.61 2.75
-5 -1 11 47.68 3.91
-5 1 12 818.73 27.74
-5 -1 12 822.86 28.63
-5 1 13 98.44 6.8
-5 -1 13 116.43 6
-5 1 14 106.97 6.67
-5 -1 14 113.46 7.12
-5 1 15 109.83 6.85
-5 -1 15 102.59 6.16
-5 1 16 85.98 6.4
-5 -1 16 94.41 6.65
-5 1 17 0.62 3.54
-5 -1 17 3.82 4.34
-5 1 18 30.77 5.6
-5 -1 18 21.51 4.63
-5 1 19 129.88 9.82
-5 -1 19 107.73 7.51
-5 1 20 200.87 13.09
-5 -1 20 225.16 12.86
-5 3 1 574.01 21.47
-5 3 1 704.01 21.84
-5 -3 1 666.77 22.9
-5 -3 1 618.41 22.09
-5 3 2 502.72 17.85
-5 3 2 533.94 17.84
-5 3 2 529.1 17.47
-5 -3 2 539.5 18.67
-5 -3 2 533.65 18.8
-5 -3 2 547.12 18.33
-5 3 3 535.28 19.32
-5 3 3 578.61 19.14
-5 3 3 550.33 18.93
-5 -3 3 619.12 20.51
-5 -3 3 545.56 18.8
-5 3 4 152.7 6.38
-5 3 4 177.2 7.48
-5 -3 4 174 6.34
-5 -3 4 173.12 6.57
-5 3 5 438.7 14.58
-5 -3 5 462.56 14.35
-5 3 6 2110.72 68.36
-5 -3 6 2048.34 64.1
-5 3 7 364.54 12.11
-5 -3 7 351.35 11.51
-5 -3 7 360.72 11.74
-5 3 8 1009.09 33.55
-5 3 9 142.14 6.63
-5 3 10 510.74 18.12
-5 3 11 30.28 4.12
-5 -3 11 24.64 2.91
-5 3 12 319.34 14.34
-5 -3 12 321.36 13.27
-5 -3 13 333.83 14.47
-5 3 14 59.09 5.73
-5 -3 14 74.7 5.06
-5 3 15 28.99 4.66
-5 -3 15 27.21 3.36
-5 3 16 135.63 8.9
-5 -3 16 141.33 7.49
-5 3 17 -7.06 4.11
-5 -3 17 -0.84 3.67
-5 3 18 206.13 12.95
-5 -3 18 198.78 12.07
-5 3 19 30.62 6.9
-5 -3 19 61.23 5.85
-5 3 20 184.37 13.55
-5 -3 20 267.28 15.8
-5 5 1 135.13 6.72
-5 -5 1 152.76 6.7
-5 5 2 107.43 5
-5 -5 2 137.37 5.85
-5 5 3 101.32 4.48
-5 -5 3 115.86 5.3
-5 5 4 371.89 13.36
-5 -5 4 360.7 13.66
-5 5 5 194.09 8.51
-5 -5 5 190.86 8.06
-5 5 6 479.14 16.89
-5 -5 6 456.56 16.05
-5 5 7 323.12 13.24
-5 -5 7 304.77 11.71
-5 5 8 345.78 14.1
-5 -5 8 338.37 12.28
-5 5 9 903.54 33.92
-5 5 10 980.89 34.56
-5 5 11 378.45 16.06
-5 5 12 456.47 18.63
-5 5 13 31.99 5.53
-5 -5 13 33.73 4.42
-5 5 14 193.23 9.98
-5 -5 14 224.48 10.69
-5 5 15 171.74 9.37
-5 -5 15 166.45 10.16
-5 5 16 47.27 7.57
-5 -5 16 42.63 5.02
-5 5 17 203.31 14.54
-5 -5 17 175.62 12.42
-5 5 18 22.59 5.57
-5 -5 18 7.14 3.73
-5 -7 1 398.18 15.6
-5 7 2 189.71 9.33
-5 -7 2 208.64 9.83
-5 7 3 768.62 28.42
-5 -7 3 770.15 28.73
-5 7 4 117.91 6.84
-5 -7 4 122.66 6.47
-5 7 5 674.05 25.48
-5 -7 5 605.66 25.08
-5 7 6 95.5 6.02
-5 7 7 78.02 5.72
-5 7 8 160.32 7.85
-5 7 9 157.5 8.96
-5 7 10 42.99 6.14
-5 7 11 165.18 9.59
-5 7 12 61.48 7.8
-5 7 13 174.39 11.46
-5 7 14 49.84 5.98
-5 -7 14 51.68 5.06
-5 7 15 21.9 5.06
-5 -7 15 31.28 3.71
-5 9 1 162.01 9.59
-5 9 2 43.21 5.35
-5 9 3 71.89 6.81
-5 9 3 93.87 6.48
-5 9 4 14.72 3.5
-5 9 5 114.04 8.07
-5 9 6 -1.02 2.76
-5 9 7 231.68 12.97
-5 9 8 42.94 5.55
-5 9 9 246.47 14.85
-5 9 10 24.74 5.55
-4 10 -1 93.38 8.44
-4 10 0 13.35 4.28
-4 -8 -11 30.23 4.97
-4 -8 -10 30.99 6.33
-4 -8 -9 8.41 3.68
-4 -8 -8 79.26 7.36
-4 -8 -7 132.71 9.47
-4 -8 -6 40.5 5.88
-4 -8 -5 207.3 10.78
-4 -8 -4 64.69 6.43
-4 8 -3 263.26 12.06
-4 -8 -3 185.35 10.92
-4 8 -2 89.22 5.7
-4 -8 -2 111.63 6.38
-4 8 -1 231.73 10.02
-4 -8 -1 210.1 11.01
-4 8 0 10.05 3.35
-4 -8 0 0.53 2.55
-4 -6 -14 58.62 6.72
-4 -6 -13 83.05 8.12
-4 -6 -12 57.13 5.51
-4 -6 -11 128.73 8.53
-4 -6 -10 29.07 4.29
-4 -6 -9 282.22 12.82
-4 -6 -8 63.93 5.03
-4 -6 -7 321.2 13.09
-4 -6 -6 262.53 11.13
-4 -6 -5 153.82 7.26
-4 -6 -4 102.8 6.5
-4 6 -3 751.26 27.68
-4 -6 -3 673.97 25.52
-4 6 -2 36.43 3.64
-4 6 -2 33.26 2.73
-4 -6 -2 38.92 3.83
-4 -6 -1 318.96 12.9
-4 6 -1 318.62 14.61
-4 6 -1 333.12 12.79
-4 6 0 137.94 6.85
-4 -6 0 137.94 6.66
-4 -4 -16 80.05 6.27
-4 -4 -15 71.31 6.17
-4 -4 -14 88.93 6.51
-4 -4 -13 142.4 7.74
-4 4 -12 76.28 3.78
-4 -4 -12 70.37 5.75
-4 -4 -11 46.91 5.41
-4 4 -11 36.11 2.11
-4 4 -10 145.59 6.14
-4 -4 -10 150.78 7.5
-4 -4 -9 45.53 4.65
-4 4 -9 36.98 2.22
-4 4 -8 257.02 8.96
-4 -4 -8 212.49 9.01
-4 -4 -7 3.66 2.69
-4 4 -6 274.63 10.03
-4 -4 -6 248.21 11.02
-4 4 -5 69.32 3.4
-4 -4 -5 59.45 3.77
-4 4 -4 518.18 17.04
-4 -4 -4 399.92 15.75
-4 4 -3 728.54 24.92
-4 4 -3 715.6 23.64
-4 -4 -3 643.03 24.19
-4 4 -2 1484.86 48.23
-4 4 -2 1452.54 47.16
-4 -4 -2 1423.53 47.34
-4 4 -1 633.73 24.39
-4 4 -1 767.41 24.37
-4 -4 -1 710.57 24.82
-4 4 0 343.03 14.47
-4 4 0 403.42 14.09
-4 4 0 424.76 14.18
-4 -4 0 427.11 14.78
-4 -2 -18 135.49 8.63
-4 -2 -17 21.84 3.37
-4 -2 -16 81.06 5.84
-4 2 -15 2.12 1.7
-4 -2 -15 18.88 3.17
-4 2 -14 100.56 5.24
-4 -2 -14 104.46 7.02
-4 -2 -13 73.8 5.1
-4 2 -13 61.86 3.39
-4 2 -12 422.97 15.8
-4 -2 -12 454.15 16.77
-4 2 -11 27.29 2.59
-4 -2 -11 23.6 2.97
-4 2 -10 501.26 18.28
-4 -2 -10 540.31 19.21
-4 2 -9 72.91 3.62
-4 -2 -9 95.75 5.42
-4 2 -8 1187.98 39.3
-4 -2 -8 1293.98 44.5
-4 2 -7 467.55 15.77
-4 -2 -7 443.08 16.05
-4 2 -6 1593.37 51.3
-4 -2 -6 1466.99 50.56
-4 2 -5 771.75 25.42
-4 -2 -5 794.32 26.38
-4 2 -4 1062.52 36.59
-4 -2 -4 1033.77 36.21
-4 -2 -4 1007.07 34.79
-4 2 -3 59.27 2.89
-4 -2 -3 69.78 3.62
-4 -2 -3 53.74 3.42
-4 2 -2 1949.29 65.34
-4 2 -2 2078.7 63.04
-4 -2 -2 2067.73 68.13
-4 -2 -2 1955.77 65
-4 2 -1 70.9 3.51
-4 -2 -1 51.37 2.99
-4 -2 -1 53.15 3.46
-4 2 0 1365.73 45.56
-4 2 0 1304.69 44.26
-4 -2 0 1314.4 45.27
-4 -2 0 1272.86 42.95
-4 0 -18 125.29 8.57
-4 0 -17 -1.69 2.64
-4 0 -16 587.25 22.93
-4 0 -15 10.75 2.95
-4 0 -14 712.77 25.68
-4 0 -13 6.09 2.84
-4 0 -12 179.05 7.06
-4 0 -11 -2.82 1.67
-4 0 -10 213.99 8.2
-4 0 -9 1.04 1.57
-4 0 -8 34.92 2.94
-4 0 -7 1.05 2.31
-4 0 -7 -1.19 1.3
-4 0 -6 1531.57 48.07
-4 0 -6 1406.01 50.88
-4 0 -5 0.53 1.48
-4 0 -5 4.02 1.69
-4 0 -4 1141.45 36.48
-4 0 -3 7.37 2.03
-4 0 -3 -2.37 1.44
-4 0 -2 4077.68 131.66
-4 0 -2 4028.18 126.79
-4 0 -1 5.45 1.6
-4 0 -1 -0.3 1.29
-4 0 0 3032.81 95.97
-4 0 0 3143.33 100.18
-4 0 1 8.76 1.55
-4 0 2 5166.19 160.54
-4 0 3 3.41 1.1
-4 0 3 6.6 1.78
-4 0 4 884.08 28.05
-4 0 4 880.77 29.46
-4 0 5 -0.21 0.92
-4 0 5 1.36 1.46
-4 0 5 1.19 1.84
-4 0 6 1773.97 57.59
-4 0 6 1846.31 60.97
-4 0 7 0 1.03
-4 0 7 9.1 2.17
-4 0 8 1115.44 39.33
-4 0 8 1145.13 40.33
-4 0 9 0.31 1.04
-4 0 9 -3.66 2.15
-4 0 10 372.93 13.92
-4 0 11 -6.18 2.66
-4 0 12 751.96 28.1
-4 0 13 -8.33 2.85
-4 0 14 215.22 9.91
-4 0 15 5.63 3.44
-4 0 16 60.65 5.51
-4 0 17 -6.82 3.31
-4 0 18 293.98 13.16
-4 0 19 -2.26 3.7
-4 0 20 202.67 12.32
-4 2 1 446.86 16.47
-4 2 1 530.15 16.79
-4 -2 1 495.35 17.95
-4 -2 1 508.19 17.94
-4 -2 1 508.01 16.79
-4 2 1 512.71 16.95
-4 2 2 27.28 2.26
-4 2 2 25.04 2.46
-4 -2 2 33.24 2.04
-4 2 2 30.34 2.58
-4 -2 2 26.97 2.2
-4 2 3 379.84 12.61
-4 2 3 346.89 12.58
-4 2 3 357.4 13.09
-4 -2 3 348.17 12
-4 2 4 351.42 12.65
-4 2 4 384.11 13.08
-4 -2 4 382.05 12.75
-4 2 5 904.55 31.39
-4 2 5 948.15 31.25
-4 -2 5 957.29 30.9
-4 2 6 817.04 29.25
-4 2 6 876.69 28.48
-4 2 7 357.59 13.07
-4 -2 8 1447.29 49.02
-4 2 9 244.75 9.6
-4 -2 9 234.84 9.08
-4 2 10 1634.02 52.9
-4 -2 10 1621.65 55.32
-4 2 11 438.85 16.04
-4 -2 11 398.91 14.55
-4 2 12 564.56 20.33
-4 -2 12 506.29 19.94
-4 2 13 67.87 5.63
-4 -2 13 73.86 4.83
-4 2 14 751.71 27.33
-4 -2 14 685.5 25.27
-4 2 15 0.42 3.59
-4 -2 15 12.19 2.61
-4 2 16 63.3 5.69
-4 -2 16 82.72 5.94
-4 2 17 15.71 5.76
-4 -2 17 10.67 2.8
-4 2 18 64.53 6.68
-4 -2 18 81.68 6.42
-4 2 19 19.61 4.25
-4 -2 19 14.45 3.72
-4 2 20 67.42 7.86
-4 -2 20 61.36 5.78
-4 4 1 1140.8 37.77
-4 4 1 1144.99 36.73
-4 -4 1 1070.37 36.92
-4 4 2 254.65 10.81
-4 4 2 309.18 11.02
-4 -4 2 288.54 11.3
-4 4 3 354.62 13.07
-4 -4 3 330.91 12.08
-4 4 4 259.97 9.44
-4 -4 4 245.47 8.8
-4 4 5 249.31 9.77
-4 -4 5 267.09 9.6
-4 -4 6 288.52 10.52
-4 -4 6 299.83 10.84
-4 4 6 283.6 10.53
-4 4 7 427.45 15.03
-4 -4 7 404.39 14.78
-4 -4 7 461.63 15.59
-4 4 8 1137.08 37.77
-4 4 9 144.4 8.19
-4 4 10 50.73 4.98
-4 4 11 4.58 3.96
-4 -4 11 1.25 2.71
-4 4 12 288.54 12.3
-4 -4 12 283.51 11.97
-4 4 13 148.99 8.42
-4 -4 13 121.64 7.31
-4 4 14 213.2 11.61
-4 -4 14 229.32 10.98
-4 4 15 141.87 9.29
-4 -4 15 125.41 7.35
-4 4 16 219.02 12.37
-4 -4 16 226.24 10.47
-4 4 17 171.97 11.4
-4 -4 17 154.15 10.41
-4 4 18 121.19 8.95
-4 -4 18 164.27 10.6
-4 4 19 67.41 8.7
-4 -4 19 59.2 5.7
-4 6 1 75.91 4.48
-4 -6 1 70.42 4.83
-4 6 2 317.87 11.62
-4 -6 2 298.86 11.82
-4 -6 3 73.76 4.74
-4 6 3 71.42 4.96
-4 6 4 52.6 5.14
-4 -6 4 52.19 3.44
-4 6 5 243.59 9.53
-4 -6 5 202.11 8.44
-4 6 6 24.72 4.34
-4 -6 6 33.67 2.76
-4 6 7 419.35 16.57
-4 -6 7 432.74 16.33
-4 6 8 -0.71 3.45
-4 6 9 534.34 22.27
-4 6 10 52.97 5.83
-4 6 11 670.84 24.9
-4 6 12 281.25 13.55
-4 6 13 161.36 10.14
-4 -6 13 164.03 8.81
-4 6 14 33.32 5.07
-4 -6 14 39.7 3.82
-4 6 15 113.52 9.88
-4 -6 15 98.46 7.28
-4 6 16 7.6 4.69
-4 6 17 8.77 5.12
-4 8 1 383.11 15.88
-4 -8 1 344.59 16.26
-4 8 2 14.57 3.44
-4 -8 2 22.19 3.84
-4 8 3 249.78 11.62
-4 8 4 42.21 5.91
-4 8 5 214.1 10.31
-4 8 6 60.2 6.1
-4 8 7 41.19 4.58
-4 8 8 54.86 5.1
-4 8 9 165.17 10.27
-4 8 10 30.95 5.1
-4 8 11 229.63 13.57
-4 8 12 20.19 6.63
-4 8 13 100.5 8.51
-4 10 1 98.2 8.18
-4 10 2 26.86 4.66
-4 10 3 16.44 4.36
-4 10 4 38.22 4.8
-4 10 4 45.48 5.26
-4 10 5 94.16 8.53
-4 10 5 111.26 8.67
-3 -9 -8 61.49 6.37
-3 -9 -7 172.49 11.2
-3 -9 -6 23.08 3.87
-3 -9 -5 211.97 13.15
-3 -9 -4 28.87 4.52
-3 -9 -3 159.3 10.37
-3 9 -2 83.88 7.01
-3 -9 -2 53.55 4.87
-3 9 -1 200 11.11
-3 -9 -1 182.85 11.51
-3 9 0 30.74 4.65
-3 -9 0 4.35 3.82
-3 -7 -13 111.9 9.87
-3 -7 -12 -4.27 5.12
-3 -7 -11 32.96 4.89
-3 -7 -10 42.61 4.88
-3 -7 -9 24 5.5
-3 -7 -8 35.76 5.07
-3 -7 -7 129.99 8.14
-3 -7 -6 12.32 4.95
-3 -7 -5 440.54 17.63
-3 -7 -4 124.05 7.41
-3 7 -3 76.73 5.37
-3 -7 -3 72.74 5.5
-3 7 -2 18.41 4.33
-3 -7 -2 23.59 3.81
-3 7 -1 571.3 21.47
-3 -7 -1 543.44 20.52
-3 7 0 59.78 5.21
-3 -7 0 62.33 5.54
-3 -5 -16 29.25 4.76
-3 -5 -15 36.86 4.55
-3 -5 -14 87.93 7.38
-3 -5 -13 162.97 9.27
-3 -5 -12 65.48 5.21
-3 -5 -11 209.13 9.59
-3 -5 -10 16.7 3.45
-3 -5 -9 490.45 19.21
-3 -5 -8 183.36 9.49
-3 -5 -7 34.48 3.75
-3 -5 -6 297.74 11.94
-3 -5 -5 231.71 10.62
-3 -5 -4 477.72 16.68
-3 5 -3 527.37 18.1
-3 -5 -3 518.42 18.94
-3 5 -2 652.75 24.15
-3 5 -2 660.78 23.53
-3 -5 -2 659.57 23.29
-3 5 -1 96.79 4.99
-3 5 -1 97.41 5.09
-3 -5 -1 141.79 6.77
-3 5 0 129.75 6.82
-3 5 0 173.37 7.64
-3 -5 0 151.51 7.01
-3 -3 -17 22.61 4.78
-3 -3 -16 267.37 15
-3 -3 -15 65.13 6
-3 3 -14 173.18 7.76
-3 -3 -14 169.74 9.51
-3 3 -13 9.02 1.26
-3 -3 -13 11.69 2.79
-3 3 -12 393.19 14.34
-3 -3 -12 352.84 14.05
-3 3 -11 38.93 2.31
-3 -3 -11 50.81 4.42
-3 3 -10 160.8 6.55
-3 -3 -10 133.37 7.03
-3 3 -9 5.88 1.16
-3 -3 -9 -4.62 2.58
-3 3 -8 37.6 2.11
-3 -3 -8 55.87 4.95
-3 3 -7 182.07 6.69
-3 -3 -7 181.42 8.11
-3 3 -6 232.35 8.09
-3 -3 -6 209.9 8.65
-3 3 -5 89.39 3.72
-3 -3 -5 99.49 4.53
-3 3 -4 1181.92 38.17
-3 -3 -4 995.89 35.33
-3 3 -3 192.07 6.86
-3 3 -3 176.79 6.9
-3 -3 -3 193.32 8.11
-3 3 -2 3011.84 98.55
-3 3 -2 3182.54 93.53
-3 -3 -2 2943.58 97.95
-3 -3 -2 2926.12 92.2
-3 3 -1 257.59 10.69
-3 3 -1 322.04 11.28
-3 -3 -1 307.98 11.72
-3 -3 -1 310.54 10.64
-3 3 0 822.41 29.32
-3 3 0 974.73 29.51
-3 3 0 914.91 28.72
-3 -3 0 928.32 30.46
-3 -3 0 882.95 27.79
-3 -1 -18 105.73 7.15
-3 1 -17 27.69 3.03
-3 -1 -17 38.75 3.49
-3 1 -16 330.15 13.94
-3 -1 -16 277.14 13.33
-3 1 -15 79.41 4.45
-3 -1 -15 87.86 5.62
-3 1 -14 307.66 12.64
-3 -1 -14 326.26 12.97
-3 1 -13 59.32 3.94
-3 -1 -13 71.68 4.64
-3 1 -12 109.9 4.92
-3 -1 -12 120.33 5.82
-3 1 -11 16.92 2.1
-3 -1 -11 15.91 3.25
-3 1 -10 54.22 3.59
-3 -1 -10 63.48 4.62
-3 1 -9 184 6.83
-3 -1 -9 205.61 7.63
-3 1 -8 636.89 21.82
-3 1 -8 658.24 24.24
-3 -1 -8 634.36 21.66
-3 1 -7 113.08 4.88
-3 1 -7 106.62 4.83
-3 -1 -7 117.69 5.28
-3 1 -6 606.88 20.73
-3 1 -6 624.9 21.54
-3 -1 -6 640.73 22.21
-3 -1 -6 594.57 21.79
-3 1 -5 633.63 22.07
-3 1 -5 650.35 22.48
-3 -1 -5 624.54 22.63
-3 -1 -5 654.78 22.49
-3 1 -4 1983.95 62.29
-3 1 -4 1871.24 64.06
-3 -1 -4 1957.95 63.24
-3 -1 -4 1942.52 61.76
-3 1 -3 682.31 21.49
-3 1 -3 632.44 21.69
-3 -1 -3 681.91 22.88
-3 -1 -3 667.79 22.1
-3 1 -2 4238.51 135.42
-3 -1 -2 4172.36 131.42
-3 -1 -2 4303.6 126.78
-3 1 -1 769.96 26.64
-3 -1 -1 857.22 27.84
-3 -1 -1 801.08 27.14
-3 1 0 1924.64 59.41
-3 -1 0 1631.39 57.97
-3 -1 0 1839.74 56.42
-3 -1 0 1892.1 53.77
-3 1 1 646.1 23.96
-3 1 1 760.85 23.66
-3 1 1 728.09 24
-3 -1 1 715.71 25.03
-3 1 2 5229.72 172.74
-3 1 2 5955.96 174.43
-3 1 2 5587.85 178.34
-3 1 3 54.31 2.79
-3 1 3 59.5 2.92
-3 1 3 73.99 3.64
-3 -1 3 64.89 2.54
-3 1 4 543.74 17.76
-3 1 4 562.09 18.43
-3 -1 4 610.18 17.65
-3 1 5 1321.01 42.34
-3 1 5 1334.01 44.16
-3 1 6 348.45 12.41
-3 1 6 369.03 13
-3 -1 6 328.89 10.87
-3 -1 6 335.65 11.83
-3 1 7 26.86 2.02
-3 1 7 28.82 2.9
-3 -1 7 30.81 1.46
-3 -1 7 26.52 2.33
-3 1 8 499.6 18.04
-3 -1 8 472.85 16.04
-3 -1 8 497.64 17.36
-3 1 9 -0.64 2.35
-3 -1 9 4.59 0.94
-3 -1 9 6.17 2.02
-3 1 10 1306.95 41.97
-3 -1 10 1215.74 41.13
-3 -1 10 1225.3 41.56
-3 1 11 15.76 4.15
-3 -1 11 8.36 2.43
-3 1 12 937.73 33.63
-3 -1 12 924.74 33.65
-3 1 13 161.26 8.39
-3 -1 13 146.89 7.79
-3 1 14 226.64 11.12
-3 -1 14 218.82 10.9
-3 1 15 38.27 4.41
-3 -1 15 46.33 4.68
-3 1 16 275.16 13.23
-3 -1 16 315.35 12.91
-3 1 17 56.74 5.1
-3 -1 17 74.86 5.27
-3 -1 18 34.65 5.14
-3 1 19 70.36 7.53
-3 -1 19 61.16 5.75
-3 1 20 158.87 11.11
-3 -1 20 132.74 10.27
-3 3 1 229.53 8.96
-3 3 1 243.67 8.55
-3 -3 1 257.26 9.59
-3 -3 1 244.55 8.77
-3 3 2 960.83 35.3
-3 3 2 1150.17 34.77
-3 -3 2 1179.75 37.74
-3 -3 2 1148.24 36.15
-3 3 3 260.56 10.42
-3 3 3 300.6 10.76
-3 -3 3 284.94 10.36
-3 -3 3 294.67 10.1
-3 3 4 171.22 7.47
-3 3 4 174.1 6.79
-3 -3 4 172.24 7.04
-3 -3 4 185.5 7.81
-3 3 5 374.03 14.25
-3 -3 5 358.25 13.33
-3 -3 5 398.6 13.17
-3 3 6 1464.54 47.81
-3 -3 6 1467.34 46.85
-3 -3 6 1547.92 46.62
-3 3 7 57.05 4.75
-3 3 8 436.75 15.26
-3 3 9 639.85 23.6
-3 3 10 105.45 6.29
-3 -3 10 82.54 4.59
-3 3 11 437.17 16.07
-3 -3 11 411.3 15.62
-3 3 12 439.1 18.32
-3 -3 12 385 16.29
-3 3 13 65.69 6.23
-3 -3 13 69.57 4.64
-3 3 14 312.82 14.32
-3 -3 14 320.37 13.03
-3 3 15 33 5.49
-3 -3 15 19.11 3.89
-3 3 16 219.13 10.9
-3 -3 16 239.08 10.64
-3 3 17 36.63 5.88
-3 -3 17 15.67 3.24
-3 3 18 210.71 13.96
-3 -3 18 185.96 10.78
-3 3 19 11.76 4.37
-3 -3 19 25.18 3.44
-3 5 1 111.55 5.88
-3 5 1 109.12 6.03
-3 -5 1 97.94 5.07
-3 5 2 403.67 15.1
-3 -5 2 372.26 14.25
-3 5 3 550.58 19.46
-3 -5 3 566.4 20.41
-3 5 4 81.52 4.54
-3 -5 4 77.18 3.9
-3 5 5 318.77 11.93
-3 -5 5 319.72 12.71
-3 -5 6 257.77 9.63
-3 5 7 443.26 16.61
-3 -5 7 400.7 15.36
-3 5 8 58.86 6.62
-3 -5 8 95.8 4.03
-3 -5 8 81.14 3.92
-3 5 9 370.08 15.43
-3 5 10 136.46 8.53
-3 5 11 188.59 9
-3 5 12 295.64 13.81
-3 -5 12 299.72 13.6
-3 -5 13 398.95 17.57
-3 5 14 86.03 8.03
-3 -5 14 56.58 5.02
-3 5 15 190.74 10.9
-3 -5 15 226.3 10.78
-3 5 16 -0.73 5.02
-3 -5 16 7.91 2.57
-3 5 17 76.98 7.24
-3 -5 17 66.7 5.67
-3 5 18 24.28 5.55
-3 7 1 634.46 24.24
-3 -7 1 572.59 23.22
-3 7 2 202.95 9.67
-3 -7 2 213.46 10.04
-3 7 3 242.09 10.01
-3 -7 3 200.09 9.62
-3 7 4 2.11 3.32
-3 -7 4 17.43 2.78
-3 -7 5 101.42 5.81
-3 7 7 132.38 7.33
-3 7 8 26.66 4.35
-3 7 9 237.97 11.57
-3 7 10 123.77 8.76
-3 7 11 270.45 11.93
-3 7 12 46.86 7.04
-3 7 13 168.74 11.08
-3 -7 13 143.67 8.92
-3 7 14 39.59 6.06
-3 7 15 47.46 6.49
-3 9 1 76.54 5.65
-3 9 2 9.76 6.01
-3 9 3 66.66 6.56
-3 9 3 75.79 6.92
-3 9 4 91.35 7.04
-3 9 5 190.27 11.08
-3 9 6 6.22 3.77
-3 9 7 133.79 9.26
-3 9 8 16.22 4.8
-3 9 9 254.47 14.55
-3 9 10 13.97 4.79
-2 -10 -4 2.1 4.84
-2 10 -1 70.91 7
-2 10 0 1.69 3.08
-2 -8 -12 28.78 5.49
-2 -8 -11 111.62 8.74
-2 -8 -10 20.75 4.72
-2 -8 -9 21.76 5.02
-2 -8 -8 17.97 3.87
-2 -8 -7 146.69 9.85
-2 -8 -6 12.76 3.87
-2 -8 -5 150.18 9.05
-2 -8 -4 71.8 5.16
-2 8 -3 243.77 12.15
-2 -8 -3 226.43 11.35
-2 8 -2 97.25 6.36
-2 -8 -2 85.96 6.68
-2 8 -1 314.7 14.51
-2 -8 -1 292.52 13.59
-2 8 0 21.8 4.03
-2 -8 0 20.72 3.83
-2 -6 -15 23.49 3.99
-2 -6 -14 120.98 8.66
-2 -6 -13 118.41 8.85
-2 -6 -12 21.23 5.68
-2 -6 -11 236.58 11.74
-2 -6 -10 210.04 10.94
-2 -6 -9 115.88 7.9
-2 -6 -8 138.02 8.2
-2 -6 -7 273.12 12.78
-2 -6 -6 229.19 10.43
-2 -6 -5 323.15 12.37
-2 -6 -4 212.22 9.79
-2 6 -3 452.84 18.1
-2 6 -3 461.11 16.97
-2 -6 -3 485.16 18.18
-2 6 -2 41.61 3.07
-2 6 -2 53.97 3.92
-2 -6 -2 60.18 4.79
-2 6 -1 102.07 5.45
-2 6 -1 98.51 5.29
-2 -6 -1 87.43 5.02
-2 6 0 440.65 17.32
-2 6 0 446 15.29
-2 -6 0 408.86 14.69
-2 -4 -17 100.67 8.3
-2 -4 -16 140.27 8.78
-2 -4 -15 62.65 6.26
-2 -4 -14 221.4 10.81
-2 -4 -13 209.66 10.58
-2 -4 -12 234.18 10.6
-2 -4 -11 118.71 7.28
-2 4 -10 213.28 7.9
-2 -4 -10 170.37 8.7
-2 4 -9 38.25 2.01
-2 -4 -9 35.38 4.64
-2 4 -8 74.15 3.4
-2 -4 -8 67.46 5.08
-2 4 -7 12.35 1.58
-2 -4 -7 5.27 3.98
-2 4 -6 361.99 11.89
-2 -4 -6 318.03 12.24
-2 4 -5 260.61 9.18
-2 -4 -5 261.55 10.49
-2 -4 -4 349.39 12.67
-2 4 -3 488.02 17.81
-2 4 -3 534.34 18.11
-2 -4 -3 476.97 17.54
-2 4 -2 1170.52 38.65
-2 4 -2 1266.92 36.95
-2 -4 -2 1183.83 39.02
-2 4 -1 691.28 24.31
-2 -4 -1 700.34 24.25
-2 4 0 192.2 8.44
-2 4 0 212.79 8.62
-2 -4 0 218.74 9.12
-2 -2 -18 81.27 6.68
-2 -2 -17 47.85 4.86
-2 -2 -16 141.61 7.92
-2 2 -15 61.41 3.75
-2 -2 -15 72.18 4.9
-2 2 -14 363.92 14.96
-2 -2 -14 353.11 14.97
-2 2 -13 91.88 3.83
-2 -2 -13 107.54 6.41
-2 2 -12 242.28 8.7
-2 -2 -12 233.32 10.21
-2 2 -11 44.88 2.81
-2 -2 -11 38.81 4.26
-2 2 -10 563.92 19.27
-2 -2 -10 611.91 21.51
-2 -2 -9 248.56 9.49
-2 2 -9 222.44 7.92
-2 2 -8 361.27 12.08
-2 -2 -8 390.74 12.99
-2 2 -7 596.61 19.68
-2 -2 -7 617.93 20.27
-2 2 -6 516.56 16.89
-2 -2 -6 501.31 17.12
-2 2 -5 96.17 3.85
-2 -2 -5 76.26 4.94
-2 -2 -5 83.01 4.39
-2 2 -4 890.41 26.99
-2 -2 -4 896.45 30.85
-2 -2 -4 809.59 28.65
-2 2 -3 708.11 23.44
-2 -2 -3 707.93 24.26
-2 -2 -3 694.85 22.52
-2 2 -2 1511.46 48.53
-2 2 -2 1532.72 46.24
-2 -2 -2 1466.14 48.04
-2 -2 -2 1499.09 46.53
-2 2 -1 323.31 12.7
-2 2 -1 362.3 12.58
-2 -2 -1 379.01 13.28
-2 -2 -1 402.91 13.56
-2 2 0 1154.11 39.27
-2 2 0 1204.52 38.41
-2 2 0 1188.88 37.93
-2 -2 0 1177.58 39.45
-2 -2 0 1165.87 37.21
-2 0 -19 2.85 2.12
-2 0 -18 190.68 10.56
-2 0 -17 -5.39 2.33
-2 0 -16 839.03 33.49
-2 0 -15 2.42 2.42
-2 0 -14 519.03 19.17
-2 0 -13 -3.57 2.2
-2 0 -12 236.25 9.5
-2 0 -11 -2.19 2.09
-2 0 -10 369.34 13.2
-2 0 -9 0.31 1.15
-2 0 -8 207.03 8.06
-2 0 -8 212.52 9.89
-2 0 -7 6.99 1.46
-2 0 -7 0.65 1.3
-2 0 -6 355.9 11.77
-2 0 -6 359.17 12.52
-2 0 -5 2.31 1.78
-2 0 -5 1.07 1.39
-2 0 -4 3262.97 103.24
-2 0 -4 3298.46 103.95
-2 0 -3 -0.85 1.49
-2 0 -3 -3.04 1.05
-2 0 -2 111.5 3.82
-2 0 -1 -0.97 0.75
-2 0 2 0.96 1.07
-2 0 3 -5.78 1.86
-2 0 3 5.53 0.92
-2 0 4 1913.77 62.06
-2 0 4 1989.28 66.39
-2 0 5 -0.32 1.27
-2 0 5 3.49 1.86
-2 0 6 440.39 16.31
-2 0 6 498.02 16.51
-2 0 7 0.32 1.18
-2 0 7 8.55 2.17
-2 0 8 150.4 6.74
-2 0 8 173.4 6.95
-2 0 9 6.54 3
-2 0 10 1163.08 40.22
-2 0 12 472.5 17.48
-2 0 14 256.95 11.37
-2 0 15 17.8 4.79
-2 0 16 107.66 7.48
-2 0 17 5.78 4.64
-2 0 18 272.83 12.72
-2 0 19 -3.49 4.72
-2 0 20 153.25 11.17
-2 2 1 516.6 18.87
-2 2 1 533.31 18.75
-2 2 1 542.67 18.13
-2 -2 1 555.39 19.93
-2 -2 1 580.54 19.55
-2 2 2 321.68 11.51
-2 -2 2 297.87 11.37
-2 -2 2 333.01 10.83
-2 2 2 320.13 11.01
-2 2 3 364.83 13.03
-2 2 3 373.97 13.04
-2 -2 3 345.91 12.36
-2 -2 3 377.62 12.26
-2 2 4 438.21 16.77
-2 2 4 530.64 16.99
-2 -2 4 539.06 17.85
-2 -2 4 575.39 17.75
-2 2 5 263.4 10.31
-2 2 5 308.27 10.55
-2 2 6 333.66 14.22
-2 2 6 377.59 12.91
-2 2 7 34.52 3.55
-2 -2 7 26.21 2.37
-2 2 8 1632.56 54.61
-2 -2 8 1525.56 51.65
-2 2 9 350.08 13.66
-2 -2 9 371.09 13.11
-2 2 10 1060.29 38.79
-2 -2 10 1001.34 32.02
-2 -2 10 989.25 34.89
-2 2 11 266.01 11.05
-2 -2 11 235.77 8.4
-2 -2 11 247.79 9.53
-2 2 12 579.87 21
-2 -2 12 514.42 17.45
-2 -2 12 529.39 18.84
-2 2 13 27.24 5.7
-2 -2 13 38.12 3.67
-2 2 14 418.28 16.27
-2 -2 14 377.05 14.49
-2 2 15 110.89 6.86
-2 -2 15 104.15 5.73
-2 2 16 82.65 6.93
-2 -2 16 70.03 4.67
-2 2 17 46.22 6.37
-2 -2 17 38.64 4.86
-2 2 18 47.88 4.79
-2 -2 18 37.43 4.23
-2 2 19 36.6 5.48
-2 -2 19 35.85 4.84
-2 4 1 494.86 18.29
-2 4 1 525.03 17.36
-2 -4 1 495.77 18.33
-2 -4 2 220.13 8.63
-2 -4 2 228.89 9.34
-2 4 2 255.89 9.02
-2 4 2 214.33 9.88
-2 4 3 350.73 11.77
-2 -4 3 287.56 11.27
-2 -4 3 315.34 12.33
-2 -4 3 297.54 12.75
-2 4 4 469.38 16.56
-2 -4 4 468.39 16.6
-2 -4 4 463.34 16.36
-2 -4 4 485.52 16.84
-2 4 5 430 14.99
-2 -4 5 431.87 15.5
-2 -4 5 428.1 15.48
-2 4 6 354.99 12.68
-2 -4 6 375.26 13.43
-2 -4 6 339.72 12.18
-2 4 7 342.42 13.42
-2 -4 7 344.19 12.96
-2 -4 7 352.64 12.28
-2 4 8 319.34 12.65
-2 4 9 21.56 3.8
-2 4 10 116.38 6.52
-2 -4 10 118.39 6.28
-2 -4 11 159.73 7.41
-2 4 11 191.97 10.09
-2 4 12 232.85 11.71
-2 -4 12 252.13 10.66
-2 4 13 273.88 13.33
-2 -4 13 280.05 11.24
-2 4 14 450.6 17.94
-2 -4 14 459.3 19.48
-2 4 15 220.31 11.49
-2 -4 15 195.16 10.02
-2 4 16 50.44 5.77
-2 -4 16 77.31 6.04
-2 4 17 178.6 11.46
-2 -4 17 137.62 9
-2 4 18 55.18 6.07
-2 -4 18 42.7 4.53
-2 6 1 225.99 9.05
-2 -6 1 260.35 10.59
-2 6 2 182.48 8.88
-2 -6 2 192.06 7.6
-2 6 3 10.52 4.11
-2 6 4 15.7 4
-2 -6 4 13.86 2.37
-2 6 5 70.46 4.53
-2 -6 5 61.81 3.67
-2 6 6 103.1 6.46
-2 -6 6 84.65 4.64
-2 -6 7 180.03 8.17
-2 6 7 200.48 10.14
-2 6 8 161.49 9.83
-2 6 9 382.15 15.54
-2 6 10 143.52 8.46
-2 6 11 482.98 19.32
-2 6 12 165.51 10.06
-2 -6 12 169.53 8.93
-2 6 13 382.65 17.16
-2 -6 13 318.95 14.02
-2 6 14 21.96 4.74
-2 -6 14 18.72 3.32
-2 6 15 191.57 12.04
-2 6 16 65.82 7.9
-2 8 1 743.72 28.34
-2 -8 1 657.88 26.7
-2 8 2 33.99 4.66
-2 8 2 55.56 4.92
-2 -8 2 33.09 3.32
-2 8 3 295.28 12.83
-2 8 4 12.78 3.15
-2 8 5 50.04 4.47
-2 8 6 15.55 4.14
-2 8 7 48.16 5.16
-2 8 8 48.08 5.07
-2 8 9 228.81 12.46
-2 8 10 34.39 6.68
-2 8 11 185.21 12.83
-2 8 12 30.84 6.7
-2 8 13 42 6.41
-2 10 1 2.08 3.57
-2 10 2 11.67 4.15
-2 10 3 61.16 6.44
-2 10 4 12.15 3.85
-2 10 5 128.93 10.5
-2 10 5 110.18 9.52
-1 -9 -9 146.38 9.39
-1 -9 -8 55.43 7.08
-1 -9 -7 193.17 12.24
-1 -9 -6 11.69 4.59
-1 -9 -5 186.39 11.68
-1 -9 -4 32.23 4.94
-1 -9 -3 186.6 10.4
-1 9 -2 4.47 3.68
-1 -9 -2 -5.92 4.02
-1 9 -1 104.67 6.86
-1 -9 -1 91.74 7.03
-1 9 0 2.76 3.85
-1 -9 0 24.99 3.83
-1 -7 -14 40.34 5.24
-1 -7 -13 114.06 8.86
-1 -7 -12 42.22 5.1
-1 -7 -11 131.13 9.02
-1 -7 -10 90.59 7.5
-1 -7 -9 129.53 9.28
-1 -7 -8 32.57 4
-1 -7 -7 50.7 5.57
-1 -7 -6 51.65 5.46
-1 -7 -5 306.37 13.96
-1 -7 -4 57.67 5.9
-1 7 -3 239.8 10.45
-1 -7 -3 174.07 8.81
-1 7 -2 19.31 3.43
-1 -7 -2 16.82 4.02
-1 7 -1 713.54 26.1
-1 -7 -1 709.72 26.34
-1 7 0 402.81 16.25
-1 -7 0 392.25 15.1
-1 -5 -17 47.4 6.25
-1 -5 -16 62.76 6.69
-1 -5 -15 112.28 7.92
-1 -5 -14 83.32 5.86
-1 -5 -13 244.5 12.41
-1 -5 -12 56.95 4.97
-1 -5 -11 302.99 13.89
-1 -5 -10 64.62 4.84
-1 -5 -9 230.36 10.47
-1 -5 -8 335.28 14.64
-1 -5 -7 74.85 5.67
-1 -5 -6 324.57 11.61
-1 -5 -5 436.99 15.36
-1 5 -4 498.06 18.7
-1 -5 -4 473.47 17.29
-1 5 -3 291.82 11.88
-1 5 -3 356.76 11.93
-1 -5 -3 322.23 11.61
-1 5 -2 253.15 11.14
-1 5 -2 307.44 11.26
-1 -5 -2 291.5 12.04
-1 5 -1 573.32 20.88
-1 5 -1 594.01 19.9
-1 -5 -1 568.51 19.25
-1 5 0 82.47 4.72
-1 5 0 106.93 5.17
-1 -5 0 114.81 5.81
-1 -3 -18 194.02 12.36
-1 -3 -17 34.84 4.37
-1 -3 -16 176.68 9.2
-1 -3 -15 108.16 6.9
-1 -3 -14 552.62 21.76
-1 3 -13 206.5 7.17
-1 -3 -13 195.79 8.82
-1 3 -12 1246.88 40.59
-1 -3 -12 1209.66 41.52
-1 3 -11 134.04 4.88
-1 -3 -11 119.51 6.62
-1 3 -10 143.13 5.11
-1 -3 -10 146.51 7.39
-1 3 -9 188.29 6.51
-1 -3 -9 153.87 7.93
-1 3 -8 299.25 9.83
-1 -3 -8 315.68 11.16
-1 3 -7 271.02 8.85
-1 -3 -7 232.34 9.59
-1 3 -6 315.79 10.1
-1 -3 -6 269.43 10.68
-1 3 -5 505.24 17.04
-1 -3 -5 462.42 17.25
-1 3 -4 2206.24 67.46
-1 -3 -4 2038.11 68.09
-1 3 -3 1565.06 45.81
-1 -3 -3 1514.61 51.47
-1 -3 -3 1450.5 48.01
-1 3 -3 1351.28 47.57
-1 3 -2 1875.61 55.66
-1 -3 -2 1705.67 59.69
-1 -3 -2 1696.16 54.03
-1 3 -2 1672.34 58.34
-1 3 -1 215.33 8
-1 -3 -1 206.26 8.41
-1 -3 -1 206.06 7.81
-1 3 0 1122.65 37.35
-1 3 0 1100.05 35.49
-1 -3 0 1100.73 37.8
-1 -3 0 1095.49 35.48
-1 -1 -19 12 2.72
-1 -1 -18 90.45 6.18
-1 1 -17 76.73 4.42
-1 -1 -17 73.4 5.62
-1 1 -16 353.42 14.54
-1 -1 -16 341.55 14.48
-1 1 -15 101.57 5.02
-1 -1 -15 106.33 5.85
-1 1 -14 341.62 13.87
-1 -1 -14 327.79 13.28
-1 1 -13 29.56 2.24
-1 -1 -13 44.8 3.16
-1 1 -12 480.92 17.91
-1 -1 -12 483.56 17.72
-1 1 -11 316.64 11.82
-1 -1 -11 315.67 11.51
-1 1 -10 1162.02 39.1
-1 -1 -10 1202.49 40.4
-1 1 -9 88.57 3.53
-1 -1 -9 76.12 4.55
-1 1 -8 969.88 33.46
-1 1 -8 979.24 36.16
-1 -1 -8 951.23 32.45
-1 1 -7 451.86 15.5
-1 1 -7 435.35 15.71
-1 -1 -7 448.17 15.55
-1 -1 -7 414.69 17.41
-1 1 -6 1040.73 34.06
-1 1 -6 1016.12 33.91
-1 -1 -6 1073.78 35.24
-1 -1 -6 1017.7 36.49
-1 1 -5 691.76 23.3
-1 -1 -5 711.31 24.6
-1 -1 -5 717.62 23.28
-1 1 -4 2724.15 85.48
-1 -1 -4 2870.3 88.02
-1 -1 -4 2687.23 85.81
-1 1 -3 1518.14 48.13
-1 -1 -3 1564.1 50.23
-1 -1 -3 1540.35 48.7
-1 1 -2 2488.44 74.66
-1 -1 -2 2665.9 85.94
-1 -1 -2 2565.69 81.47
-1 1 -1 254.78 8.51
-1 1 -1 259.57 8.34
-1 -1 -1 279.61 7.44
-1 1 0 1522.74 53.14
-1 1 0 2001.76 53.9
-1 -1 0 32.62 2.38
-1 1 1 615.08 24.86
-1 -1 1 18.68 1.73
-1 -1 1 12.19 1.76
-1 1 2 1319.39 44.86
-1 1 2 1386.14 42.76
-1 -1 2 1367.44 43.81
-1 1 3 907.57 31.67
-1 1 3 987.69 30.63
-1 1 4 138.02 5.61
-1 1 4 153.77 5.5
-1 -1 4 122.54 3.92
-1 1 5 71.01 3.4
-1 1 5 69.55 3.9
-1 -1 5 83.27 3.11
-1 -1 5 81.04 3.73
-1 1 6 34.01 2.4
-1 1 6 34.36 2.64
-1 -1 6 28.23 1.32
-1 -1 6 25.38 2.15
-1 1 7 15.32 1.52
-1 1 7 10.68 2.33
-1 -1 7 12.53 1.09
-1 -1 7 12.46 2.15
-1 1 8 175.38 7.05
-1 -1 8 167.32 6.32
-1 -1 8 155.29 6.69
-1 -1 9 23.48 2.46
-1 1 9 23.84 3.5
-1 -1 9 23.45 1.64
-1 1 10 521.87 18.4
-1 -1 10 499.1 18.21
-1 1 11 21.05 3.07
-1 -1 11 20.17 2.64
-1 1 12 614.01 22.59
-1 -1 12 642.47 22.9
-1 1 13 82.18 6.43
-1 -1 13 109.49 6.81
-1 -1 14 371.9 14.77
-1 1 14 311.53 13.52
-1 1 15 23.39 5.01
-1 -1 15 6.52 2.8
-1 1 16 208.1 10.98
-1 -1 16 212.04 11.18
-1 1 17 50.95 6.01
-1 -1 17 104.57 6.7
-1 1 18 166.73 10.45
-1 -1 18 186.8 10.8
-1 1 19 27.63 5.34
-1 -1 19 16.08 4.61
-1 3 1 263.51 10.39
-1 3 1 308.68 10.04
-1 -3 1 314.86 11.53
-1 -3 1 294.33 9.75
-1 3 2 941.15 33.88
-1 3 2 977.48 31.12
-1 -3 2 957.18 33.06
-1 -3 2 1046.71 32.81
-1 -3 2 940.62 30.19
-1 3 3 32.51 2.81
-1 3 3 31.16 3.21
-1 -3 3 26.5 1.85
-1 -3 3 43.43 2.03
-1 -3 3 24.98 2.05
-1 3 4 1205.31 45.02
-1 3 4 1433.51 42.54
-1 -3 4 1415.19 49.29
-1 -3 4 1509.67 47.17
-1 -3 4 1486.39 47.03
-1 3 5 540.7 18.86
-1 -3 5 509.08 17.94
-1 -3 5 529.37 17.34
-1 -3 5 569.18 19.16
-1 3 6 188.85 7.6
-1 -3 6 204.34 7
-1 -3 6 207.91 6.71
-1 3 7 117.57 5.56
-1 -3 7 103.95 3.62
-1 -3 7 99.85 3.43
-1 -3 8 278.99 10.3
-1 3 8 320.85 12.55
-1 3 9 179.05 8.22
-1 -3 9 188.08 7.66
-1 3 10 37.76 5.83
-1 -3 10 25.85 2.94
-1 3 11 52.21 6.06
-1 -3 11 35.42 3.59
-1 3 12 271.67 13.68
-1 -3 12 265.57 11.13
-1 3 13 118.97 7.89
-1 -3 13 78.91 4.64
-1 3 14 440.87 17.48
-1 -3 14 365.63 16.03
-1 3 15 47.2 5.98
-1 -3 15 37.73 4.29
-1 3 16 300.61 15.69
-1 -3 16 295.93 13.62
-1 3 17 23.39 4.7
-1 -3 17 29.1 3.23
-1 3 18 110.56 9.28
-1 -3 18 78.44 7.69
-1 3 19 15.53 4.97
-1 5 1 137.23 6.36
-1 5 1 135.11 5.71
-1 -5 1 117.13 5.73
-1 5 2 129.05 5.95
-1 -5 2 130.88 5.75
-1 5 3 185.16 7.55
-1 -5 3 170.56 6.55
-1 5 4 141.44 6.43
-1 -5 4 148.88 6.23
-1 5 5 317.7 12.52
-1 -5 5 329.11 12.41
-1 5 6 238.04 10.01
-1 -5 6 236.71 8.9
-1 5 7 153.22 7.49
-1 -5 7 126.25 5.34
-1 5 8 425.62 16.6
-1 -5 8 380.7 14.98
-1 5 9 365.88 15.92
-1 5 10 239.92 10.15
-1 5 11 405.5 17.51
-1 -5 11 395.43 15.91
-1 5 12 146.6 9.18
-1 -5 12 125.67 6.53
-1 5 13 253.16 11.95
-1 -5 13 287.44 12.53
-1 5 14 140.95 9.36
-1 -5 14 120.04 7.11
-1 5 15 177.23 10.54
-1 -5 15 158.42 9.15
-1 5 16 187.53 12.96
-1 5 17 1.56 6.15
-1 7 1 942.18 33.7
-1 7 1 935.14 32.24
-1 -7 1 868.13 30.92
-1 7 2 218.19 9.82
-1 -7 2 199.76 9.94
-1 7 3 181.3 8.69
-1 -7 3 146.79 7.68
-1 7 4 24.2 4.62
-1 -7 4 25.34 2.9
-1 7 5 174.51 8.52
-1 -7 5 158.82 7.27
-1 7 6 12.63 3.31
-1 7 7 89.67 5.95
-1 7 8 17.68 4.42
-1 7 9 78.77 6.16
-1 7 10 76.93 7.78
-1 7 11 167.02 9.76
-1 7 12 84.2 8.94
-1 7 14 -6.65 4.4
-1 9 1 16.74 6.11
-1 9 2 17.22 5.41
-1 9 3 34.33 6.59
-1 9 4 20.68 3.79
-1 9 4 15.36 5.32
-1 9 5 33.14 3.99
-1 9 6 66.94 6.33
-1 9 7 110.54 8.48
-1 9 8 34.82 4.98
-1 9 9 351.43 19.18
-1 9 10 2.43 6.49
0 -10 -5 147.63 10.75
0 -10 -4 12.64 3.37
0 -8 -12 18.48 5.88
0 -8 -11 169 11.34
0 -8 -10 4.18 3.97
0 -8 -9 155.28 9.32
0 -8 -8 2.71 4.8
0 -8 -7 146.76 9.43
0 -8 -6 1.57 4.81
0 -8 -5 39.19 4.09
0 -8 -4 34.05 4.94
0 -8 -3 208.52 10.21
0 8 -2 54.5 6.02
0 -8 -2 22.65 4.55
0 8 -1 471.22 18.58
0 -8 -1 385.89 15.92
0 -8 0 47.54 4.38
0 -6 -16 65.7 7.43
0 -6 -15 38.41 5.69
0 -6 -14 66.11 7.09
0 -6 -13 122.9 9.24
0 -6 -12 58.49 6.95
0 -6 -11 417.77 17.01
0 -6 -10 52.48 5.21
0 -6 -9 473.46 19.13
0 -6 -8 42.75 4.34
0 -6 -7 386.4 16.37
0 -6 -6 197.3 8.92
0 6 -5 241.9 10.26
0 -6 -5 265.14 10.53
0 6 -4 39.82 2.64
0 -6 -4 38.7 3.92
0 6 -3 193.25 8.37
0 6 -3 215.47 8.58
0 -6 -3 187.22 8.95
0 6 -2 126.7 7.06
0 6 -2 180.93 7.26
0 -6 -2 128.21 6.19
0 6 -1 73.94 5.03
0 6 -1 82.59 4.58
0 -6 -1 78.54 4.17
0 -6 0 772.61 27.68
0 -4 -18 74.54 6.65
0 -4 -17 14.23 3.43
0 -4 -16 135.67 8.98
0 -4 -15 246.48 12.1
0 -4 -14 367.54 14.82
0 -4 -13 342.68 14.99
0 -4 -12 37.88 4.65
0 -4 -11 240.93 10.27
0 -4 -10 122.49 6.41
0 -4 -9 13.37 2.7
0 -4 -8 44.5 4.32
0 -4 -7 73.51 5.07
0 -4 -6 14.4 3.66
0 -4 -5 202.56 8.32
0 -4 -4 1908.43 61.53
0 4 -4 1750.27 59.39
0 4 -3 726.99 26.33
0 4 -3 796.68 25.01
0 -4 -3 763.47 27.6
0 4 -2 1653.31 50.31
0 -4 -2 1691.25 54.43
0 4 -2 1582.65 54.99
0 4 -1 664.5 22.76
0 4 -1 697.09 21.42
0 -4 -1 716.49 24.32
0 -4 -1 608.16 21.65
0 -4 0 2325.61 75.77
0 -4 0 2118.46 70.8
0 -2 -19 26.99 4.1
0 -2 -18 29.49 3.38
0 -2 -17 39.05 4.55
0 -2 -16 156.22 8.16
0 2 -15 31.98 2.24
0 -2 -15 40.75 3.72
0 2 -14 533 20.12
0 -2 -14 446.34 17.87
0 2 -13 87.86 3.92
0 -2 -13 68.76 4.39
0 2 -12 355.31 12.91
0 -2 -12 365.6 14
0 2 -11 213.89 7.57
0 -2 -11 217.32 9.42
0 2 -10 451.63 15.91
0 -2 -10 458.46 16.36
0 2 -9 467.4 14.98
0 -2 -9 448.92 16.17
0 2 -8 966.46 31.22
0 -2 -8 1028 34.14
0 2 -7 761.69 23.55
0 -2 -7 714 24.51
0 2 -6 1227.26 39.22
0 -2 -6 1247.18 41.24
0 2 -5 54.32 2.11
0 -2 -5 53.91 3.82
0 -2 -5 48.96 3.08
0 2 -4 3664.01 108.97
0 -2 -4 3633.84 121.17
0 -2 -4 3528.81 112.74
0 2 -3 618.45 18.93
0 -2 -3 519.46 20.6
0 -2 -3 582.08 18.72
0 -2 -2 1394.44 46.82
0 -2 -2 1357.19 42.47
0 2 -2 1276.23 43.94
0 2 -2 1395.41 41.73
0 2 -1 448.64 15.34
0 2 -1 453.62 14.57
0 -2 -1 431.64 15.21
0 -2 -1 441.13 14.58
0 -2 0 2364.26 78.44
0 -2 0 2337.07 72.14
0 0 -19 -0.11 2.01
0 0 -18 288.72 15.01
0 0 -17 3.59 2.11
0 0 -16 415.06 17.08
0 0 -15 0.21 1.89
0 0 -14 248.74 10.54
0 0 -13 -2.51 1.36
0 0 -12 587.1 23.29
0 0 -11 2.4 1.98
0 0 -10 451.86 16
0 0 -9 -1.66 1.14
0 0 -8 29.29 2.4
0 0 -8 19.54 2.28
0 0 -7 0.11 2.06
0 0 -7 -2.39 1.56
0 0 -6 471.89 15.13
0 0 -6 458.34 15.65
0 0 -5 -1.67 1.46
0 0 -5 -0.87 1.52
0 0 -4 2399.23 77.37
0 0 -4 2450.75 80.49
0 0 -3 -1.15 0.84
0 0 -3 0.65 1.62
0 0 -2 968.87 53.06
0 0 -2 2329.29 55.94
0 0 3 0.97 1.94
0 0 4 2550.74 79.67
0 0 4 2514.77 79.25
0 0 5 -1.3 0.87
0 0 5 -1.83 1.4
0 0 6 425 15.38
0 0 6 445.07 15.64
0 0 7 2.07 1.41
0 0 8 22.54 1.75
0 0 8 19.73 3.2
0 0 9 2.76 2.02
0 0 10 459.47 16.59
0 0 11 -3.8 2.21
0 0 12 681.89 22.24
0 0 13 -2.93 3.97
0 0 14 294.81 11.04
0 0 15 7.26 2.8
0 0 16 464.13 19.25
0 0 17 0.1 3.09
0 0 18 231.37 14.4
0 0 19 -4.6 2.97
0 2 0 2377.13 79.19
0 2 0 2343.58 72.41
0 2 1 386.48 15.1
0 2 1 439.3 15.03
0 -2 1 424.01 14.97
0 -2 1 453.73 14.93
0 -2 1 414.28 13.84
0 -2 2 1312.9 44.02
0 -2 2 1335.87 43.4
0 -2 2 1351.51 41.67
0 2 2 1364.35 46.43
0 2 2 1346.74 43.38
0 2 3 575.3 20.75
0 2 3 563.01 20.07
0 -2 3 554.59 18.96
0 -2 3 620.48 18.61
0 -2 3 602.01 18.99
0 2 4 3187.78 115.29
0 2 4 3680.25 110.01
0 -2 4 3277.76 112.85
0 -2 4 3658.55 110.54
0 -2 4 3927.62 114.49
0 2 5 56.3 4
0 2 5 39.42 3.05
0 -2 5 50.35 2
0 -2 5 49.03 1.92
0 2 6 1227.02 41.77
0 -2 6 1219.15 38.85
0 -2 6 1167.08 39
0 2 7 684.74 24.88
0 -2 7 701.57 22.68
0 -2 7 719.97 24.07
0 2 8 990.24 34.58
0 -2 8 1048.31 34.11
0 -2 8 1012.96 33.73
0 2 9 430.7 16.74
0 -2 9 468.64 16.05
0 -2 9 423.67 15.79
0 2 10 496.01 17.77
0 -2 10 455.59 16.18
0 -2 10 449.05 16.18
0 2 11 219.24 9.72
0 -2 11 235.85 9.32
0 2 12 408.12 16.73
0 -2 12 365.51 13.5
0 -2 13 74 4.49
0 2 13 98.36 6.11
0 2 14 530.64 21.06
0 -2 14 474.42 17.25
0 2 15 26.34 5.96
0 -2 15 36.8 4.04
0 2 16 153.16 8.69
0 -2 16 145.95 7.86
0 2 17 19.72 5.5
0 -2 17 47.31 4.94
0 2 18 31.61 5.27
0 -2 18 20.24 3.9
0 2 19 19.54 5.45
0 -2 19 19.41 3.18
0 4 0 2304.14 76.56
0 4 0 2329.99 72.54
0 4 1 629.22 23.23
0 4 1 649.51 21.58
0 -4 1 670.45 23.18
0 -4 1 639.3 22.42
0 4 2 1572.17 55.08
0 4 2 1636.86 51.42
0 -4 2 1499.94 52.94
0 -4 2 1537.51 49.45
0 4 3 772.12 25.98
0 -4 3 769.79 26.65
0 -4 3 743.5 25.55
0 4 4 1838.91 57.93
0 -4 4 1631.62 59.33
0 -4 4 1962.23 60.76
0 -4 4 1788.3 62.81
0 4 5 164.72 7.16
0 -4 5 150.3 6.22
0 -4 5 152.12 6.37
0 4 6 5.74 2.52
0 -4 6 14.16 1.3
0 -4 6 12.26 1.22
0 4 7 85.61 5.07
0 -4 7 75.57 3.29
0 -4 7 76.41 3.2
0 4 8 43.21 4.27
0 -4 8 57.34 2.42
0 -4 8 51.1 2.32
0 4 9 18.7 4.29
0 -4 9 12.72 2.71
0 4 10 90.67 6.38
0 -4 10 103.47 5.51
0 4 11 206.14 10.36
0 -4 11 190.11 8.33
0 4 12 48.49 6.22
0 -4 12 44.94 4.04
0 4 13 356.13 15.9
0 -4 13 330.74 13.48
0 4 14 337.46 16.87
0 -4 14 350.7 15.13
0 4 15 275.14 14.68
0 -4 15 195.73 9.96
0 4 16 133.78 9.73
0 -4 16 119.62 8.22
0 4 17 31.13 5.11
0 4 18 72.69 8.11
0 6 0 821.65 30.52
0 6 0 795.69 27.3
0 6 1 86.2 5.72
0 -6 1 90.82 5.27
0 6 2 149.96 6.71
0 -6 2 133.98 6.71
0 6 3 190.92 8.68
0 -6 3 181.86 8.16
0 6 4 35.79 4.99
0 -6 4 41.13 3.25
0 6 5 252.39 10.09
0 -6 5 229.87 10.06
0 6 6 186.84 8.56
0 -6 6 173.79 7.65
0 6 7 481.72 18.92
0 -6 7 480.85 17.97
0 6 8 47.95 5.32
0 6 9 449.21 17.48
0 6 10 72.01 7.48
0 6 11 437.09 17.9
0 -6 11 417.86 17.92
0 6 12 69.27 6.63
0 -6 12 76.22 5.05
0 6 13 125.25 9.74
0 6 14 33.91 6.27
0 6 15 47.34 7.53
0 6 16 64.85 8.39
0 8 0 75.14 6.1
0 8 1 449.12 18.59
0 -8 1 402.44 17.73
0 8 2 41.2 5.35
0 8 2 17.07 4.32
0 -8 2 31.38 3.65
0 8 3 195.64 9.01
0 8 3 162.78 9.37
0 8 4 3.74 3.64
0 8 5 41.24 4.95
0 8 6 9.16 4.13
0 8 7 166.47 9.64
0 8 8 3.02 4.02
0 8 9 190.24 11.15
0 8 10 9.47 5.44
0 8 11 199.21 12.87
0 8 12 8.29 6.47
0 10 0 -6.75 5.26
0 10 1 96.44 8.34
0 10 2 30.15 6.43
0 10 3 153.77 11
0 10 4 31.79 4.55
0 10 5 144.96 10.11
1 -9 -10 14.03 4.05
1 -9 -9 288.09 17.43
1 -9 -8 44.03 6.46
1 -9 -7 123.3 7.65
1 -9 -6 37.14 6.07
1 -9 -5 49.13 5.05
1 -9 -4 25.29 4.96
1 -9 -3 31 4.66
1 -9 -2 17.84 3.29
1 9 -1 64.58 6.24
1 -9 -1 63.16 5.66
1 -7 -14 3.51 5.21
1 -7 -13 98.46 8.71
1 -7 -12 107.28 7.64
1 -7 -11 143.06 9
1 -7 -10 68.17 6.01
1 -7 -9 80.03 6
1 -7 -8 28.54 5.56
1 -7 -7 97.58 7.46
1 -7 -6 -1.37 3.15
1 -7 -5 147.03 7.82
1 -7 -4 26.67 4.85
1 -7 -3 145.81 7.76
1 7 -2 190.15 8.87
1 -7 -2 251.88 10.81
1 7 -1 897.34 31.3
1 -7 -1 781.41 29.43
1 -5 -17 13.18 3.32
1 -5 -16 158.09 10.81
1 -5 -15 144.17 9.63
1 -5 -14 180.11 9.56
1 -5 -13 234.87 12.58
1 -5 -12 107.58 7.66
1 -5 -11 354.13 14.86
1 -5 -10 277.36 11.36
1 -5 -9 359 14.77
1 -5 -8 396.59 15.7
1 -5 -7 115.07 6.2
1 -5 -6 221.74 9.2
1 5 -5 260.7 10.8
1 -5 -5 290.18 12.51
1 5 -4 126.63 5.15
1 -5 -4 153.72 7.05
1 5 -3 133.72 6.44
1 5 -3 166.98 6.86
1 -5 -3 152.77 7.48
1 5 -2 133.14 5.95
1 5 -2 124.59 5.84
1 -5 -2 112.78 6.62
1 5 -1 120.14 5.52
1 5 -1 142.74 6.52
1 -5 -1 140.37 6.22
1 -3 -19 6.75 2.85
1 -3 -18 119.29 7.53
1 -3 -17 13.81 3.3
1 -3 -16 291.06 13.69
1 -3 -15 63.52 5.37
1 -3 -14 432.44 15.82
1 -3 -13 97.06 5.96
1 -3 -12 298.1 12.27
1 -3 -11 34.39 3.79
1 -3 -10 27.95 3.8
1 -3 -9 177.11 8.1
1 -3 -8 274.3 10.75
1 -3 -7 105.97 5.89
1 -3 -6 168.55 7.96
1 -3 -5 509.19 19.12
1 -3 -4 1522.18 50.1
1 -3 -4 1383.54 47.15
1 3 -3 41 2.24
1 -3 -3 36.91 3.01
1 -3 -3 35.42 2.42
1 3 -2 933.45 32.85
1 3 -2 986.81 30.29
1 -3 -2 923.1 32.09
1 -3 -2 920.7 30.04
1 3 -1 301.53 10.92
1 3 -1 301.02 10.47
1 -3 -1 299.59 11.2
1 -3 -1 299 11.48
1 -3 -1 297.77 10.22
1 -1 -19 16.79 2.93
1 -1 -18 155.23 10.12
1 1 -17 91.52 4.58
1 -1 -17 75.83 5.1
1 1 -16 268.58 11.09
1 -1 -16 241.27 10.76
1 -1 -15 9.75 2.2
1 1 -15 4.92 1.71
1 1 -14 372.75 13.86
1 -1 -14 386.86 15.04
1 1 -13 99.72 4.43
1 -1 -13 90.06 4.68
1 1 -12 595.81 21.25
1 -1 -12 603.68 21.82
1 1 -11 20.74 1.9
1 -1 -11 24.02 2.44
1 1 -10 483.16 17.23
1 -1 -10 507.01 17.53
1 1 -9 26.86 2.01
1 -1 -9 18.8 2.25
1 1 -8 155.83 6.01
1 -1 -8 148.66 6.3
1 1 -7 11.25 1.16
1 -1 -7 9.29 2.49
1 -1 -7 10.69 1.8
1 1 -6 25.23 1.39
1 -1 -6 26.42 2.61
1 -1 -6 19.71 2.22
1 1 -5 85.55 3.03
1 -1 -5 96.45 4.52
1 -1 -5 82.49 4.12
1 1 -4 101.07 4.04
1 -1 -4 103.08 4.65
1 -1 -4 110.71 4.32
1 -1 -3 908.5 31.28
1 -1 -3 962.65 30.3
1 -1 -2 1384.87 44.69
1 -1 -2 1340.99 42.37
1 1 -1 913.37 25.88
1 -1 -1 241.62 7.28
1 -1 -1 157.91 5.86
1 -1 -1 36.59 2.96
1 1 0 1137.56 54.18
1 1 0 1801.76 52.92
1 -1 0 4 1.13
1 1 1 241.07 9.05
1 -1 1 151.15 6.2
1 -1 1 140.15 6.02
1 1 2 2163.38 79.53
1 1 2 2564.58 76.01
1 -1 2 2444.22 80.79
1 -1 2 2670.95 81.51
1 1 3 1496.49 50.42
1 1 3 1531.62 48.6
1 -1 3 1475.4 48.19
1 -1 3 1458.55 48.77
1 1 4 2768.85 89.78
1 1 4 2651.97 85.27
1 -1 4 2703.3 85.24
1 -1 4 2581.88 87.37
1 1 5 701.11 24.52
1 1 5 747.07 23.63
1 -1 5 714.68 23.05
1 -1 5 728.39 24.61
1 1 6 1028.3 36.24
1 1 6 1044.79 33.77
1 -1 6 1066.49 34.94
1 -1 6 1047.29 35.98
1 1 7 463.53 15.59
1 -1 7 443.8 15.22
1 -1 7 437.66 15.11
1 1 8 1100.45 34.93
1 -1 8 1005.48 33.61
1 -1 8 1005.19 32.88
1 1 9 83.1 5.48
1 -1 9 84.76 4.37
1 1 10 1208.93 40.47
1 -1 10 1201.4 40.15
1 1 11 318.8 12.51
1 -1 11 306.81 12.06
1 1 12 548.05 19.74
1 -1 12 477.52 18.63
1 1 13 33.26 3.87
1 -1 13 40.5 3.64
1 1 14 379.65 14.76
1 -1 14 362.64 14.39
1 1 15 113.54 6.47
1 -1 15 83.96 5.99
1 1 16 354.36 15.76
1 -1 16 364.73 15.1
1 1 17 49.45 5.78
1 -1 17 68.11 5.23
1 1 18 83.11 6.99
1 -1 18 95.69 6.35
1 1 19 14.62 4.5
1 -1 19 10.72 3.57
1 3 0 1120.96 38.49
1 3 0 1155.91 35.86
1 -3 0 1008.74 37.07
1 -3 0 1197.62 38.38
1 -3 0 1127.44 34.66
1 3 1 228.69 8.58
1 3 1 201.54 7.8
1 -3 1 196.75 7.87
1 -3 1 219.54 7.91
1 -3 1 204.98 7.17
1 3 2 1787.07 60.14
1 3 2 1723.44 56.13
1 -3 2 1683.07 56.96
1 -3 2 1851.3 58.05
1 -3 2 1724.77 53.35
1 3 3 1440.44 51.65
1 -3 3 1456.6 48.72
1 -3 3 1581.79 48.67
1 -3 3 1480.61 48.98
1 3 3 1513.77 49.07
1 -3 4 1907.16 64.08
1 -3 4 2093.86 63.28
1 3 4 1955.81 65.72
1 3 5 512.66 18.33
1 -3 5 460.96 16.08
1 -3 5 453.06 15.54
1 -3 5 505.47 16.36
1 3 6 264.15 10.93
1 -3 6 254.69 9.74
1 -3 6 272.42 9.58
1 -3 6 306.09 10.74
1 3 7 241.89 10.16
1 -3 7 235.24 8.61
1 -3 7 227.55 8.36
1 -3 7 232.43 8.66
1 3 8 257.61 11.55
1 -3 8 240.33 9.26
1 -3 8 248.04 9.64
1 -3 8 258.71 9.61
1 3 9 170.45 8.08
1 -3 9 150.97 5.96
1 -3 9 157.82 6.06
1 -3 9 160.6 6.68
1 3 10 130.01 7.17
1 -3 10 123.27 4.99
1 -3 10 134.42 5.19
1 -3 10 149.64 6.69
1 3 11 126.95 7.82
1 -3 11 94.31 4.13
1 -3 11 91.33 4.26
1 -3 11 131.34 6.14
1 3 12 1245.36 44.14
1 -3 12 1186.08 41.04
1 3 13 184.75 9.44
1 -3 13 184.22 8.81
1 3 14 658.63 25.43
1 -3 14 600.13 22.52
1 3 15 86.52 6.38
1 -3 15 97.97 5.93
1 3 16 140.33 9.92
1 -3 16 141.05 8.09
1 3 17 20.53 4.56
1 -3 17 20.55 2.79
1 3 18 173.33 11.31
1 5 0 92.09 4.76
1 5 0 107.52 5.53
1 5 0 98.77 6.71
1 -5 0 104.57 5.04
1 5 1 552.62 20.13
1 -5 1 490.2 18.27
1 5 2 271.56 11.36
1 -5 2 311.89 11.18
1 5 3 288.5 11.92
1 -5 3 264.57 10.64
1 5 4 519.69 19.17
1 -5 4 493.94 17.38
1 5 5 453.43 17.48
1 -5 5 379.57 15.61
1 5 6 235.01 10.65
1 -5 6 248.96 10.82
1 5 7 82.02 6.13
1 -5 7 64.4 3.28
1 5 8 347.98 14.29
1 -5 8 339.93 13.31
1 5 9 235.84 10.37
1 -5 10 89.41 5.22
1 5 11 338.76 14.39
1 -5 11 314.62 13.27
1 5 12 50.84 6.26
1 -5 12 39.64 3.86
1 5 13 307.45 14.91
1 -5 13 245.81 12.61
1 5 14 69.09 6.11
1 5 15 109.95 9.23
1 5 16 56.08 6.43
1 5 17 39.18 5.29
1 7 0 418.12 15.85
1 -7 0 370.21 15.13
1 7 1 722.42 27.65
1 7 1 670.13 26.59
1 -7 1 749.98 28.36
1 7 2 34.78 4.67
1 7 2 11.95 3.23
1 -7 2 33.01 3.77
1 7 3 199.95 10.76
1 -7 3 208.51 9.47
1 7 4 68.04 6.23
1 -7 4 75.62 4.88
1 7 5 297.4 13.15
1 7 6 34.98 4.2
1 7 7 44.79 5.21
1 7 8 26.62 4.51
1 7 9 141.06 9.16
1 7 10 62.72 6.14
1 7 11 146 9.82
1 7 12 56.68 6.18
1 7 13 101.23 11.09
1 7 14 20.92 6.74
1 9 0 56.34 6.52
1 9 1 103.75 7.31
1 9 3 171.01 9.99
1 9 3 155.57 10.08
1 9 4 41.77 6.21
1 9 5 170.84 11.39
1 9 5 223.74 13.18
1 9 6 35.52 6.91
1 9 6 28.34 5.24
1 9 7 200.34 12.76
1 9 8 63.62 6.49
1 9 9 134.73 9.85
2 -10 -5 111.39 9.1
2 -10 -4 8.26 3.39
2 -8 -13 61.79 5.79
2 -8 -12 14.36 4.19
2 -8 -11 281.78 15.65
2 -8 -10 58.29 6.8
2 -8 -9 213.12 11.95
2 -8 -8 41.16 5.75
2 -8 -7 60.69 6.08
2 -8 -6 15.73 3.46
2 -8 -5 51.55 4.85
2 -8 -4 4.01 4.22
2 -8 -3 269.55 12.3
2 8 -2 33.91 4.74
2 -8 -2 24.26 3.51
2 8 -1 665.86 25.25
2 -8 -1 693.43 25.37
2 -6 -16 84.86 8.27
2 -6 -15 152.19 9.27
2 -6 -14 1.07 3.1
2 -6 -13 347.23 14.91
2 -6 -12 193.7 9.98
2 -6 -11 465.28 19.95
2 -6 -10 120.07 6.82
2 -6 -9 344.97 14.92
2 -6 -8 165.79 8.6
2 -6 -7 198.59 9.34
2 6 -6 106.17 4.81
2 -6 -6 100.74 5.72
2 6 -5 47.54 3.07
2 -6 -5 51.76 4.76
2 6 -4 9.69 1.58
2 -6 -4 22.53 4.13
2 6 -3 33.89 2.56
2 -6 -3 43.54 4.45
2 6 -2 183.84 8.3
2 6 -2 202.64 8.34
2 -6 -2 166.38 7.8
2 6 -1 210.71 9.7
2 6 -1 203.08 9.29
2 -6 -1 237.2 11.15
2 -4 -18 57.71 5.88
2 -4 -17 138.72 9.59
2 -4 -16 58.9 5.38
2 -4 -15 184.98 9.04
2 -4 -14 484.49 19.53
2 -4 -13 283.66 12.36
2 -4 -12 233.58 11.02
2 -4 -11 169.35 8.81
2 -4 -10 144.38 7.07
2 -4 -9 33.53 3.35
2 -4 -8 250.68 10.84
2 -4 -7 382.97 13.98
2 -4 -6 370.36 14.15
2 4 -5 452.98 15.54
2 -4 -5 466.07 16.07
2 4 -4 464.43 16.91
2 -4 -4 439.76 16.75
2 4 -3 325.95 12.14
2 -4 -3 336.09 12.43
2 4 -2 241.29 9.54
2 4 -2 279.6 10.05
2 -4 -2 224.89 9.28
2 -4 -2 223.22 9.19
2 4 -1 499.11 19.09
2 -4 -1 526.76 18.38
2 -4 -1 500.98 18.39
2 4 -1 570.82 17.78
2 -2 -19 31.08 4.31
2 -2 -18 32.01 3.49
2 -2 -17 31.59 3.81
2 -2 -16 70.26 4.91
2 2 -15 98.8 4.39
2 -2 -15 123.68 6.46
2 2 -14 410.18 14.8
2 -2 -14 378.99 15.02
2 2 -13 29.56 1.48
2 2 -13 26.04 1.47
2 -2 -13 38.84 4.08
2 2 -12 527.32 18.72
2 2 -12 580.34 18.75
2 -2 -12 504.97 19.05
2 2 -11 262.23 9.06
2 2 -11 277.85 9.27
2 -2 -11 257.83 10.31
2 2 -10 1096.52 34.31
2 2 -10 1149.15 35.16
2 -2 -10 1067.7 34.89
2 -2 -9 347.85 13.04
2 -2 -8 1716.99 54.44
2 -2 -7 36.25 3.5
2 -2 -6 405.52 14.82
2 -2 -6 366.27 13.72
2 -2 -5 304.37 11.33
2 -2 -5 273.13 10.33
2 -2 -4 558.3 19.24
2 -2 -4 519.59 18.25
2 -2 -3 339.36 12.39
2 -2 -3 396.76 13.59
2 -2 -3 337.46 12.06
2 2 -2 329.49 11.59
2 -2 -2 272.13 11.12
2 -2 -2 391.3 12.31
2 -2 -2 349.39 11.24
2 2 -1 589.94 19.87
2 2 -1 588.15 17.7
2 -2 -1 558.97 19.07
2 -2 -1 630.02 20.2
2 -2 -1 590.68 18.87
2 0 -19 2.22 2.01
2 0 -18 279.2 13.19
2 0 -16 130.55 6.07
2 0 -15 3.46 1.99
2 0 -14 284.14 10.66
2 0 -13 -0.31 1.88
2 0 -12 452.52 16.8
2 0 -11 4.7 1.36
2 0 -10 1195.2 38.88
2 0 -9 1.68 1.79
2 0 -8 145.44 5.39
2 0 -8 131.8 6.12
2 0 -7 -0.43 1.39
2 0 -6 514.25 17.08
2 0 -6 510.48 17.52
2 0 -5 0.22 0.99
2 0 -5 2.07 1.64
2 0 -4 2110.84 66.89
2 0 -4 2153.09 63.81
2 0 -4 2065.13 66.98
2 0 -3 3.89 1.16
2 0 -3 1.33 0.92
2 0 -3 8.08 1.2
2 0 -2 101.21 4.13
2 0 -2 80.03 3.8
2 0 -2 -1.39 0.64
2 0 -1 0.5 0.4
2 0 0 -0.74 0.42
2 0 2 80.76 3.46
2 0 2 82.49 3.34
2 0 3 1.49 1.06
2 0 3 3.22 1.56
2 0 4 3182.42 102.53
2 0 4 3190.34 102.57
2 0 5 -0.21 1.37
2 0 6 292.65 11.83
2 0 6 328.62 11.96
2 0 7 4.25 1.6
2 0 7 2.63 2.63
2 0 8 235.16 8.85
2 0 9 -5.79 2.1
2 0 10 396.74 14.45
2 0 11 2.3 2.3
2 0 12 233.19 10.31
2 0 13 5.51 3.85
2 0 14 512.21 20.09
2 0 15 -0.21 2.89
2 0 16 834.59 32.8
2 0 18 175.27 11.17
2 0 19 4.48 2.95
2 2 0 1151.67 40.89
2 2 0 1167.65 37.8
2 2 0 1199.53 37.87
2 -2 0 1065.4 37.39
2 -2 0 1248.66 38.85
2 -2 0 1160.66 36.59
2 2 1 404.77 13.64
2 2 1 407.63 13.16
2 -2 1 322.72 12.55
2 -2 1 389.06 13.07
2 -2 1 377.97 12.39
2 2 2 1437.43 49.87
2 2 2 1390.24 46.86
2 -2 2 1217.38 44.92
2 -2 2 1470.31 44.85
2 2 3 717.2 24.42
2 2 3 703.95 23.31
2 -2 3 604.1 22.54
2 -2 3 687.99 21.87
2 -2 3 708.27 21.59
2 2 4 741.98 28.31
2 2 4 876.89 27.65
2 -2 4 881.32 28.94
2 -2 4 917.31 27.87
2 2 5 94.73 4.71
2 -2 5 78.87 3.21
2 -2 5 89.99 3.81
2 -2 5 81.08 3.59
2 2 6 485.82 18.12
2 -2 6 470.03 16.1
2 -2 6 451.34 16.12
2 2 7 593.61 21.26
2 -2 7 533.99 19.12
2 -2 7 564.53 19.81
2 2 8 336.56 13.27
2 -2 8 305.66 11.81
2 -2 8 339.32 12.44
2 2 9 221.94 9.84
2 -2 9 204.99 8.72
2 2 10 591.68 21.09
2 -2 10 566.41 20.66
2 2 11 56.34 5.23
2 -2 11 56.18 4.29
2 2 12 220.46 11.03
2 -2 12 233.39 10.03
2 2 13 66.66 5.65
2 -2 13 90.16 5.5
2 2 14 404.99 16.84
2 -2 14 353.11 15.23
2 2 15 68.65 5.21
2 -2 15 40.06 4.01
2 2 16 166.21 9.37
2 -2 16 151.08 8.54
2 2 17 33.6 4.85
2 -2 17 40.85 4.61
2 2 18 103.55 8.64
2 4 0 229.92 8.86
2 4 0 235.06 9.32
2 4 0 247.67 9.23
2 -4 0 214.88 8.62
2 -4 0 214 7.94
2 4 1 682.92 25.07
2 4 1 737.26 24.08
2 -4 1 681.63 24.19
2 -4 1 645.3 21.49
2 4 2 990.06 40.11
2 4 2 1110.69 37.19
2 -4 2 1118.95 38.29
2 -4 2 1084.76 35.79
2 4 3 524.89 18.81
2 -4 3 434.52 16.28
2 -4 3 492.65 15.91
2 4 4 295.54 12.02
2 -4 4 280.27 10.96
2 -4 4 313.66 10.91
2 4 5 264.36 10.66
2 -4 5 258.19 9.7
2 -4 5 287.02 11.62
2 4 6 319.72 13.33
2 -4 6 305.44 11.52
2 4 7 8.77 3.33
2 -4 7 13.72 1.37
2 4 8 77.83 5.28
2 -4 8 56.33 3.08
2 -4 8 71.34 4
2 4 9 35.54 4.69
2 -4 9 26.45 1.69
2 -4 9 19.05 2.44
2 4 10 215.79 10.19
2 -4 10 210.13 8.45
2 4 11 129.59 9.07
2 -4 11 115.32 5.86
2 4 12 290.58 14.43
2 -4 12 255.39 10.74
2 -4 13 197.77 9.93
2 4 13 193.85 10.3
2 4 14 223.41 12.81
2 -4 14 203.32 9.78
2 4 15 29.24 6.74
2 4 16 138.83 10.09
2 4 17 130.28 9.65
2 6 0 444.75 18.1
2 6 0 429.01 17.16
2 -6 0 403.61 15.44
2 6 1 112.49 6.72
2 6 1 104.55 6.17
2 -6 1 105.7 5.39
2 6 2 46.91 4.02
2 -6 2 35.76 3.01
2 6 3 459.7 16.97
2 -6 3 505.89 18.88
2 6 4 162.75 8.71
2 -6 4 187.37 8.39
2 6 5 307.27 12.95
2 -6 5 320.72 12.81
2 6 6 183.05 8.62
2 -6 6 188.64 9.17
2 6 7 223.22 11.04
2 6 8 123.8 7.43
2 6 9 163.25 9.58
2 6 10 160.64 9.51
2 -6 10 156.53 8.05
2 6 11 239.44 12.82
2 -6 11 242.25 10.55
2 6 12 0.1 4.37
2 6 13 125.57 9.22
2 6 14 132.11 10.18
2 6 15 48.84 6.07
2 8 0 19.94 3.73
2 -8 0 20.15 3
2 8 1 348.53 14.84
2 -8 1 314.79 13.9
2 8 2 83.81 6.48
2 8 2 97.3 7.49
2 -8 2 80.18 5.19
2 8 3 295.07 13.61
2 8 3 295.66 13.28
2 8 4 77.98 6.19
2 8 4 108.49 7.61
2 8 5 126.44 8.51
2 8 6 7.74 6.03
2 8 7 165.89 10.3
2 8 8 14.75 4.21
2 8 9 40.25 5.63
2 8 10 26.53 6.53
2 8 11 71.8 6.96
2 10 0 0.4 4.08
2 10 1 95.24 7.76
2 10 2 33.09 5.85
2 10 3 161.27 11.62
2 10 4 3.56 3.56
3 -9 -10 -3.75 5.21
3 -9 -9 260.45 16.74
3 -9 -8 7.94 3.87
3 -9 -7 134.98 9.36
3 -9 -6 4.21 3.68
3 -9 -5 166.43 11.03
3 -9 -4 65.22 5.85
3 -9 -3 52.7 5.97
3 -9 -2 -2.35 3.74
3 -9 -1 59.16 4.95
3 -7 -15 55.48 6.92
3 -7 -14 35.32 5.84
3 -7 -13 167.95 10.74
3 -7 -12 75.08 7.62
3 -7 -11 298.57 14.53
3 -7 -10 127.33 8.55
3 -7 -9 292.26 14.37
3 -7 -8 15.03 3.47
3 -7 -7 159.21 8.03
3 -7 -6 0.63 3.16
3 -7 -5 127.89 7.21
3 -7 -4 6.14 4.02
3 -7 -3 194.88 9.4
3 7 -2 199.52 9.18
3 -7 -2 214.2 10.09
3 7 -1 721.87 26.12
3 -7 -1 611.54 22.31
3 -5 -18 10.46 4.59
3 -5 -17 57.85 6.22
3 -5 -16 17.57 3.22
3 -5 -15 201.08 10.63
3 -5 -14 79.84 5.08
3 -5 -13 482.98 18.89
3 -5 -12 349.94 14.04
3 -5 -11 133.1 7.01
3 -5 -10 169.92 7.97
3 -5 -9 316.02 12.81
3 -5 -8 96.02 6.73
3 -5 -7 427.28 16.17
3 5 -6 221.9 8.51
3 -5 -6 225.18 10.13
3 5 -5 300.28 11.87
3 -5 -5 345.21 13.33
3 5 -4 63.82 3.76
3 -5 -4 64.1 4.56
3 5 -3 573.83 20.26
3 -5 -3 513.13 19.5
3 5 -2 396.17 15.59
3 5 -2 407.32 13.94
3 -5 -2 364.44 13.44
3 5 -1 98.84 5.08
3 5 -1 137.34 6.05
3 -5 -1 112.89 5.63
3 -3 -19 15.19 3.49
3 -3 -18 180.82 10.98
3 -3 -17 40.57 3.84
3 -3 -16 278.8 11.37
3 -3 -15 29.12 3.11
3 -3 -14 325.15 13.05
3 -3 -13 57.94 4.66
3 -3 -12 504.94 17.8
3 -3 -11 429.31 16.75
3 -3 -10 83.53 5.46
3 -3 -9 604.33 20.96
3 -3 -8 483.41 17.36
3 -3 -7 75.59 4.02
3 -3 -6 1387.21 49.35
3 -3 -5 405.61 14.46
3 -3 -5 390.81 14.8
3 3 -4 205.11 7
3 -3 -4 205.36 7.9
3 -3 -4 214.95 8.55
3 -3 -4 191.98 8.08
3 3 -3 290.84 10.12
3 -3 -3 264.42 10.37
3 -3 -3 268.68 10.53
3 -3 -3 274.04 10.26
3 3 -2 1182.45 37.77
3 -3 -2 1023.59 36.09
3 -3 -2 1107.29 37.17
3 -3 -2 1095.94 36.34
3 3 -1 234.73 9.27
3 3 -1 262.94 9.67
3 -3 -1 233.42 9.18
3 -3 -1 268.38 9.51
3 -3 -1 240.58 8.93
3 -1 -20 133.6 8.86
3 -1 -19 56.22 4.85
3 -1 -18 42.33 4
3 1 -17 70.9 3.89
3 -1 -17 53.89 4.53
3 1 -16 298.02 11.92
3 -1 -16 248.92 11.19
3 1 -15 39.14 2.6
3 -1 -15 35.91 3.69
3 1 -14 216.59 8.86
3 -1 -14 247.74 9.72
3 1 -13 188.85 7.07
3 -1 -13 170.94 7.22
3 -1 -13 174.96 7.34
3 1 -12 978.01 32.58
3 -1 -12 991.73 34.58
3 -1 -12 1090.19 35.25
3 1 -11 12.84 1.26
3 -1 -11 5.8 2.04
3 1 -10 1233 41.13
3 -1 -10 1302.57 42.31
3 1 -9 4.25 0.83
3 -1 -9 3.93 1.74
3 1 -8 519.71 16.87
3 -1 -8 533.2 18.12
3 1 -7 33.92 1.58
3 -1 -7 36.61 2.42
3 -1 -7 30.46 2.23
3 -1 -7 33.84 2.68
3 1 -6 329.53 11.44
3 -1 -6 337.51 12.64
3 -1 -6 368.12 12.02
3 -1 -6 332.02 12.43
3 1 -5 1414.93 44.41
3 -1 -5 1411 47.92
3 -1 -5 1537.5 47.21
3 -1 -5 1416.39 48.88
3 1 -4 496.41 16.62
3 -1 -4 486.11 18.17
3 -1 -4 564.33 18.29
3 -1 -4 517.55 18.84
3 -1 -3 71.51 3.54
3 -1 -3 74.95 3.1
3 -1 -3 73.96 2.92
3 -1 -2 5416.17 174.27
3 -1 -2 5891.82 175.4
3 -1 -2 5561.5 180.99
3 1 -1 810.52 25.21
3 -1 -1 734.15 23.94
3 -1 -1 764.32 24.05
3 -1 -1 775.43 24.81
3 1 0 1815.46 62.1
3 1 0 1800.64 58.19
3 1 0 1841.16 57.83
3 -1 0 1678.92 54.33
3 -1 0 1598.97 56.14
3 1 1 894.23 28.4
3 1 1 853.1 26.77
3 -1 1 889.71 26.57
3 -1 1 776.2 27.08
3 1 2 4336.21 140.65
3 1 2 4328.97 135.14
3 -1 2 3863.42 128.72
3 -1 2 4125 133.25
3 1 3 624.29 22.3
3 1 3 661.08 21.68
3 -1 3 657.45 23.01
3 -1 3 662.48 22.94
3 -1 3 709.75 21.89
3 1 4 1985.81 64.03
3 1 4 2014.17 62.55
3 -1 4 1949.66 63.37
3 -1 4 2001.45 63.77
3 1 5 689.9 23.3
3 1 5 693.04 23.06
3 -1 5 693.78 22.3
3 -1 5 701.05 22.67
3 1 6 644.89 21.69
3 -1 6 634.24 22.03
3 -1 6 664.07 21.49
3 1 7 129.52 5.67
3 -1 7 117.58 5.12
3 -1 7 98.79 4.9
3 1 8 681.73 22.26
3 -1 8 614.85 21.36
3 1 9 191.09 7.7
3 -1 9 183.52 7.42
3 1 10 77.49 4.72
3 -1 10 72.83 4.3
3 1 11 14.51 3.13
3 -1 11 12.38 3.02
3 1 12 99.01 6.38
3 -1 12 93.07 5.72
3 1 13 75.79 4.7
3 -1 13 49.14 4.34
3 1 14 306.86 13.09
3 -1 14 312.69 13.38
3 1 15 70.41 5.49
3 -1 15 84.99 5.56
3 1 16 328.86 17.09
3 -1 16 310.23 13.7
3 1 17 26.52 3.89
3 -1 17 45 4.5
3 1 18 125.57 9.41
3 -1 18 131.75 8.69
3 3 0 806.23 30.08
3 3 0 841.67 28.92
3 3 0 885.8 28.9
3 -3 0 801.83 29.08
3 -3 0 885.61 29.89
3 -3 0 854.77 28.18
3 3 1 354.39 11.52
3 3 1 336.13 11.98
3 -3 1 300.12 11.06
3 -3 1 320.17 11.36
3 -3 1 303.47 10.63
3 3 2 2988.46 103.43
3 3 2 3077.96 98.86
3 -3 2 2557.57 93.39
3 -3 2 3126.08 93.29
3 -3 2 2941.19 89.16
3 3 3 189.09 7.99
3 3 3 193.84 7.51
3 -3 3 164.18 6.53
3 -3 3 185.36 6.86
3 -3 3 182.29 6.64
3 3 4 1090.28 36.56
3 -3 4 1043.43 34.33
3 -3 4 1020.64 33.94
3 3 5 61.03 4.33
3 -3 5 62.79 3.07
3 -3 5 61.83 2.93
3 3 6 184.9 8.85
3 -3 6 207.09 7.45
3 -3 6 172.98 7.73
3 -3 6 194.04 7.26
3 -3 6 206.14 8.42
3 3 7 179.91 8.79
3 -3 7 144.89 6.15
3 -3 7 151.61 6.17
3 -3 7 159.49 6.61
3 3 8 46.81 4.1
3 -3 8 50.11 3.19
3 3 9 -4.83 4.83
3 -3 9 3.06 1.58
3 3 10 187.5 8.72
3 -3 10 182.08 6.97
3 3 11 24.92 4.14
3 -3 11 25.98 2.92
3 3 12 373.72 16.11
3 -3 12 355.63 14.72
3 3 13 8.82 3.53
3 -3 13 15.81 3
3 3 14 179.36 9.09
3 -3 14 191.17 8.39
3 3 15 79.51 6.34
3 -3 15 72.98 5.05
3 3 16 234.01 13.82
3 3 17 7.72 4.84
3 5 0 149.18 7.22
3 5 0 159.21 7.74
3 5 0 171.95 6.87
3 -5 0 142.2 6.08
3 5 1 108.68 5.63
3 5 1 121.71 5.9
3 -5 1 110.18 5.44
3 -5 1 104.4 5.06
3 5 2 669.91 23.32
3 -5 2 666.71 24.05
3 -5 2 621.39 22.52
3 5 3 472.97 18.99
3 -5 3 528.27 18.41
3 5 4 461.44 16.92
3 -5 4 365.71 15.14
3 -5 4 446.22 16.17
3 5 5 243.12 11.59
3 -5 5 204.37 8.39
3 -5 5 201.92 8.5
3 5 6 323.36 12.96
3 -5 6 314.05 12.07
3 -5 6 329.47 14.24
3 5 7 23.23 3.81
3 -5 7 20.01 1.92
3 -5 7 20.05 2.27
3 5 8 156.88 9.58
3 -5 8 150.28 6.98
3 -5 8 157.15 7
3 5 9 439.51 17.11
3 -5 9 477.07 17.68
3 5 10 4.97 5.27
3 -5 10 20.02 2.57
3 5 11 197 10.24
3 -5 11 192.33 9.15
3 5 12 58.48 5.74
3 -5 12 46.43 3.74
3 5 13 146.71 10.4
3 5 14 116.04 9.7
3 5 15 62.96 7.43
3 5 16 18.35 5.26
3 7 0 65.93 4.81
3 -7 0 60.81 5.37
3 7 1 556.99 21.43
3 7 1 567.39 21.37
3 -7 1 502.33 20.13
3 7 2 25.08 4.05
3 7 2 18.47 4.62
3 -7 2 25.01 2.81
3 7 3 93.47 7.11
3 -7 3 61.55 5.2
3 7 4 106.83 6.74
3 -7 4 96.18 5.55
3 7 5 420.68 16.48
3 7 6 8.29 3.99
3 7 7 102.87 6.82
3 7 8 31.99 4.9
3 7 9 52.29 7.22
3 7 10 31.74 5.43
3 7 11 71.95 7.57
3 7 12 5.06 4.35
3 7 13 113.77 9.17
3 9 0 39.69 5.65
3 9 1 194.41 11.23
3 9 2 80.46 7.72
3 9 3 123.28 9.71
3 9 4 19.68 4.8
3 9 4 -4.95 3.96
3 9 5 205.94 13.31
3 9 5 209.24 12.33
3 9 6 -3.95 3.65
3 9 6 30.74 5.85
3 9 7 196.04 11.91
3 9 7 215.72 12.88
3 9 8 98.54 9.41
3 9 8 80.18 6.99
4 -10 -6 19.88 5.39
4 -10 -5 71.68 7.34
4 -10 -4 38.06 5.44
4 -8 -13 100.65 8.21
4 -8 -12 22.44 4.93
4 -8 -11 194.42 11.57
4 -8 -10 50.47 6.81
4 -8 -9 157.46 9.36
4 -8 -8 22.24 4.09
4 -8 -7 49.73 4.84
4 -8 -6 98.28 6.77
4 -8 -5 178 10.32
4 -8 -4 76.81 5.97
4 -8 -3 259.84 12.37
4 -8 -2 18.31 3.43
4 8 -1 414.55 17.45
4 -8 -1 445.16 16.46
4 -6 -17 21.58 4.17
4 -6 -16 16.99 4.06
4 -6 -15 120.4 8.38
4 -6 -14 47.83 5.67
4 -6 -13 159.43 9.66
4 -6 -12 319.68 14.3
4 -6 -11 524.75 21.89
4 -6 -10 61.13 5.32
4 -6 -9 422.31 16.97
4 -6 -8 3.07 3.07
4 -6 -7 368.89 15.31
4 6 -6 29.07 2.32
4 -6 -6 27.05 3.81
4 6 -5 183.48 8.59
4 -6 -5 186.3 8.5
4 6 -4 42.36 3.09
4 -6 -4 34.58 4.45
4 6 -3 72.84 4.08
4 -6 -3 84.84 5.84
4 6 -2 282.53 12.7
4 6 -2 300.25 11.84
4 -6 -2 293.83 11.57
4 6 -1 83.77 5.49
4 -6 -1 44.46 4.37
4 -4 -19 76.34 7.05
4 -4 -18 143.9 9.36
4 -4 -17 159.95 10.66
4 -4 -16 238.41 10.59
4 -4 -15 129.62 7.91
4 -4 -14 269.49 12.35
4 -4 -13 147.04 7.52
4 -4 -12 293.62 12.59
4 -4 -11 3.46 2.81
4 -4 -10 61.37 4.22
4 -4 -9 121.59 6.49
4 -4 -8 1113.08 37.33
4 4 -7 380.45 14.01
4 -4 -7 467.52 16.7
4 -4 -6 259.3 11.43
4 4 -5 272.76 9.79
4 -4 -5 267.97 10.53
4 4 -4 230.59 9.35
4 -4 -4 191.86 8.46
4 4 -3 342.58 12.64
4 -4 -3 335.78 12.55
4 -4 -3 324.01 12.17
4 4 -2 281.79 10.8
4 -4 -2 283.25 10.83
4 -4 -2 296.12 11.21
4 4 -1 1087.52 38.66
4 4 -1 1094.57 35.21
4 -4 -1 1028.22 35.84
4 -4 -1 1090.79 35.2
4 -2 -20 49.05 5.06
4 -2 -19 15.38 3.35
4 -2 -18 65.81 4.9
4 -2 -17 -0.63 3.16
4 -2 -16 83.54 5.15
4 -2 -15 -3.19 2.13
4 -2 -14 689.83 25.07
4 -2 -13 52.47 4.44
4 -2 -12 605.73 20.85
4 -2 -12 566.14 22.41
4 -2 -11 412.55 15.84
4 -2 -11 441.32 15.45
4 -2 -10 1724.29 57.97
4 -2 -10 1860.25 58.38
4 -2 -9 230.38 9.08
4 -2 -9 233.07 9.32
4 -2 -8 1534.05 50.91
4 -2 -8 1571.12 50.49
4 -2 -7 365.75 13.8
4 -2 -7 378.04 12.81
4 -2 -6 721.13 26.43
4 -2 -6 848.33 26.08
4 -2 -6 728.81 28.47
4 -2 -5 960.4 31.89
4 -2 -5 1025.41 32.32
4 -2 -5 879.14 33.14
4 -2 -4 373.79 13.16
4 -2 -4 408.06 13.71
4 -2 -4 357.56 13.68
4 2 -3 356.51 12.24
4 -2 -3 314.68 11.85
4 -2 -3 375.34 12.19
4 -2 -3 353.6 12.42
4 2 -2 17.4 1.67
4 -2 -2 24.2 2.26
4 -2 -2 26.54 2.78
4 -2 -2 25.48 1.78
4 2 -1 509.84 17.69
4 -2 -1 503.91 17.79
4 -2 -1 522.42 17.44
4 -2 -1 514.58 16.94
4 0 -19 -0.84 1.78
4 0 -18 299.7 12.59
4 0 -17 0.94 1.78
4 0 -16 83.36 4.38
4 0 -15 -5.73 1.67
4 0 -14 217.69 8.88
4 0 -13 1.78 1.78
4 0 -13 1.79 1.68
4 0 -12 708.49 25.92
4 0 -12 865.92 27.93
4 0 -11 2.23 1.49
4 0 -11 -1.26 0.94
4 0 -10 342.81 13.02
4 0 -10 387.91 13.1
4 0 -9 0.65 1.09
4 0 -9 1.15 1.35
4 0 -8 1306.66 42.01
4 0 -8 1339.41 39.18
4 0 -7 1.2 1.42
4 0 -7 0.21 0.93
4 0 -7 -6.94 2.28
4 0 -6 1823.4 59.93
4 0 -6 1901.88 58.12
4 0 -6 1796.62 59.67
4 0 -5 3.77 1.46
4 0 -5 -0.72 0.82
4 0 -5 -3.46 1.62
4 0 -4 775.26 27.94
4 0 -4 942.22 28.41
4 0 -3 3.84 1.41
4 0 -2 5152.91 163.11
4 0 -1 7.13 1.34
4 0 0 2860.81 95.56
4 0 1 -0.21 1.92
4 0 1 1.16 0.77
4 0 2 4135.94 133.15
4 0 2 4069.08 124.88
4 0 3 -1.92 1.06
4 0 3 1.54 1.23
4 0 4 1053.3 36.16
4 0 4 1081.74 35.12
4 0 5 -2.42 1.16
4 0 5 2.91 2.18
4 0 6 1444.82 47.49
4 0 7 2.82 2.51
4 0 8 30.1 2.62
4 0 9 -5.95 1.99
4 0 10 179.94 8.42
4 0 11 1.04 2.19
4 0 12 121.91 8.13
4 0 13 5.38 2.9
4 0 14 695.43 25.19
4 0 15 0.21 2.57
4 0 16 590.1 25.4
4 0 17 -8.36 3.77
4 0 18 111.09 8.56
4 2 0 1462.49 47.62
4 2 0 1376.01 44.85
4 2 0 1369.61 43.42
4 -2 0 1264.09 43.76
4 -2 0 1440.29 43.62
4 -2 0 1424.92 43.46
4 2 1 62.74 3.5
4 2 1 59.33 3.93
4 2 1 76.96 3.18
4 -2 1 58.16 3.3
4 -2 1 65.13 2.93
4 -2 1 66.54 2.44
4 2 2 2082.39 69.64
4 2 2 1997.58 66.12
4 -2 2 2075.91 64.12
4 -2 2 2012.19 63.24
4 2 3 51.34 3.52
4 2 3 68.47 4.2
4 -2 3 56.95 2.68
4 -2 3 53.59 2.34
4 2 4 1183.38 37.43
4 -2 4 1112.46 35.91
4 -2 4 1114.28 36.11
4 2 5 767.37 26.42
4 -2 5 715.76 26.75
4 -2 5 745.6 25.84
4 -2 5 777.1 24.05
4 2 6 1559.14 51.82
4 -2 6 1401.84 52.23
4 -2 6 1536.88 50.63
4 -2 6 1662.01 48.31
4 2 7 463.81 17.15
4 -2 7 439.98 15.93
4 -2 7 446.52 14.93
4 2 8 1223.47 41.96
4 -2 8 1275.46 43
4 -2 8 1393.47 45.06
4 2 9 92.13 4.99
4 -2 9 98.89 4.94
4 2 10 583.81 20.32
4 -2 10 521.07 18.61
4 2 11 20.86 4.98
4 -2 11 22.96 2.28
4 2 12 471.32 17.37
4 -2 12 415.17 15.92
4 2 13 66.13 5.41
4 -2 13 41.8 3.91
4 2 14 111.92 6.66
4 -2 14 119.97 7.1
4 2 15 -1.13 3.2
4 -2 15 4.19 3.37
4 2 16 60.41 6.79
4 -2 16 85.9 6.45
4 2 17 33.46 4.71
4 2 18 125.62 10.22
4 4 0 397.27 14.58
4 4 0 434.91 14.6
4 4 0 438.65 14.2
4 -4 0 338.03 13.63
4 -4 0 413.09 14.01
4 4 1 610.35 25.25
4 4 1 750.23 24.21
4 4 1 772.6 24.96
4 -4 1 666.03 23.58
4 -4 1 727.37 23.51
4 4 2 1352.37 47.23
4 -4 2 1351.4 45.55
4 -4 2 1296 41.83
4 4 3 712.64 24.48
4 -4 3 657.37 22.89
4 -4 3 685.24 21.58
4 4 4 439.89 17.89
4 -4 4 420.63 14.88
4 -4 4 440.54 14.52
4 4 5 52.18 4.6
4 -4 5 35.5 2.65
4 -4 5 42.43 2.53
4 4 6 253.54 10.29
4 -4 6 240.33 9.27
4 4 7 -2.82 2.62
4 -4 7 9.22 1.7
4 -4 7 7.7 1.69
4 4 8 201.38 10.48
4 -4 8 191.17 7.87
4 -4 8 189.3 8.32
4 -4 9 30.74 2.01
4 -4 9 26.59 2.65
4 4 10 155.06 7.71
4 -4 10 109.33 5.71
4 4 11 36.17 5.64
4 4 12 81.29 7.21
4 -4 12 66.9 4.28
4 4 13 154.16 9.12
4 4 15 85.84 8.78
4 4 16 81.71 7.94
4 6 0 144.12 6.99
4 -6 0 137.83 6.76
4 6 1 330.99 13.37
4 6 1 321.63 13.45
4 -6 1 319.76 12.84
4 6 2 18.62 3.51
4 6 2 36.39 3.64
4 -6 2 29.01 3.11
4 6 3 796.94 28.65
4 6 3 784.72 27.25
4 -6 3 733.1 25.64
4 6 4 87.52 6.19
4 -6 4 78.83 4.53
4 6 5 148.35 9.29
4 -6 5 144.99 7.13
4 6 6 250.26 12.22
4 -6 6 226.67 10.28
4 6 7 301.74 13.96
4 6 8 86.09 6.32
4 6 9 244.4 10.83
4 -6 9 248.68 11.16
4 6 10 45.85 6.96
4 6 11 116.76 7.92
4 6 12 64 6.72
4 6 13 43.13 7.04
4 6 14 74.07 7.99
4 8 0 13.43 4.25
4 -8 0 0.65 3.23
4 8 1 170.43 9.52
4 -8 1 214.85 10.77
4 8 2 103.68 6.48
4 8 2 74.41 6.44
4 -8 2 95.54 6.62
4 8 3 176.04 11.74
4 8 3 271.66 12.46
4 8 4 89.17 6.26
4 8 5 185.88 10.64
4 8 5 201.27 9.9
4 8 6 53.03 6.64
4 8 6 40.97 4.28
4 8 7 94.52 8.65
4 8 7 166.36 8.44
4 8 8 42.33 5.32
4 8 9 6.02 4.32
4 8 10 26.95 5.43
4 8 11 27.92 5.14
4 10 1 115.75 8.9
4 10 2 48.41 6.48
4 10 3 127.64 9.88
5 -9 -10 24.47 5.96
5 -9 -9 244.35 15.25
5 -9 -8 5.68 4.2
5 -9 -7 228.59 13.67
5 -9 -6 10.27 3.6
5 -9 -5 111.18 8.75
5 -9 -4 9.51 3.53
5 -9 -3 86.89 7.1
5 -9 -2 53.92 4.96
5 -9 -1 166.05 9.34
5 -7 -15 30.39 5.1
5 -7 -14 45.09 5.42
5 -7 -13 150.4 9.68
5 -7 -12 47.26 5.08
5 -7 -11 144.76 8.8
5 -7 -10 62.44 6.02
5 -7 -9 193.65 11.11
5 -7 -8 142.33 7.52
5 -7 -7 81.14 5.82
5 -7 -6 95.11 6.46
5 -7 -5 708.31 24.01
5 -7 -4 126.26 7.25
5 -7 -3 710.04 27.45
5 -7 -2 196.08 9.26
5 7 -1 404.4 15.94
5 -7 -1 363.65 15.36
5 -5 -18 -0.43 3.94
5 -5 -17 213.01 12.33
5 -5 -16 50.13 6.12
5 -5 -15 201.82 10.21
5 -5 -14 211.05 10.75
5 -5 -13 33.41 4.84
5 -5 -12 496.98 19.49
5 -5 -11 348.32 14.62
5 -5 -10 956.99 34.41
5 -5 -9 858 30.59
5 5 -8 327.15 11.99
5 -5 -8 327.2 13.17
5 -5 -7 322.94 12.69
5 5 -6 453.81 17.52
5 -5 -6 435.49 16.38
5 5 -5 203.75 7.77
5 -5 -5 232.96 9.96
5 5 -4 356.29 13.45
5 -5 -4 354.13 13.34
5 5 -3 96.12 4.86
5 -5 -3 91.79 5.16
5 5 -2 128.65 5.82
5 -5 -2 119.9 5.8
5 5 -1 141.98 6.65
5 5 -1 165.22 6.52
5 -5 -1 158.95 6.98
5 -5 -1 121.75 6.2
5 -3 -20 217.54 14.51
5 -3 -19 56.41 5.42
5 -3 -18 182.98 10.56
5 -3 -17 -1.81 2.66
5 -3 -16 181.59 8.7
5 -3 -15 25.55 3.55
5 -3 -14 63.85 4.88
5 -3 -13 374.05 14.89
5 -3 -12 401.48 13.76
5 -3 -11 12.38 2.72
5 -3 -10 510.47 18.83
5 -3 -9 194.96 8.19
5 -3 -8 943.24 32.03
5 3 -7 314.32 11.14
5 -3 -7 321.04 13.75
5 -3 -6 1954.6 66.72
5 3 -5 418.53 14.6
5 -3 -5 381.42 14.13
5 -3 -5 397.42 15.33
5 3 -4 154.19 6.03
5 -3 -4 143.75 6.67
5 -3 -4 176.71 7.21
5 -3 -4 169.24 7.48
5 3 -3 557.81 19
5 -3 -3 559.84 19.95
5 -3 -3 592.6 20.08
5 -3 -3 544.93 19.58
5 3 -2 469.85 17.79
5 -3 -2 488.46 18.02
5 -3 -2 538.21 18.9
5 -3 -2 497.24 18.58
5 3 -1 636.07 22.3
5 3 -1 628.02 21.3
5 -3 -1 620.6 21.59
5 -3 -1 638.88 23.66
5 -3 -1 659.86 21.32
5 -1 -20 197.75 12.61
5 -1 -19 108.67 7.54
5 -1 -18 17.91 2.2
5 1 -17 0.21 1.29
5 -1 -17 -2.51 1.57
5 1 -16 98.17 4.54
5 -1 -16 100.29 5.56
5 1 -15 120.9 6.08
5 -1 -15 120.85 6.23
5 1 -14 94.41 4.41
5 -1 -14 122.73 5.53
5 1 -13 111.74 5.11
5 -1 -13 137.95 6
5 -1 -13 127.24 5.85
5 1 -12 774.1 27.65
5 -1 -12 814.17 28.59
5 -1 -12 821.71 28.16
5 1 -11 54.47 2.53
5 -1 -11 61.24 3.41
5 -1 -11 58.17 3.06
5 1 -10 1573.55 51.67
5 -1 -10 1596.29 52.28
5 -1 -10 1638.18 50.95
5 1 -9 7.45 1.3
5 -1 -9 2.62 2.29
5 -1 -9 14.25 1.87
5 1 -8 1243.78 41.01
5 -1 -8 1243.6 42.01
5 -1 -8 1318.13 40.27
5 1 -7 269.5 9.33
5 -1 -7 267.27 10.1
5 -1 -7 300.94 10.33
5 -1 -7 277.47 10.37
5 1 -6 2450.38 78.46
5 -1 -6 2579.19 83.05
5 -1 -6 2640.37 82.1
5 -1 -6 2474.99 86.35
5 -1 -5 76.56 3.76
5 -1 -5 92.98 3.91
5 -1 -5 88.91 4.06
5 1 -4 391.14 13.8
5 -1 -4 390.05 14.31
5 -1 -4 407.36 14.03
5 -1 -4 397.89 14.92
5 1 -3 134.4 5.28
5 -1 -3 138.94 5.44
5 -1 -3 154.95 5.75
5 -1 -3 133.77 5.42
5 1 -2 475.6 15.27
5 -1 -2 457.62 14.71
5 -1 -2 478.78 14.93
5 -1 -2 398.87 15.03
5 1 -1 1621.27 50.79
5 -1 -1 1578.63 49.83
5 1 0 220.57 8.57
5 1 0 212 8.03
5 -1 0 188.16 7.99
5 1 1 1620.34 54.79
5 1 1 1533.06 49.81
5 -1 1 1621.21 50.26
5 1 2 876.29 29.92
5 1 2 864.53 26.91
5 1 2 905.45 27.93
5 -1 2 856.46 28.27
5 -1 2 854.82 26.31
5 1 3 352.99 13.32
5 1 3 367.72 12.85
5 -1 3 346.89 12.76
5 -1 3 356.35 11.99
5 1 4 2269.34 74.83
5 1 4 2322.18 71.28
5 -1 4 2191.39 74.38
5 -1 4 2315.7 73.46
5 -1 4 2418.6 70.42
5 1 5 30.8 2.67
5 -1 5 28.08 2.11
5 -1 5 35.57 2
5 -1 5 30.39 1.53
5 1 6 1477.83 47.62
5 -1 6 1425.48 46.74
5 1 7 51.81 4.25
5 -1 7 63.19 3.17
5 1 8 775.74 25.8
5 -1 8 772.44 26.25
5 1 9 167.12 7.35
5 -1 9 156.41 6.43
5 1 10 179.44 9.22
5 -1 10 158.24 6.82
5 1 11 85.65 6.25
5 -1 11 82.23 4.79
5 1 12 264.99 12.55
5 -1 12 265.96 10.55
5 1 13 86.51 5.61
5 -1 13 85.06 5.27
5 1 14 92.91 6.62
5 -1 14 99.85 6.28
5 1 15 129.4 7.84
5 -1 15 108.35 7.49
5 1 16 163.32 9.77
5 -1 16 154.39 9.73
5 1 17 5.7 4.48
5 3 0 518.54 18.67
5 3 0 530.16 19.03
5 3 0 541.07 17.9
5 -3 0 455.9 17.18
5 -3 0 512.5 18.21
5 -3 0 503.11 17.09
5 3 1 861.48 31.3
5 3 1 900.67 29.78
5 3 1 935.77 29.24
5 -3 1 751.01 27.54
5 -3 1 917.53 29.81
5 -3 1 848.25 26.63
5 3 2 881.05 35.7
5 3 2 988.58 32.37
5 -3 2 928.22 32.32
5 -3 2 1002.45 34.31
5 -3 2 991.22 30.19
5 3 3 442.97 15.72
5 -3 3 366.91 14.23
5 -3 3 410.04 13.14
5 3 4 124.86 6.81
5 -3 4 117.63 4.95
5 -3 4 124.67 4.71
5 3 5 927.65 31.87
5 -3 5 878.24 28.6
5 3 6 264.01 12.7
5 -3 6 330.08 11.78
5 3 7 215.61 9.62
5 -3 7 176.69 7.33
5 3 8 442.85 16.83
5 -3 8 426.79 15.64
5 3 9 92.47 5.97
5 -3 9 101.12 4.61
5 3 10 433.77 17.27
5 3 11 24.41 4.95
5 -3 11 15.77 2.17
5 3 12 263.24 12.29
5 -3 12 253.75 11.69
5 3 13 26.61 4.03
5 -3 13 11.8 2.15
5 3 15 35.57 5.35
5 3 16 175.19 11.34
5 3 17 50.04 5.42
5 5 0 93.52 5.27
5 5 0 105.91 5.22
5 -5 0 83.32 4.54
5 -5 0 87.43 4.83
5 5 1 940.42 30.47
5 5 1 901.31 32.24
5 -5 1 877.09 30.45
5 -5 1 886.1 31.57
5 5 2 354.73 13.83
5 5 2 352.19 13.42
5 -5 2 346.55 12.68
5 -5 2 311.03 11.87
5 5 3 496.62 18.71
5 -5 3 498.3 18.26
5 -5 3 516.76 18.3
5 5 4 364.73 16.08
5 -5 4 407.7 15.7
5 -5 4 369.46 14.39
5 5 5 206.61 10
5 -5 5 187.5 8.32
5 -5 5 195.06 8.23
5 5 6 502.9 19.12
5 -5 6 464.91 19.4
5 -5 6 484.26 19.62
5 5 7 286.46 12.51
5 -5 7 296.51 11.71
5 -5 7 269.03 10.81
5 -5 7 271.8 11.38
5 5 8 331.76 15.09
5 -5 8 343.38 13.47
5 5 9 191.3 10.26
5 -5 9 185.49 8.58
5 5 10 131.45 8.25
5 5 11 128.89 8.38
5 5 12 12.66 6.23
5 5 13 66.02 7.18
5 5 14 15.48 6.36
5 5 15 68.44 8.22
5 7 0 29.58 5.03
5 -7 0 43.84 4.31
5 7 1 497.6 20.44
5 -7 1 528.39 22.08
5 7 2 29.39 3.94
5 7 2 40.65 4.16
5 -7 2 32.13 3.67
5 7 3 316.11 13.61
5 7 3 292.93 13
5 -7 3 259.74 12.18
5 7 4 102.41 7.34
5 7 4 115.16 7.19
5 -7 4 97.47 5.64
5 7 5 253.01 11.39
5 7 5 232.69 11.25
5 7 6 85.09 6.91
5 7 7 8.6 4.3
5 7 8 83.12 7.92
5 7 9 35.52 5.22
5 7 11 45.83 5.76
5 7 12 30.9 6.89
5 9 1 250.89 14.81
5 9 2 52.86 5.48
5 9 3 248.28 13.82
5 9 4 4.79 3.87
5 9 4 10.66 3.49
5 9 5 386.94 22.02
5 9 5 379.23 20.29
5 9 6 55.31 6.19
5 9 6 64.64 6.21
5 9 7 137.4 9.95
5 9 7 124.81 8.45
6 -10 -5 86.69 6.76
6 -8 -13 9.68 4.42
6 -8 -12 13.67 4.1
6 -8 -11 121.48 8.22
6 -8 -10 86.62 7.9
6 -8 -9 105.55 7.7
6 -8 -8 26.57 4.96
6 -8 -7 199.61 11.36
6 -8 -6 15.49 4.24
6 -8 -5 352.39 15.36
6 -8 -4 5.24 4.6
6 -8 -3 422.79 17.67
6 -8 -2 11.73 3.77
6 -8 -1 231.45 10.89
6 -6 -17 83.21 6.87
6 -6 -16 10.16 5.24
6 -6 -15 93.25 7.84
6 -6 -14 76.97 6.22
6 -6 -13 39.73 5.03
6 -6 -12 210.31 10.63
6 -6 -11 271.88 12.23
6 -6 -10 65.97 6.38
6 -6 -9 164.65 9.26
6 -6 -8 174.51 8.71
6 -6 -7 260.49 11.05
6 6 -6 215.68 9.82
6 -6 -6 223 10.92
6 6 -5 99.44 5.16
6 -6 -5 83.19 5.4
6 6 -4 341.24 13.74
6 -6 -4 317.73 12.98
6 6 -3 46.92 2.99
6 -6 -3 49.81 4.24
6 -6 -2 80.94 5.84
6 6 -1 128.41 6.35
6 -6 -1 145.85 7.57
6 -4 -19 169.18 10.96
6 -4 -18 104.69 8.15
6 -4 -17 85.57 5.82
6 -4 -16 40.65 5.16
6 -4 -15 18.3 3.55
6 -4 -14 22.99 4.43
6 -4 -13 24.86 3.57
6 -4 -12 164.51 7.86
6 -4 -11 8.85 2.7
6 -4 -10 533.46 19.71
6 -4 -9 85.66 5.37
6 4 -8 534.2 18.57
6 -4 -8 518.16 20.38
6 -4 -7 943.35 31.07
6 4 -6 34.11 1.96
6 -4 -6 13.66 3.15
6 4 -5 512.75 18.7
6 -4 -5 515.29 18.91
6 4 -4 420.82 15.57
6 -4 -4 397.83 15.36
6 4 -3 622.19 21.42
6 -4 -3 552.27 20.43
6 -4 -3 561.97 22.12
6 4 -2 235 9.39
6 -4 -2 241.62 10.2
6 -4 -2 239.2 10.13
6 4 -1 1049.56 37.08
6 4 -1 1019.14 35.05
6 -4 -1 907.08 32.49
6 -4 -1 1025.21 33.04
6 -2 -20 25.15 3.78
6 -2 -19 25.86 3.79
6 -2 -18 105.34 6.44
6 -2 -17 10.68 3.38
6 -2 -16 183.81 8.07
6 -2 -15 26.56 3.11
6 -2 -14 341.5 12.92
6 -2 -13 144.46 6.6
6 -2 -13 142.26 7.53
6 -2 -12 546.8 19.69
6 -2 -12 545.62 21.5
6 -2 -11 106.12 4.85
6 -2 -11 107.24 5.38
6 -2 -10 1123.1 39.01
6 -2 -10 1203.66 39.79
6 -2 -9 39.19 3.57
6 -2 -9 53.45 3.55
6 2 -8 1491.01 47.86
6 2 -8 1461.65 46.78
6 -2 -8 1339.17 49
6 -2 -8 1603.51 49.02
6 2 -7 166.85 6.03
6 -2 -7 174.7 7.35
6 -2 -7 194.95 7.29
6 -2 -6 737.01 27.18
6 -2 -6 887.78 27.54
6 -2 -6 794.24 30.74
6 2 -5 273.19 9.59
6 -2 -5 275.34 10.3
6 -2 -5 289.8 10.33
6 -2 -5 269.02 10.73
6 2 -4 225.43 8.38
6 -2 -4 235.02 9.08
6 -2 -4 230.28 8.75
6 -2 -4 222.22 8.9
6 2 -3 317.75 10.46
6 -2 -3 323.36 11.62
6 -2 -3 297.87 10.8
6 -2 -3 300.84 11.01
6 2 -2 60.86 3.61
6 -2 -2 58.52 3.88
6 -2 -2 80.11 3.48
6 -2 -2 75.08 3.16
6 2 -1 1298.16 43.1
6 -2 -1 1194.82 40.83
6 -2 -1 1252.42 40.37
6 -2 -1 1225.17 42.41
6 0 -19 0 1.88
6 0 -18 203.34 9.28
6 0 -17 5.61 1.87
6 0 -16 88.78 4.79
6 0 -14 259.75 10.29
6 0 -13 0.11 1.81
6 0 -13 -2.2 1.36
6 0 -12 339.73 12.57
6 0 -12 342.76 12.4
6 0 -11 -0.1 1.04
6 0 -10 897.57 30.94
6 0 -10 949.6 29.84
6 0 -9 -2.39 1.19
6 0 -9 1.76 0.93
6 0 -8 947.38 30.92
6 0 -8 965.31 29.48
6 0 -7 2.52 1.68
6 0 -7 3.92 1.03
6 0 -6 846.65 28.92
6 0 -6 885.56 29.51
6 0 -5 1.53 1.53
6 0 -5 -2.96 1.12
6 0 -4 2212.79 70.09
6 0 -3 4.16 1.93
6 0 -2 2160.3 69.8
6 0 -1 0 1.35
6 0 0 1284.58 41.74
6 0 1 -1.49 1.6
6 0 1 -3.13 1.27
6 0 2 716.73 24.98
6 0 2 706.98 23.28
6 0 3 2.02 1.28
6 0 3 2 1.7
6 0 4 1182.48 42.51
6 0 4 1279.92 40.65
6 0 5 -3.82 2.06
6 0 6 1840.51 58.93
6 0 7 2.39 2.29
6 0 8 264.99 10.46
6 0 9 -3.85 3.02
6 0 10 228.03 10.6
6 0 11 -2.8 3.01
6 0 12 404.64 16.64
6 0 13 1.24 2.57
6 0 14 581.26 23.49
6 0 15 5.52 2.86
6 0 16 119.27 7.88
6 2 0 706.15 24.98
6 2 0 711.63 24.66
6 -2 0 653.63 21.91
6 -2 0 655.68 22.65
6 2 1 65.81 3.62
6 2 1 57.62 3.64
6 2 1 61.06 2.69
6 -2 1 63.39 3.02
6 2 2 1688.6 63.4
6 2 2 1840.9 61.59
6 2 2 1973.49 61.18
6 -2 2 1861.46 62.21
6 2 3 801.8 27.43
6 -2 3 779.19 27.38
6 -2 3 791.21 25.87
6 2 4 1461.59 50.85
6 -2 4 1464.17 48.42
6 2 5 236.86 9.2
6 -2 5 205.59 7.78
6 2 6 1921.27 64.46
6 -2 6 1805.14 57.11
6 2 7 69.56 4.62
6 -2 7 71.84 3.58
6 2 8 813.71 31.06
6 -2 8 799.07 26.6
6 -2 8 825.51 28.01
6 2 9 21.74 4.02
6 -2 9 29.16 2.6
6 -2 9 24.03 1.82
6 2 10 615.13 23.07
6 -2 10 611.49 22.66
6 -2 10 610.84 21.78
6 2 11 76.52 6.32
6 -2 11 82.61 4.46
6 2 12 37.98 5.17
6 -2 12 33.32 2.89
6 2 13 8.45 4.74
6 -2 13 18.05 2.46
6 2 14 12.74 4.73
6 -2 14 25.19 3.28
6 2 15 2.66 3.28
6 2 16 106.12 7.79
6 2 17 -5.28 4.78
6 4 0 588.06 23.23
6 4 0 638.75 21.77
6 4 0 642.88 21.42
6 -4 0 600.07 21.19
6 -4 0 565.95 20.74
6 4 1 193.74 7.4
6 4 1 187.41 7.5
6 -4 1 169.46 7.46
6 -4 1 171.23 6.92
6 4 2 406.43 15.46
6 4 2 413.02 16.13
6 -4 2 436.14 15.25
6 -4 2 408.74 14.22
6 4 3 210.99 9.56
6 -4 3 204.78 7.96
6 4 4 707.88 26.07
6 -4 4 677.5 24.39
6 -4 4 734.54 23.14
6 4 5 0.7 3.1
6 -4 5 5.94 1.38
6 -4 5 3.57 1.16
6 -4 5 3.08 0.99
6 4 6 321.46 12.85
6 -4 6 273.66 11.19
6 -4 6 269.38 10.34
6 -4 6 300.52 11.43
6 4 7 127.09 6.99
6 -4 7 101.75 4.79
6 -4 7 107.59 4.67
6 4 8 293.73 13.37
6 -4 8 329.78 12.68
6 -4 8 312.35 12.33
6 4 9 129.16 8.47
6 -4 9 111.75 5.12
6 4 10 170.3 9.75
6 -4 10 163.52 7.59
6 4 11 162.6 8.66
6 4 12 71.84 7.29
6 4 13 62.99 7.5
6 4 14 24.42 6.26
6 4 15 93.97 8.53
6 4 16 136.1 10.58
6 6 0 25.54 4.64
6 -6 0 22.87 3.51
6 6 1 643.84 23.78
6 6 1 584.43 22.55
6 -6 1 598.77 21.96
6 6 2 68.53 5.82
6 6 2 89.09 5.38
6 -6 2 83.76 5.25
6 -6 2 69.41 4.24
6 6 3 368.03 15.7
6 6 3 406.59 15.15
6 -6 3 346.44 14.31
6 -6 3 353.05 13.46
6 6 4 272.93 12.45
6 -6 4 277.38 11.08
6 6 5 524.92 20.22
6 6 5 518.56 20.13
6 -6 5 482.1 19.34
6 6 6 96.83 6.31
6 6 7 618 23.93
6 6 8 112.9 7.25
6 6 9 143.63 9.2
6 6 10 75.64 6.78
6 6 11 93.94 7.32
6 6 12 30.5 6.61
6 6 13 33.86 4.9
6 8 0 18.91 4.18
6 -8 0 31.37 4.44
6 8 1 281.71 13.26
6 -8 1 258.05 12.98
6 8 2 145.22 8.62
6 8 3 478.93 19.87
6 8 3 425.79 18.75
6 8 4 62.14 7.69
6 8 4 27.78 5.5
6 8 5 364.93 17.18
6 8 5 340.06 15.77
6 8 6 67.82 7.96
6 8 6 25.46 4.21
6 8 7 58.92 6.54
6 8 7 93.09 7.46
6 8 8 30.37 5.13
6 8 8 27.46 4.93
6 8 9 53.75 8.16
6 8 9 27.1 4.94
6 8 10 63.03 7.77
6 8 10 57.41 6.47
7 -9 -10 -4.94 4.94
7 -9 -9 125.1 8.77
7 -9 -8 1.27 3.38
7 -9 -7 87.31 8.09
7 -9 -6 2.67 3.31
7 -9 -5 130.84 9.68
7 -9 -4 29.7 5.49
7 -9 -3 71.17 5.96
7 -9 -2 46.24 4.88
7 -7 -16 5 3.62
7 -7 -15 49.26 5.86
7 -7 -14 43.25 4.79
7 -7 -13 106.97 7.88
7 -7 -11 45.83 6.35
7 -7 -10 2.33 4.76
7 -7 -9 199.52 10.93
7 -7 -8 1.69 4.65
7 -7 -7 412.73 16.94
7 -7 -6 18.75 3.39
7 -7 -5 440.93 18.09
7 -7 -4 160.04 7.82
7 -7 -3 88.88 6.42
7 -7 -2 122.51 7.41
7 -7 -1 233.28 10.8
7 -5 -18 16.54 4.16
7 -5 -17 152.12 9.62
7 -5 -16 81.36 6.05
7 -5 -15 72.59 6.91
7 -5 -14 189.87 9.47
7 -5 -13 145.27 8.34
7 -5 -12 151.07 8.75
7 -5 -11 73.51 5.37
7 -5 -10 241.85 10.65
7 5 -9 581.75 22.11
7 -5 -9 695.13 24.16
7 -5 -8 84.25 5.09
7 5 -7 300.49 11.33
7 -5 -7 289.55 11.76
7 5 -6 305.86 11.83
7 -5 -6 267.75 12.44
7 5 -5 11 1.5
7 -5 -5 8.58 2.72
7 5 -4 250.75 9.92
7 -5 -4 276.22 10.82
7 5 -3 213.49 9.31
7 -5 -3 199.25 9.23
7 5 -2 141.47 6.08
7 -5 -2 154.6 7.77
7 -5 -2 124.83 6.86
7 -5 -1 179.44 8.11
7 -5 -1 160.28 7.31
7 -3 -20 296.75 17.11
7 -3 -19 52.26 5.74
7 -3 -18 314.05 13.26
7 -3 -17 101.31 6.26
7 -3 -16 140.07 7.19
7 -3 -15 130.24 7.41
7 -3 -14 83.8 5.78
7 -3 -13 171.25 7.17
7 -3 -12 81.73 5.03
7 -3 -11 204.3 9.73
7 -3 -10 718.83 25.26
7 -3 -9 152.22 6.89
7 3 -8 1126.14 37.25
7 -3 -8 1117.79 39.19
7 -3 -7 107.49 6
7 3 -6 352.51 12.3
7 -3 -6 369.68 13.91
7 3 -5 117.97 4.94
7 -3 -5 128.6 6.11
7 -3 -5 133.41 6.23
7 3 -4 401.51 14.71
7 -3 -4 381.43 13.93
7 -3 -4 371.79 14.66
7 3 -3 108.35 4.84
7 -3 -3 83.73 4.72
7 -3 -3 113.44 4.95
7 3 -2 195.43 7.93
7 -3 -2 202.54 7.53
7 -3 -2 200.91 7.45
7 3 -1 34.67 2.63
7 -3 -1 32.83 2.89
7 -3 -1 23.19 1.81
7 -1 -21 50.08 4.83
7 -1 -20 357.05 18.7
7 -1 -19 15.47 2.71
7 -1 -18 113.09 6.04
7 1 -17 23.81 1.94
7 -1 -17 20.86 2.22
7 1 -16 315.23 12.24
7 -1 -16 277.75 11.09
7 1 -15 163.23 6.72
7 -1 -15 182.61 7.87
7 1 -14 409.32 14.14
7 -1 -14 406.44 15.37
7 1 -13 26.47 2.11
7 -1 -13 26.24 2.39
7 -1 -13 38.47 2.94
7 1 -12 602.08 19.95
7 -1 -12 614.75 21.87
7 -1 -12 648.55 22.66
7 1 -11 202.38 7.35
7 -1 -11 201.39 7.88
7 -1 -11 183.71 7.56
7 1 -10 1199.23 40.35
7 -1 -10 1196.49 40.96
7 -1 -10 1275.76 40.3
7 1 -9 20.08 1.61
7 -1 -9 19.37 2.25
7 -1 -9 22.05 2.27
7 1 -8 320.42 11.55
7 1 -8 356.35 11.37
7 -1 -8 347.69 12.55
7 -1 -8 333.21 11.95
7 1 -7 162.14 5.84
7 1 -7 167.03 5.89
7 -1 -7 158.75 6.32
7 -1 -7 161.45 6.1
7 -1 -7 157.95 7
7 1 -6 1900.42 58.94
7 -1 -6 1777.77 59.56
7 -1 -6 1905.46 58.51
7 -1 -6 1765.09 62.9
7 1 -5 163.94 5.84
7 -1 -5 157.72 6.06
7 -1 -5 147.58 6.03
7 1 -4 1310.26 43.8
7 -1 -4 1271.71 42.84
7 -1 -4 1455.08 43.76
7 -1 -4 1322.61 45.85
7 1 -3 524.51 19.03
7 -1 -3 537.26 17.82
7 1 -2 76.54 3.97
7 -1 -2 92.8 4.13
7 -1 -1 501.09 16.99
7 1 -1 528.07 18.14
7 1 0 1608.92 54.99
7 -1 0 1653.22 50.73
7 1 1 30.96 2.47
7 1 1 41.04 3.04
7 -1 1 39.31 2.9
7 1 2 850.55 29.28
7 1 2 839.98 27.15
7 -1 2 816.16 28.15
7 -1 2 822.58 25.62
7 1 3 357.45 12.47
7 1 3 357.64 12.01
7 -1 3 338.21 12.84
7 -1 3 343.9 11.38
7 1 4 1178.48 36.05
7 -1 4 1221.64 38.38
7 1 5 62.68 3.68
7 -1 5 58.03 3.03
7 1 6 1043.32 33.81
7 -1 6 1002.21 33.86
7 1 7 98.01 5.8
7 -1 7 86.66 4.32
7 -1 7 93.58 3.69
7 -1 8 637.69 23.64
7 -1 8 717.68 22.79
7 1 9 15.93 2.9
7 -1 9 26.42 2.61
7 -1 9 17.24 1.42
7 1 10 882.03 31.4
7 -1 10 834.47 29.47
7 -1 10 808.38 27.87
7 1 11 46.92 4.35
7 -1 11 28.13 3.73
7 1 12 206.15 10.51
7 -1 12 256.89 11.36
7 1 13 148.17 7.78
7 -1 13 132.74 7.55
7 1 14 88.94 7.1
7 -1 14 102.73 6.69
7 1 15 -3.88 3.98
7 1 16 134.42 10.01
7 1 17 34.65 5.48
7 3 0 830.22 28.46
7 3 0 806.83 27.96
7 -3 0 782.78 26.25
7 -3 0 780.54 25.85
7 3 1 221.12 9.78
7 3 1 222.31 9.55
7 3 1 224.76 9.52
7 -3 1 211.36 8.34
7 -3 1 212.76 7.84
7 3 2 167.42 7.65
7 3 2 163.55 6.47
7 -3 2 158.19 6.27
7 -3 2 150.39 5.36
7 3 3 45.64 3.97
7 3 3 36.7 2.61
7 -3 3 35.94 1.51
7 -3 3 38.19 1.48
7 3 4 484.58 17.06
7 -3 4 472.69 16.07
7 -3 4 475.69 15.16
7 3 5 133.42 6.36
7 -3 5 124.94 4.88
7 3 6 481.32 18.78
7 3 7 110.79 6.02
7 -3 7 108.67 4.42
7 3 8 537.53 21.48
7 -3 8 516.12 17.32
7 3 9 56.65 5.74
7 -3 9 42.54 2.81
7 3 10 564.72 22.19
7 -3 10 562.91 20.23
7 3 11 -4.82 3.29
7 -3 11 0 1.65
7 3 12 105.47 7.54
7 3 13 29.87 5.55
7 3 15 19.42 4.6
7 3 16 120.28 9.41
7 5 0 76.59 4.38
7 -5 0 73.12 4.42
7 -5 0 70.71 3.69
7 5 1 338.25 14.11
7 5 1 348.05 13.11
7 -5 1 288.36 12.4
7 -5 1 328.82 13.15
7 5 2 212.35 9.03
7 5 2 196.34 9.06
7 -5 2 193.78 7.87
7 -5 2 196.87 7.72
7 5 3 56.74 5.38
7 5 3 69.91 4.52
7 -5 3 61.89 3.93
7 -5 3 63.31 3.44
7 5 4 486.49 18.58
7 5 4 504.77 18.61
7 -5 4 476.22 18.04
7 -5 4 465.03 17.38
7 5 5 318.97 14.76
7 -5 5 311.21 12.17
7 -5 5 312.31 11.72
7 5 6 531.16 21.5
7 -5 6 433.23 18.12
7 -5 6 481.49 17.28
7 5 7 329.84 13.58
7 -5 7 317.79 13.83
7 -5 7 305 12.79
7 5 8 244.22 11.68
7 5 9 298.57 14.19
7 5 10 124.75 8.77
7 5 11 136.01 8.5
7 5 12 64.49 7.46
7 5 13 20.44 5.01
7 5 14 -5.52 3.89
7 7 0 23.8 3.99
7 -7 0 17.62 3.98
7 7 1 168.04 7.96
7 -7 1 132.88 8.1
7 7 2 19 4.25
7 7 2 9.49 2.9
7 -7 2 8.07 3.34
7 7 3 224.15 11.66
7 7 3 199.26 9.5
7 -7 3 166.83 8.97
7 7 4 47.83 4.93
7 7 4 63.97 4.93
7 7 5 229.24 10.91
7 7 5 264.21 11.9
7 7 6 41.54 4.82
7 7 6 82.02 6.77
7 7 7 108.44 7.85
7 7 7 96.06 6.99
7 7 8 7.04 4.12
7 7 8 24.53 4.65
7 7 9 43.62 5.85
7 7 9 29.2 4.55
7 7 10 101.61 8.41
7 7 11 203.83 14.04
7 9 2 7.54 3.32
7 9 3 128.19 8.9
7 9 4 9.87 5.74
7 9 5 262.11 15.66
7 9 5 226.46 15.7
7 9 6 19.78 5.99
7 9 6 28.85 5.15
8 -8 -13 45.99 5.81
8 -8 -12 51.66 5.28
8 -8 -11 110.49 8.77
8 -8 -10 17.73 3.69
8 -8 -9 22.4 4.55
8 -8 -8 38.33 4.56
8 -8 -7 308.18 13.8
8 -8 -6 43.9 6.08
8 -8 -5 379.39 17.36
8 -8 -4 4.4 3.33
8 -8 -3 183.48 9.43
8 -8 -2 5.62 2.92
8 -8 -1 165.24 9.89
8 -6 -17 58 6.86
8 -6 -16 54.32 6.12
8 -6 -15 136.33 9.16
8 -6 -14 40.49 5.79
8 -6 -13 108.79 7.52
8 -6 -12 45.58 4.38
8 -6 -11 360.72 15.35
8 -6 -10 67.31 5.21
8 -6 -9 554.31 22.6
8 -6 -8 230.74 11.87
8 -6 -7 654.21 22.44
8 -6 -6 376.48 14.95
8 6 -5 370.68 15.03
8 -6 -5 340.19 13.88
8 6 -4 267.24 10.86
8 -6 -4 228.98 10.49
8 6 -3 137.44 6.71
8 -6 -3 147.99 7.52
8 -6 -2 19.03 2.75
8 -6 -1 180.96 9.05
8 -4 -19 189.11 12.16
8 -4 -18 172.17 9.95
8 -4 -17 82.74 5.73
8 -4 -16 99.03 7.58
8 -4 -15 119.44 7.51
8 -4 -14 131.66 7.53
8 -4 -13 122.34 7.94
8 -4 -12 151.66 7.19
8 -4 -11 167.59 8.76
8 -4 -10 409.1 16.29
8 4 -9 484.95 16.69
8 -4 -9 439.82 17.86
8 -4 -8 975.08 33.67
8 4 -7 600.36 20.48
8 -4 -7 614.23 21.36
8 4 -6 535.31 19.3
8 -4 -6 550.97 20.67
8 4 -5 300.1 10.66
8 -4 -5 284.37 11.31
8 4 -4 584.91 20.63
8 -4 -4 567.28 20.21
8 -4 -4 557.63 24.19
8 4 -3 981.07 35.88
8 -4 -3 1014.61 32.8
8 4 -2 604.24 24.04
8 -4 -2 683.9 23.71
8 -4 -2 672.12 24.18
8 4 -1 849.79 29.81
8 -4 -1 843.43 28.32
8 -4 -1 823.29 29.55
8 -2 -21 27.85 3.99
8 -2 -20 212.25 12.88
8 -2 -19 31.81 4.22
8 -2 -18 320.25 14.47
8 -2 -17 97.81 5.31
8 -2 -16 293.54 12.84
8 -2 -15 115.16 6.55
8 -2 -14 76.2 4.81
8 -2 -13 242.76 9.85
8 2 -12 410.83 13.76
8 2 -12 418.17 13.9
8 -2 -12 446.35 16.5
8 -2 -12 421.85 18.5
8 2 -11 164.62 5.76
8 2 -11 159.38 5.8
8 -2 -11 187.83 7.78
8 -2 -11 157.06 7.32
8 2 -10 1313.07 43.79
8 2 -10 1259.46 42.49
8 -2 -10 1203.13 42.08
8 -2 -10 1257.65 43.44
8 2 -9 119.45 4.28
8 -2 -9 97.89 6.18
8 -2 -9 151.38 6.02
8 -2 -8 1150.94 42.47
8 -2 -8 1374.45 44.9
8 2 -7 546.67 18.82
8 -2 -7 528.9 19.24
8 -2 -7 492.49 19.24
8 2 -6 386.97 14.5
8 -2 -6 398.91 14.28
8 -2 -6 404.45 14.18
8 -2 -6 380.36 14.92
8 2 -5 1130.31 37.54
8 -2 -5 1013.59 35.83
8 -2 -5 1202.49 37.57
8 -2 -5 1142.75 38.53
8 2 -4 1096.47 35.77
8 -2 -4 1019.27 33.45
8 -2 -4 1087.02 33.5
8 -2 -4 1035.2 35.81
8 2 -3 249.36 8.55
8 -2 -3 188.76 8.34
8 -2 -3 243.23 8.76
8 -2 -3 239.05 8.6
8 2 -2 60.59 3.11
8 -2 -2 49.59 3.25
8 -2 -2 52.74 3.33
8 -2 -2 47.5 2.39
8 2 -1 316.94 11.96
8 -2 -1 320.43 11.93
8 0 -19 -4.34 1.76
8 0 -18 239.2 12.07
8 0 -17 -1.25 1.76
8 0 -16 673.56 25.39
8 0 -14 338.87 12.54
8 0 -14 358.85 13.65
8 0 -13 1.84 1.95
8 0 -13 -2.61 1.05
8 0 -12 366.64 13.92
8 0 -12 411.24 13.47
8 0 -11 -2.06 1.73
8 0 -10 733.34 25.74
8 0 -10 850.18 26.13
8 0 -9 1.05 1.79
8 0 -9 -1.04 0.93
8 0 -8 2190.43 73.45
8 0 -8 2441.3 73.58
8 0 -7 2.88 1.95
8 0 -7 -0.93 1.13
8 0 -6 3688.84 122.2
8 0 -6 4264.89 126.1
8 0 -5 -4.29 1.84
8 0 -4 5400.71 172.86
8 0 -3 2.77 1.33
8 0 -2 270.2 10.67
8 0 -1 0.42 1.57
8 0 0 1141.46 38.47
8 0 1 -2.44 1.49
8 0 2 276.84 12.44
8 0 2 307.5 11.23
8 0 3 -0.99 1.77
8 0 4 790.5 26.56
8 0 6 392.67 13.56
8 0 7 1.65 2.38
8 0 8 42.58 3.74
8 0 9 4.25 2.07
8 0 10 624.31 22.67
8 0 12 385.66 16.08
8 0 13 -4.11 2.26
8 0 14 120.61 6.9
8 0 15 13.97 3.67
8 2 0 668.86 22.54
8 -2 0 669.17 23.1
8 2 1 200.63 8.9
8 2 1 197.35 8.07
8 2 2 480.52 16.26
8 2 3 323.47 12.96
8 2 3 366.19 11.93
8 2 4 667.11 25.27
8 2 4 713.36 23.28
8 -2 4 672.19 21.84
8 2 5 81.61 4.57
8 2 6 1358.84 49.13
8 -2 6 1379.41 45.71
8 2 7 106.96 6.27
8 -2 7 90.85 4.02
8 2 8 834.66 31.38
8 -2 8 850.23 29.98
8 2 9 136.95 7.05
8 -2 9 134.31 5.69
8 2 10 558.78 22.78
8 -2 10 543.93 19.54
8 2 11 42.9 4.23
8 -2 11 39.72 3.32
8 2 12 45.11 4.43
8 -2 12 29.3 2.89
8 2 13 25.22 3.8
8 2 14 29.03 4.71
8 2 16 80.38 6.42
8 -4 0 131.22 5.86
8 -4 0 130.56 5.05
8 4 1 231.73 10.11
8 4 1 223.4 8.91
8 -4 1 238.23 9.16
8 -4 1 219.78 8.57
8 4 2 7.74 2.88
8 4 2 15.57 3
8 -4 2 3.89 1.68
8 -4 2 5.79 0.74
8 4 3 90.45 5.59
8 4 3 107.93 5.17
8 -4 3 79.36 4.33
8 -4 3 83.4 3.21
8 4 4 30.02 4.99
8 4 4 35.56 3.43
8 -4 4 38.62 3.17
8 -4 4 30.26 1.38
8 -4 4 32.59 1.49
8 4 5 9.62 3.11
8 4 5 12.7 2.42
8 -4 5 10.23 2.53
8 -4 5 10.36 0.84
8 -4 5 10.7 0.83
8 4 6 111.08 6.87
8 -4 6 130.87 6.24
8 -4 6 124.12 5.06
8 -4 6 130.09 4.81
8 4 7 237.64 10.2
8 -4 7 238.33 10.27
8 -4 7 238.82 9.48
8 -4 7 234.3 9.27
8 4 8 512.05 21.05
8 -4 8 472.48 19.08
8 4 9 146.01 8.91
8 4 10 195.67 10.1
8 4 11 67.46 6.46
8 4 12 -9.41 4.81
8 4 13 111.42 8.94
8 4 14 84.53 8.2
8 4 15 144.66 11.17
8 -6 0 9.66 3.72
8 -6 0 12.21 2
8 6 1 155.92 7.29
8 -6 1 133 7.26
8 -6 1 127.61 6.58
8 6 2 26.51 4.02
8 6 2 47.4 4.02
8 -6 2 37.39 3.41
8 -6 2 33.44 2.64
8 6 3 294.03 13.53
8 6 3 310.27 12.95
8 -6 3 290.2 12.22
8 6 4 151.13 8.85
8 6 4 150.99 8.03
8 -6 4 145.7 7.38
8 6 5 490.37 20.51
8 6 5 496.86 19.4
8 -6 5 457.57 17.97
8 6 6 56.53 4.93
8 6 6 74.16 5.18
8 6 7 233 12.24
8 6 7 224.59 10.66
8 6 8 83.5 6.87
8 6 8 54.27 4.47
8 6 9 116.17 7.72
8 6 10 77.76 6.41
8 6 11 67.2 7.33
8 6 12 143.18 10.34
8 6 13 33.18 5.01
8 -8 0 37.27 3.8
8 -8 1 159.39 9.15
8 8 2 11.09 3.83
8 8 3 225.75 10.92
8 8 4 35.55 6.18
8 8 4 24.65 4.95
8 8 5 185.75 12.99
8 8 5 193.55 11.61
8 8 6 17.17 4.85
8 8 6 17.21 3.54
8 8 7 39.49 5.46
8 8 7 25.93 4.97
8 8 8 9.5 4.75
8 8 8 15.51 3.85
8 8 9 82.35 8.41
8 8 9 97.3 8.14
9 -9 -10 41.18 6.13
9 -9 -9 78.93 7.43
9 -9 -8 22.12 4.36
9 -9 -7 184.06 12.12
9 -9 -5 132.43 9.84
9 -9 -4 3.03 4.65
9 -9 -3 44.05 5.65
9 -9 -2 9.02 4.46
9 -7 -16 59.41 6.2
9 -7 -15 46.89 6.08
9 -7 -14 40.98 6.29
9 -7 -13 76.63 7.56
9 -7 -12 30.34 5.63
9 -7 -11 11.65 3.39
9 -7 -10 75.97 5.73
9 -7 -9 125.07 7.74
9 -7 -8 191.87 9.67
9 -7 -7 414.98 17.06
9 -7 -6 209.09 11.07
9 -7 -5 664.79 24.04
9 -7 -4 219.25 11.55
9 -7 -3 565.7 22.82
9 -7 -2 42.66 4.28
9 -7 -1 355.85 15.33
9 -5 -19 149.65 10.12
9 -5 -18 61.85 7.08
9 -5 -17 133.92 10.91
9 -5 -16 129.85 8.35
9 -5 -15 47.33 4.65
9 -5 -14 115.77 7.7
9 -5 -13 17.22 3.77
9 -5 -12 403.17 16.9
9 -5 -11 97.27 6.85
9 5 -10 98.89 3.97
9 -5 -10 125.1 6.51
9 -5 -9 308.63 13.8
9 5 -8 289.3 11.24
9 -5 -8 257.03 11.5
9 5 -7 82.88 4.1
9 -5 -7 74.08 4.92
9 5 -6 294.44 11.43
9 -5 -6 233.83 11.39
9 5 -5 470.02 19.14
9 -5 -5 409.34 16.09
9 5 -4 192.45 8.61
9 -5 -4 211.46 8.87
9 5 -3 377.81 15.21
9 -5 -3 430.98 16.74
9 -5 -2 10.74 3.86
9 -5 -2 8.07 1.7
9 -5 -1 281.02 11.68
9 -5 -1 288.08 11.31
9 -3 -20 124.53 10.15
9 -3 -19 13.56 3.82
9 -3 -18 257.52 11.4
9 -3 -17 19.83 2.9
9 -3 -16 170.51 9.07
9 -3 -15 77.38 5.13
9 -3 -14 215.48 9.58
9 -3 -13 83.88 5.45
9 -3 -12 357.22 14.03
9 -3 -11 91.2 5.82
9 3 -10 757.36 25.65
9 3 -10 766.9 25.87
9 -3 -10 790.67 28.01
9 -3 -9 56.13 4.85
9 -3 -8 670.54 23.34
9 3 -7 115.11 4.97
9 -3 -7 142.52 6.94
9 3 -6 1013.14 33.35
9 -3 -6 939.67 32.59
9 3 -5 373.48 13.55
9 -3 -5 356.19 13.13
9 -3 -5 340.53 14.21
9 3 -4 1808.55 60.23
9 -3 -4 1740.62 56.3
9 -3 -4 1838.71 62.48
9 3 -3 762.25 26.31
9 -3 -3 793.59 26.9
9 -3 -3 762.52 27.55
9 3 -2 1526.41 52.91
9 -3 -2 1491.98 49.15
9 -3 -2 1495.66 52.34
9 3 -1 242.65 10.84
9 -3 -1 290.12 10.43
9 -3 -1 252.45 9.59
9 -1 -21 8.48 2.59
9 -1 -20 119.16 7.03
9 -1 -19 14.38 2.61
9 1 -18 154.54 8.72
9 -1 -18 192.16 8.81
9 1 -17 98.65 4.57
9 -1 -17 89.28 5.09
9 1 -16 516.6 20.07
9 -1 -16 525.82 19.92
9 1 -15 124.42 5.42
9 -1 -15 108.2 5.69
9 1 -14 425.3 15.86
9 -1 -14 451.12 16.81
9 -1 -14 407.4 17.21
9 1 -13 58.13 3.07
9 -1 -13 61.28 3.94
9 -1 -13 58.83 3.35
9 1 -12 391.4 15.13
9 1 -12 418.04 13.96
9 -1 -12 382.53 14.78
9 -1 -12 413.3 14.64
9 1 -11 117.62 4.81
9 1 -11 111.71 4.43
9 -1 -11 103.37 5.09
9 -1 -11 109.28 5.11
9 1 -10 706.84 25.02
9 1 -10 815.6 24.69
9 -1 -10 671.08 25.2
9 -1 -10 767.54 25.94
9 1 -9 68.16 3.25
9 1 -9 73.05 3.16
9 -1 -9 69.25 3.48
9 -1 -9 63.24 3.41
9 1 -8 1536.83 51.08
9 1 -8 1678.78 53.5
9 -1 -8 1533.71 55.29
9 -1 -8 1795.23 56.45
9 1 -7 433.14 15.13
9 -1 -7 418.39 15.8
9 -1 -7 447.07 15.09
9 1 -6 1857.09 57.58
9 -1 -6 1542.01 56.01
9 -1 -6 1872.07 57.24
9 1 -5 107.04 4.87
9 -1 -5 107.12 4.95
9 -1 -5 128.81 5.31
9 1 -4 1049.21 34.15
9 -1 -4 1009.23 33.66
9 1 -3 123.53 5.34
9 -1 -3 119.98 5.46
9 1 -2 523.34 19.05
9 -1 -2 562.83 19.25
9 1 -1 646.16 22.89
9 -1 -1 679.34 23.18
9 1 0 218.34 9.37
9 -1 0 216.82 9.49
9 1 1 287.61 12.28
9 1 2 499.42 18.4
9 1 3 80.41 4.19
9 -1 3 76.32 3.48
9 1 4 1198.58 38.87
9 -1 4 1205.58 38.91
9 1 5 210.06 7.63
9 -1 5 198.56 7.57
9 1 6 608.23 21.84
9 1 6 577.7 19.16
9 -1 6 617.19 21.67
9 1 7 46.53 3.6
9 -1 7 50.7 2.92
9 1 8 341.2 13.69
9 -1 8 353.43 13.82
9 1 9 270.7 11.5
9 -1 9 260.51 10.94
9 1 10 484.93 18.27
9 -1 10 472.81 19.35
9 1 11 147.43 8.1
9 -1 11 159.98 7.83
9 1 12 196.11 10.17
9 -1 12 188.18 9.67
9 1 13 103.77 6.9
9 1 14 60.74 5.73
9 1 15 13.84 4.38
9 -3 0 711.3 23.35
9 -3 0 654.93 21.82
9 3 1 592.81 20.72
9 -3 1 555.77 19.94
9 3 2 21.47 3.27
9 3 3 340.52 13.09
9 3 3 386.97 13.79
9 3 4 100.41 5.63
9 3 4 106.52 4.81
9 3 5 257.94 11.47
9 3 5 299.25 10.77
9 3 6 327.13 13.01
9 3 6 322.27 12.33
9 -3 6 301.84 10.52
9 3 7 142.31 8.38
9 -3 7 146.7 5.42
9 -3 8 832.82 30.03
9 3 9 85.17 5.96
9 -3 9 79.45 4
9 3 10 97.6 7.41
9 3 11 39.04 4.72
9 3 12 222.79 11.8
9 3 13 8.29 3.89
9 3 14 146.44 10.77
9 3 15 1.63 3.76
9 -5 0 182.84 7.6
9 -5 0 176.26 7.3
9 5 1 141.62 7.75
9 5 1 154.58 7.03
9 -5 1 156.52 6.67
9 -5 1 138.03 5.89
9 5 2 291.27 13.3
9 5 2 304.3 11.7
9 -5 2 238.05 10.52
9 -5 2 259.11 9.97
9 5 3 77.72 6.22
9 5 3 108.89 5.51
9 -5 3 83.65 5.2
9 -5 3 76.97 3.83
9 5 4 302.41 12.84
9 -5 4 287.19 11.3
9 -5 4 264.23 9.6
9 -5 4 276.58 10.05
9 5 5 455.56 19.34
9 5 5 465.09 17.27
9 -5 5 400.64 16.11
9 5 6 293.18 13
9 5 6 277.38 11.65
9 -5 6 228.95 10.23
9 5 7 475.86 18.32
9 5 8 109.61 7.73
9 5 8 133.71 7.28
9 5 9 215.55 11.98
9 5 9 229.45 10.9
9 5 10 32.18 5.5
9 5 11 38.36 6.74
9 5 13 29.95 5.22
9 -7 0 22.54 4.4
9 -7 1 307.88 13.83
9 7 2 15.38 3.14
9 -7 2 13.63 3.22
9 7 3 142.58 8.94
9 7 3 177.99 8.61
9 7 4 37.04 5.96
9 7 4 37.93 3.86
9 7 5 145.99 9.92
9 7 5 176.42 9.43
9 7 6 24.02 5.96
9 7 6 51.9 4.28
9 7 7 124.96 8.11
9 7 7 83.31 7.24
9 7 8 16.69 4.35
9 7 8 25.7 3.26
9 7 9 121.73 9.46
9 7 9 115.41 8.07
9 7 10 82.09 8.25
9 9 4 8.46 3.26
9 9 5 244.83 15.1
10 -8 -13 39.09 5.92
10 -8 -12 30.31 4.97
10 -8 -11 37.82 5.07
10 -8 -10 12.48 3.49
10 -8 -9 129.72 9.13
10 -8 -8 2.65 3.5
10 -8 -7 285.12 13.71
10 -8 -6 2.67 4.8
10 -8 -5 419.62 17.63
10 -8 -4 9.78 3.55
10 -8 -3 202.54 10.31
10 -8 -2 6.91 3.13
10 -8 -1 208.49 10.99
10 -6 -17 145.24 9.61
10 -6 -16 143.75 9.93
10 -6 -15 198.77 10.93
10 -6 -14 33.01 5.36
10 -6 -13 112.68 7.09
10 -6 -12 12.68 3.62
10 -6 -11 372.82 16.36
10 -6 -10 28.34 5.29
10 -6 -9 125.27 6.98
10 -6 -8 152.32 8.54
10 -6 -7 118.88 6.84
10 -6 -6 485.27 19.2
10 -6 -5 103.1 7.35
10 6 -4 63.41 4.34
10 -6 -4 70.92 5.57
10 -6 -3 19.56 4.21
10 -6 -2 221.85 10.17
10 -6 -1 93.17 6.78
10 -6 -1 120.37 6.65
10 -4 -20 31.71 4.47
10 -4 -19 148.87 9.4
10 -4 -18 278.51 15.23
10 -4 -17 40.47 4.64
10 -4 -16 104.98 7.61
10 -4 -15 30.51 3.79
10 -4 -14 45.1 5.09
10 -4 -13 48.32 5.19
10 -4 -12 199.92 8.78
10 -4 -11 363.17 15.27
10 4 -10 85.26 3.63
10 -4 -10 81.7 5.3
10 -4 -9 364.92 13.93
10 4 -8 59.48 2.86
10 -4 -8 70.45 5.41
10 4 -7 233.22 9.54
10 -4 -7 232.21 10.15
10 4 -6 375.64 14.42
10 -4 -6 369.57 14.13
10 4 -5 574.84 22.96
10 -4 -5 618.51 21.83
10 4 -4 971.35 35.09
10 -4 -4 925.74 31.34
10 -4 -4 964.54 35.65
10 4 -3 996.53 35.76
10 -4 -3 843.88 31.5
10 -4 -3 1035.73 34.71
10 4 -2 1249.68 48.44
10 -4 -2 1327.25 45.59
10 -4 -2 1409.3 47.81
10 -4 -1 125.64 6.24
10 -4 -1 126.28 5.3
10 -2 -21 36.52 3.3
10 -2 -20 198.63 10.94
10 -2 -19 9.61 2.64
10 -2 -18 381.33 15.55
10 -2 -17 60.62 4.44
10 -2 -16 313.82 12.84
10 -2 -15 167.42 8.56
10 2 -14 310.43 11.69
10 2 -14 314.94 11.41
10 -2 -14 311.31 12.92
10 2 -13 52.9 2.32
10 2 -13 55.97 2.48
10 -2 -13 56.64 4.02
10 2 -12 985.06 35.08
10 2 -12 996.99 33.84
10 -2 -12 1011.91 34.78
10 2 -11 17.42 1.37
10 -2 -11 18.42 2.88
10 2 -10 204.58 7.81
10 -2 -10 221.3 8.94
10 -2 -10 206.91 9.3
10 2 -9 44.84 2.33
10 -2 -9 49.88 3.96
10 -2 -9 38.55 2.56
10 2 -8 471.21 16.56
10 -2 -8 443.25 16.71
10 -2 -8 454.95 17.56
10 2 -7 48.34 2.65
10 -2 -7 41.55 3.78
10 -2 -7 53.89 3.67
10 2 -6 555.63 20.35
10 -2 -6 565.4 20
10 -2 -6 627.43 21.36
10 -2 -6 556.39 21.03
10 2 -5 760.21 25.93
10 -2 -5 620.55 23.95
10 -2 -5 777.05 26.29
10 -2 -5 728.1 25.25
10 2 -4 734.5 25.33
10 -2 -4 634.93 21.52
10 -2 -4 675.15 23.78
10 2 -3 110.22 4.83
10 -2 -3 89.62 5.36
10 2 -2 1211.38 38.94
10 2 -1 172.06 7.52
10 0 -20 255.06 15.21
10 0 -18 312.83 14.12
10 0 -17 -0.42 1.89
10 0 -16 644.15 23.7
10 0 -14 109.27 5.18
10 0 -14 114.21 5.25
10 0 -13 2.37 1.94
10 0 -13 -1.04 1.36
10 0 -12 222.63 8.76
10 0 -12 263.57 9.28
10 0 -10 20.92 2.62
10 0 -10 31.22 2.5
10 0 -9 3.52 1.97
10 0 -9 -1.14 1.45
10 0 -8 1387.2 48.39
10 0 -8 1624.13 49.69
10 0 -7 3.83 1.61
10 0 -7 -0.1 1.13
10 0 -6 2655.04 80.95
10 0 -4 4013.01 125.32
10 0 -3 -3.61 2.07
10 0 -2 1387.73 47.95
10 0 -1 2.09 2.2
10 0 0 2102.58 72.31
10 0 3 1.48 1.58
10 0 4 643.56 22.66
10 0 5 -3.73 1.92
10 0 6 283.31 10.62
10 0 7 2.26 1.74
10 0 8 243.06 11.27
10 0 10 742.26 27.89
10 0 11 -2.99 2.88
10 0 12 432.83 18.37
10 0 13 2.56 3.49
10 2 1 3.36 2.27
10 2 3 451 17.98
10 2 4 696.28 26.21
10 2 5 28.63 3.53
10 -2 5 42.23 1.82
10 2 6 497.3 19.2
10 2 6 504.28 18.03
10 -2 6 467.84 16.31
10 2 7 17.24 4.29
10 2 7 36.78 2.16
10 -2 7 35.82 2.08
10 2 8 243.66 11.2
10 2 8 236.71 9.44
10 -2 8 248.38 9.4
10 2 9 227.67 10.2
10 2 9 216.76 8.71
10 -2 9 202.16 8.74
10 2 10 192.11 10.17
10 -2 10 171.71 8.7
10 2 11 28.53 3.8
10 2 12 126.25 8.76
10 2 13 1.02 3.37
10 2 14 75.01 6.45
10 2 15 7.52 3.05
10 -4 0 391.99 13.52
10 -4 0 355.11 12.65
10 4 1 234.44 10.37
10 -4 1 220.44 8.82
10 -4 1 189.05 6.98
10 4 2 47.27 4
10 -4 2 36.33 3.56
10 4 3 71.16 5.42
10 4 3 70.11 4.71
10 -4 3 67.88 4.62
10 4 4 170.11 7.99
10 4 4 147.71 7
10 -4 4 130.97 6.41
10 4 5 45.02 4.64
10 4 5 66.3 3.8
10 -4 5 52.38 4.19
10 4 6 387.16 16.36
10 4 6 412.84 15.28
10 -4 6 333.55 14.3
10 4 7 284.35 12.32
10 4 7 283.77 11.91
10 4 8 176.92 9.44
10 4 8 163.46 7.94
10 4 9 275.93 13.01
10 4 9 275.21 12.59
10 4 10 129.2 8.95
10 4 11 62.3 6.26
10 4 12 116.32 9.15
10 4 13 198.48 11.96
10 4 14 94.67 7.89
10 -6 0 12.51 2.76
10 -6 1 171.93 8.85
10 6 2 127.84 8.61
10 -6 2 108.31 6.08
10 6 3 324.1 13.94
10 6 3 416.78 16.58
10 -6 3 331.64 15.27
10 6 4 64.13 5.56
10 6 4 48.6 5.21
10 -6 4 48.93 4.26
10 6 5 288.6 14.23
10 6 5 342.65 14.1
10 6 6 25.98 4.55
10 6 6 25.39 3.06
10 6 7 288.29 13.79
10 6 7 303.55 13.35
10 6 8 132.67 10.19
10 6 8 121.4 7.39
10 6 9 121.16 9.39
10 6 9 143.29 9.32
10 6 10 127.84 10.13
10 6 11 74.76 7.37
10 -8 0 14.07 3.25
10 8 4 89.1 6.48
10 8 5 41.57 7.12
10 8 5 51.16 5.95
10 8 6 6.1 4.27
10 8 6 2.76 2.66
10 8 7 91.78 8.55
10 8 7 98.47 8.01
10 8 8 9.6 3.78
11 -9 -10 2.86 3.71
11 -9 -9 37.95 5.11
11 -9 -8 1.71 2.99
11 -9 -7 32.16 5.9
11 -9 -6 9.91 3.77
11 -9 -5 94.04 7.37
11 -9 -4 44.03 5.86
11 -9 -3 125.57 8.62
11 -7 -16 69.39 7.06
11 -7 -15 130.72 10.37
11 -7 -14 -4.47 5.32
11 -7 -13 54.91 5.11
11 -7 -12 16.85 4.03
11 -7 -11 59 6.03
11 -7 -10 31.25 4.86
11 -7 -9 347.16 16.02
11 -7 -8 114.29 6.98
11 -7 -7 445.52 19.13
11 -7 -6 197.56 9.36
11 -7 -5 363.88 16
11 -7 -4 78.65 6.38
11 -7 -3 201.67 11.12
11 -7 -2 32.01 3.52
11 -7 -1 213.27 10.63
11 -5 -19 94.64 9.03
11 -5 -18 87.19 6.7
11 -5 -17 68.82 6.49
11 -5 -16 83.16 6.83
11 -5 -15 118.3 8.13
11 -5 -14 154.31 9.42
11 -5 -13 248.66 11.78
11 -5 -12 46.48 4.49
11 -5 -11 298.25 13.23
11 -5 -10 18.72 3.79
11 -5 -9 199.28 9.03
11 5 -8 111.3 5.27
11 -5 -8 102.66 7.18
11 5 -7 96.74 5.32
11 -5 -7 101.61 5.91
11 5 -6 116.19 5.52
11 -5 -6 145.16 7.15
11 5 -5 310.22 13.9
11 -5 -5 310.15 13.17
11 5 -4 163.14 8.24
11 -5 -4 195.9 9.13
11 -5 -3 626.42 21.51
11 -5 -3 571.56 23.89
11 -5 -2 900.68 29.79
11 -5 -2 799.45 30.38
11 -5 -1 168.98 8.08
11 -5 -1 143.8 6.78
11 -3 -20 280.39 15.15
11 -3 -19 18.11 4.05
11 -3 -18 268.17 12.2
11 -3 -17 126.88 7.63
11 -3 -16 66.6 4.58
11 -3 -15 113.78 6.34
11 -3 -14 235.53 9.88
11 -3 -13 356.67 13.99
11 3 -12 189.16 7.33
11 3 -12 193.23 7.18
11 -3 -12 169.39 7.76
11 3 -11 22.27 1.58
11 -3 -11 10.26 2.86
11 -3 -10 59.88 3.89
11 3 -9 133.56 5.95
11 -3 -9 148.46 6.66
11 3 -8 285.68 10.38
11 -3 -8 248.73 10.21
11 3 -7 185.59 7.56
11 -3 -7 202.36 8.19
11 3 -6 1230.44 46.15
11 -3 -6 1266.12 43.77
11 3 -5 140.57 6.37
11 -3 -5 127.53 5.79
11 -3 -5 140.03 5.9
11 3 -4 1064.6 39.56
11 -3 -4 997.61 37.11
11 -3 -4 1197.37 39.05
11 3 -3 106.9 5.42
11 -3 -3 111.5 6.02
11 -3 -3 96.71 4.41
11 3 -2 1971.62 72.11
11 -3 -2 1966.38 61.11
11 -3 -1 539.69 18.76
11 -1 -21 9.87 2.71
11 -1 -20 205.42 11.43
11 -1 -19 20.08 3.27
11 1 -18 520.39 21.6
11 -1 -18 529 20.91
11 1 -17 26.62 2.11
11 -1 -17 23.95 3.33
11 1 -16 586.37 21.91
11 -1 -16 629.15 24.67
11 1 -15 12.17 1.72
11 -1 -15 19.54 2.92
11 1 -14 202.55 8.59
11 1 -14 213.41 7.95
11 -1 -14 212.95 8.82
11 1 -13 11.76 1.82
11 1 -13 9.47 1.47
11 -1 -13 16.74 2.36
11 -1 -13 18.16 2.49
11 1 -12 61.73 3.21
11 1 -12 54.45 2.96
11 -1 -12 53.93 3.85
11 -1 -12 52.71 3.43
11 1 -11 25.66 2.2
11 1 -11 18.53 1.79
11 -1 -11 9.47 2.84
11 -1 -11 27.99 2.59
11 1 -10 255.24 9.34
11 1 -10 271.48 9.87
11 -1 -10 260.01 10.1
11 -1 -10 271.78 10.61
11 1 -9 237.94 8.68
11 1 -9 246.87 9.12
11 -1 -9 223.02 9.54
11 -1 -9 259.09 9.75
11 1 -8 355.86 12.83
11 -1 -8 339.88 13.65
11 -1 -8 381.17 13.35
11 1 -7 479.44 15.53
11 -1 -7 430.68 16.18
11 -1 -7 468.83 16.29
11 1 -6 2007.25 65.37
11 -1 -6 1882.91 62.15
11 -1 -6 1866.6 62.57
11 1 -5 416.15 14.69
11 -1 -5 387.78 15.12
11 1 -4 1063.09 34.32
11 -1 -4 1062.22 36.97
11 1 -3 281.59 10.37
11 -1 -3 292.79 11.42
11 1 -2 1790.85 62.23
11 1 -1 47.94 3.31
11 1 2 1164.57 41.09
11 1 3 109.9 5.13
11 -1 4 217.49 8.73
11 1 5 41.47 3.04
11 -1 5 20.82 1.92
11 1 6 239.13 9.22
11 -1 6 283.01 10.46
11 1 7 234.87 9.57
11 -1 7 218.53 9.16
11 1 8 387.54 15.97
11 -1 8 418.9 16.78
11 -1 9 136.54 7.4
11 1 10 376.96 17.01
11 -1 10 375.03 16.36
11 1 11 90.32 6.51
11 -1 11 71.08 4.78
11 1 12 243.57 12.75
11 1 13 10.33 3.68
11 3 2 16.73 3.09
11 3 3 46.68 4.01
11 3 4 127.78 7.39
11 3 5 138.97 7.24
11 3 6 634.55 24.26
11 3 6 699.17 24.16
11 3 7 44.64 4.8
11 3 7 55.57 3.41
11 3 8 865.84 31.8
11 3 8 921.15 31.86
11 3 9 47.73 5.34
11 3 10 208.52 9.77
11 3 11 13.73 3.9
11 3 12 384.13 20.5
11 3 13 34.13 5.22
11 3 14 129.41 9.83
11 -5 0 548.69 19.96
11 -5 0 496.99 18.83
11 -5 1 84.27 5.7
11 -5 1 88.79 3.94
11 5 2 216.46 10.25
11 -5 2 203.24 10.27
11 5 3 157.46 9.92
11 -5 3 166.9 7.22
11 5 4 73.65 6.37
11 5 4 83.2 4.55
11 -5 4 57.51 4.13
11 5 5 372.77 16.76
11 5 5 430.65 16.41
11 -5 5 398.51 16.17
11 5 6 13.09 3.86
11 5 6 8.1 2.26
11 5 7 168.32 9.83
11 5 7 162.92 8.08
11 5 8 174.53 9.96
11 5 8 180.79 8.9
11 5 9 31.56 5.21
11 5 10 49.21 6.05
11 5 11 180.41 11.55
11 5 12 17.72 4.41
11 -7 0 82.21 6.22
11 -7 1 213.54 10.64
11 -7 2 32.43 4.39
11 7 4 28.13 4.47
11 7 5 61.57 5.1
11 7 5 65.13 5.06
11 7 6 20.34 4.88
11 7 6 1.54 3.59
11 7 7 155.56 8.81
11 7 7 102.24 7.83
11 7 8 85.44 7.16
11 7 8 92.96 6.8
11 7 9 301.82 19.11
12 -8 -13 16.79 4.54
12 -8 -12 21.01 4.44
12 -8 -11 29.14 4.54
12 -8 -10 -0.42 3.28
12 -8 -9 163.53 10.51
12 -8 -8 19.09 3.82
12 -8 -7 167.97 10.15
12 -8 -6 36.39 5.13
12 -8 -5 182.41 10.01
12 -8 -4 10.52 3.87
12 -8 -3 130.79 7.78
12 -8 -2 53.92 4.97
12 -8 -1 289.31 14.97
12 -6 -17 192.13 10.83
12 -6 -16 127.67 9.71
12 -6 -15 273.16 15.43
12 -6 -14 0.53 3.53
12 -6 -13 206.74 10.71
12 -6 -12 14.62 4.77
12 -6 -11 181.99 9.85
12 -6 -10 82.6 6.31
12 -6 -9 107.05 6.29
12 -6 -8 132.08 7.22
12 -6 -7 111.8 7.51
12 -6 -6 340.61 14.14
12 -6 -5 84.74 5.64
12 -6 -3 215.82 10.11
12 -6 -2 83.41 6.53
12 -6 -1 312.77 13.15
12 -4 -20 154.49 10.57
12 -4 -19 151.23 9.43
12 -4 -18 92.16 6.93
12 -4 -17 36.15 5.19
12 -4 -16 60.95 5.32
12 -4 -15 67.81 5.31
12 -4 -14 551 22.27
12 -4 -13 72.2 6.01
12 4 -12 87.2 3.79
12 -4 -12 84.15 5.22
12 -4 -11 140.5 7.71
12 -4 -10 70.22 4.8
12 4 -9 54.49 2.96
12 -4 -9 36.98 4.13
12 4 -8 120.16 5.4
12 -4 -8 145.13 7.2
12 4 -7 169.11 7.3
12 -4 -7 143.83 7.27
12 4 -6 241.9 9.05
12 -4 -6 213.01 10.01
12 4 -5 477.72 19.41
12 -4 -5 496.95 18.93
12 4 -4 931.8 35.73
12 -4 -4 891.95 32.25
12 -4 -4 962 34.14
12 -4 -3 249.08 9.79
12 -4 -3 236.38 9.19
12 -4 -2 995.44 33.92
12 -4 -2 943 33.59
12 -4 -1 151.59 6.86
12 -2 -21 17.37 2.65
12 -2 -20 116.8 7.91
12 -2 -19 44.71 4.72
12 -2 -18 233.06 11.14
12 -2 -17 101.95 6.22
12 2 -16 275.99 11.54
12 -2 -16 296.78 12.71
12 2 -15 135.42 6.23
12 -2 -15 158.88 7.67
12 2 -14 720.48 27.8
12 -2 -14 763.39 28.06
12 2 -13 128.25 5.58
12 -2 -13 119.92 6.68
12 2 -12 277.17 10.22
12 -2 -12 260.75 11.02
12 2 -11 123.93 5.03
12 2 -11 135.44 5.13
12 -2 -11 125.56 6.63
12 2 -10 142.33 5.59
12 2 -10 163.19 6.08
12 -2 -10 132.04 6.66
12 2 -9 26.9 2
12 -2 -9 23.56 3.48
12 2 -8 123.57 5.1
12 -2 -8 135.22 6.43
12 2 -7 255.51 9.5
12 -2 -7 201.69 8.62
12 2 -6 535.71 17.8
12 -2 -6 501.19 17.32
12 2 -5 25.72 2.44
12 -2 -5 23.63 3.42
12 2 -4 769.11 26.64
12 -2 -4 658.82 23.41
12 2 -3 418.55 16.31
12 0 -20 160.96 9.64
12 0 -19 -0.83 1.88
12 0 -18 464.99 19.19
12 0 -17 6.61 2.13
12 0 -16 379.27 15.1
12 0 -15 4.3 2.15
12 0 -14 105.42 5.66
12 0 -13 -2.12 1.27
12 0 -13 -0.52 1.15
12 0 -12 54.78 4.01
12 0 -12 62.41 3.25
12 0 -11 -2.09 1.25
12 0 -10 723.15 25.34
12 0 -10 775.71 26.54
12 0 -9 -3.36 2.14
12 0 -9 -1.67 1.67
12 0 -8 1155.92 38.49
12 0 -8 1375.76 40.92
12 0 -7 -3.21 1.35
12 0 -6 2631.51 85.59
12 0 -5 4.24 2.07
12 0 -4 873.89 31.54
12 0 -3 1.66 1.35
12 0 4 17.57 2.41
12 0 5 -2.93 2.12
12 0 6 271.63 11.06
12 0 7 7.27 2.87
12 0 8 510.38 19.2
12 0 9 4.12 2.99
12 0 10 353.56 14.99
12 2 2 447.68 17.26
12 2 3 45.42 3.62
12 2 4 392.02 15.89
12 2 6 392.65 16.55
12 2 7 221.57 10.25
12 -2 7 202.94 8.8
12 2 8 215.98 10.18
12 -2 8 163.6 8.69
12 2 9 261.11 10.97
12 2 10 362.09 15.67
12 2 11 104.41 6.52
12 2 12 286.86 14.83
12 2 13 5.42 3.27
12 2 14 166.19 11.19
12 -4 0 11.11 2.8
12 -4 1 201.54 8.98
12 4 2 352.91 15.67
12 -4 2 349.55 14.23
12 4 3 287.87 13.26
12 -4 3 288.36 11.93
12 4 4 157.15 9.67
12 -4 4 168.05 8.04
12 4 5 348.47 15.82
12 4 6 55.28 4.7
12 4 7 322.91 13.78
12 4 7 324.43 13.13
12 4 8 215.48 10.56
12 4 9 224.33 11.1
12 4 10 88.04 7.32
12 4 11 182.93 10.66
12 4 12 94.2 7.42
12 4 13 196.25 13.39
12 -6 0 256.91 11.9
12 -6 1 197.62 9.47
12 -6 2 71.85 5.74
12 6 3 314.81 13.77
12 -6 3 261.44 12.99
12 6 4 10.57 3.76
12 6 5 253.91 11.93
12 6 6 36.5 6.22
12 6 6 51.29 4.56
12 6 7 142.6 9.04
12 6 7 171.25 8.76
12 6 8 70.92 6.87
12 6 9 74.93 8.42
12 6 10 126.55 10.1
12 8 6 0 3.99
13 -9 -9 76.86 7.14
13 -9 -8 9.62 5.99
13 -9 -7 72.45 7.42
13 -9 -6 26.08 4.1
13 -9 -5 45.31 6.28
13 -9 -4 17.68 4.23
13 -7 -16 15.04 4.27
13 -7 -15 197.72 12.4
13 -7 -14 5.94 5.41
13 -7 -13 83.27 6.79
13 -7 -12 5.27 3.69
13 -7 -11 188.14 9.73
13 -7 -10 104.29 7.27
13 -7 -9 293.44 14.87
13 -7 -8 242.02 11.19
13 -7 -7 279.01 12.27
13 -7 -6 59.34 5.48
13 -7 -5 149.24 7.95
13 -7 -4 7.51 3.07
13 -7 -3 154.22 9.05
13 -7 -2 31.48 3.94
13 -7 -1 166.42 8.34
13 -5 -19 43.65 5.48
13 -5 -18 183.55 11.08
13 -5 -17 162.93 10.85
13 -5 -16 195.06 10.76
13 -5 -15 226.45 10.53
13 -5 -14 467.61 20.53
13 -5 -13 350.14 13.55
13 -5 -12 103.59 7.2
13 -5 -11 63.75 5.35
13 -5 -10 170.73 8.87
13 -5 -9 29.74 4.75
13 -5 -8 2.16 3.08
13 -5 -7 113.43 6.99
13 5 -6 26.84 2.41
13 -5 -6 33.73 3.59
13 5 -5 155.71 7.62
13 -5 -5 155.81 6.81
13 -5 -4 64.71 4.34
13 -5 -4 38.55 2.8
13 -5 -3 457.4 16.97
13 -5 -3 351.48 15.61
13 -5 -2 697.92 25.21
13 -5 -2 662.94 24.4
13 -5 -1 49.48 4.7
13 -5 -1 34.24 2.11
13 -3 -20 174.67 10.34
13 -3 -19 25.37 4.29
13 -3 -18 35.6 4.96
13 -3 -17 118.66 7.2
13 -3 -16 145.59 7.55
13 -3 -15 68.04 4.87
13 3 -14 538.77 21.03
13 -3 -14 591.8 22.76
13 3 -13 201.78 8.3
13 -3 -13 207.01 9.65
13 3 -12 250.44 9.45
13 -3 -12 246.52 10.4
13 3 -11 149.31 6.65
13 -3 -11 142.66 6.7
13 3 -10 211.56 9.07
13 -3 -10 225.14 9.33
13 3 -9 80.88 4.13
13 -3 -9 74.32 4.91
13 3 -8 194.27 8.18
13 -3 -8 178.83 7.74
13 3 -7 69.65 3.6
13 -3 -7 60.74 4.45
13 3 -6 648.04 24.83
13 -3 -6 646.02 23.23
13 3 -5 114.65 4.89
13 -3 -5 104.72 5.67
13 -3 -5 107 4.79
13 3 -4 1333.45 47.69
13 -3 -4 1202.28 41.58
13 -3 -3 314.89 13.28
13 -3 -2 594.33 21.86
13 -1 -21 2.73 1.78
13 -1 -20 155.05 9.16
13 -1 -19 18.29 2.67
13 1 -18 401.04 17.16
13 -1 -18 400.22 17.6
13 1 -17 28.18 2.27
13 -1 -17 27.73 3.56
13 1 -16 585.83 22.2
13 -1 -16 618.8 23.56
13 1 -15 9.31 1.82
13 -1 -15 4.4 2.79
13 1 -14 421.63 15.7
13 -1 -14 454.52 16.52
13 1 -13 32.74 2.42
13 1 -13 27.29 2.12
13 -1 -13 30.29 2.75
13 -1 -13 22.18 2.49
13 1 -12 339.26 12.81
13 1 -12 365.42 13.66
13 -1 -12 319.09 12.81
13 -1 -12 339.23 14.1
13 1 -11 36.19 2.89
13 1 -11 30.45 2.12
13 -1 -11 28.86 3.62
13 -1 -11 23.14 2.59
13 1 -10 462.26 17.48
13 1 -10 519.39 18.76
13 -1 -10 509.23 18.83
13 -1 -10 526.04 20.18
13 1 -9 266.86 9.58
13 -1 -9 233.23 9.22
13 -1 -9 249.14 10.36
13 1 -8 223.72 8.92
13 -1 -8 208.01 8.74
13 -1 -8 246.57 10.02
13 1 -7 154.15 6.15
13 -1 -7 138.08 6.47
13 -1 -7 143.22 6.28
13 1 -6 739.78 27.31
13 1 -5 6.84 2.21
13 1 -4 254.15 10.1
13 1 3 82.04 4.46
13 1 4 259.67 10.09
13 1 5 20 2.95
13 1 6 70.43 4.32
13 -1 6 56.5 3.4
13 1 7 106.94 6.2
13 -1 7 112.65 5.18
13 1 8 321.25 13.69
13 -1 8 298.51 11.92
13 1 9 150.05 7.81
13 1 11 14.31 2.58
13 1 12 135.74 9.41
13 3 3 59.88 4.76
13 3 4 100.97 5.93
13 3 5 76.82 6.34
13 3 6 206.39 10.44
13 3 7 171.29 8.81
13 3 8 99.04 6.41
13 3 9 13.99 3.7
13 3 10 164.39 9.14
13 3 12 375.68 22.06
13 3 13 10.44 3.69
13 -5 0 129.86 7.25
13 -5 1 63.82 4.94
13 -5 2 125.99 6.85
13 5 3 274.38 13.86
13 -5 3 221.33 10.46
13 5 4 97.99 6.66
13 -5 4 99.49 6.11
13 5 5 208.17 10.53
13 -5 5 202.98 9.3
13 5 6 20.05 4.3
13 5 7 67.78 6.79
13 5 8 44.59 5.04
13 5 9 89.28 7.74
13 5 10 25.94 4.84
13 5 11 186.89 13.25
13 -7 0 84.37 6.41
13 -7 1 199.31 10.7
13 7 5 42.82 5.44
13 7 6 -3.49 5.85
13 7 7 128.31 11.34
13 7 8 44.96 6.49
14 -8 -13 78.28 7.81
14 -8 -12 7.58 3.47
14 -8 -11 307.58 17.76
14 -8 -10 22.87 4.53
14 -8 -9 352.68 19.72
14 -8 -8 56.18 6.46
14 -8 -7 150.78 10.01
14 -8 -6 5 3.62
14 -8 -5 144.34 8.04
14 -8 -4 23.98 4.93
14 -8 -3 307.83 14.35
14 -8 -2 60.6 5.17
14 -8 -1 276.55 14.89
14 -6 -17 120.34 8.62
14 -6 -16 37.15 5.68
14 -6 -15 279.32 15.68
14 -6 -14 24.53 4.04
14 -6 -13 387.92 17.88
14 -6 -12 81.38 7.26
14 -6 -11 293.34 13.66
14 -6 -10 80.14 5.94
14 -6 -9 80.18 6.85
14 -6 -8 98.95 6.94
14 -6 -7 91.59 6.73
14 -6 -6 21.94 3.62
14 -6 -5 283.6 12
14 -6 -4 176.49 9.09
14 -6 -3 250.2 11.76
14 -6 -2 245.03 11.17
14 -6 -1 494.74 19.89
14 -4 -20 78.55 6.25
14 -4 -19 -1.5 4.08
14 -4 -18 53.62 5.83
14 -4 -17 25.55 3.89
14 -4 -16 177.59 8.61
14 -4 -15 118.98 7.44
14 -4 -14 184.96 8.6
14 4 -13 126.84 5.7
14 -4 -13 141.59 7.54
14 -4 -12 120.17 7.45
14 -4 -11 326.49 13.46
14 -4 -10 0.72 3.08
14 4 -9 128.49 5.64
14 -4 -9 128.8 7.16
14 4 -8 200.57 8.6
14 -4 -8 208.52 9.07
14 4 -7 452.31 16.93
14 -4 -7 415.77 16.18
14 4 -6 262.71 12.15
14 -4 -6 275.51 12.01
14 4 -5 498.82 20.87
14 -4 -5 496.19 18.49
14 -4 -5 478.11 19.05
14 -4 -4 814 30.37
14 -4 -4 827.54 31.19
14 -4 -3 150.11 8.12
14 -4 -2 450.91 16.67
14 -4 -1 181.64 8.6
14 -2 -20 149.77 9.72
14 -2 -19 34.38 4.52
14 -2 -18 233.84 10.32
14 -2 -17 140.52 6.5
14 2 -16 321.82 13.98
14 -2 -16 337.57 13.87
14 2 -15 104.24 5.01
14 -2 -15 107.74 6.16
14 2 -14 1099.36 38.9
14 -2 -14 1082.22 38.36
14 2 -13 227.72 9.46
14 -2 -13 265.63 10.54
14 2 -12 333.32 12.6
14 2 -12 325.27 13.28
14 -2 -12 341.81 13.35
14 2 -11 120.22 5.29
14 2 -11 120.17 5.33
14 -2 -11 113.75 5.79
14 2 -10 361.96 15.22
14 -2 -10 319.54 13.75
14 2 -9 174.98 7.23
14 -2 -9 164.43 7.83
14 2 -8 130.06 5.32
14 -2 -8 113.34 6.07
14 2 -7 64.41 3.5
14 -2 -7 57.15 4.53
14 2 -6 272.3 10.46
14 -2 -6 226.66 9.1
14 2 -5 102.09 5.53
14 -2 -5 116.59 5.66
14 0 -20 140.74 9.31
14 0 -19 3.61 2.12
14 0 -18 300.2 12.63
14 0 -17 1.61 2.04
14 0 -16 200.8 9.08
14 0 -15 -1.06 1.38
14 0 -14 94.79 4.91
14 0 -13 5.21 2.29
14 0 -13 3.67 1.68
14 0 -12 181.22 7.33
14 0 -12 207.64 7.72
14 0 -11 -4.83 1.89
14 0 -10 625.53 23.09
14 0 -10 675.85 22.95
14 0 -9 -7.41 2.44
14 0 -9 -0.52 1.36
14 0 -8 1139.58 37.73
14 0 -7 -0.94 1.88
14 0 -6 654.41 24.62
14 0 6 324.04 13.34
14 0 7 1.54 1.75
14 0 9 -3.51 1.86
14 2 4 276.17 11.21
14 2 5 46.97 5.12
14 2 6 173.82 8.72
14 2 7 140.96 8.3
14 2 8 68.36 5.39
14 2 9 34.37 3.83
14 2 10 236.29 11.71
14 2 11 34.84 3.93
14 2 12 179.34 12.02
14 -4 0 540.78 21.03
14 -4 1 45.11 4.25
14 -4 2 261.77 11.34
14 4 4 278.33 12.96
14 4 5 66.13 5.35
14 4 6 125.6 7.46
14 4 7 39.94 4.85
14 4 8 10.21 3.92
14 4 9 42.21 4.55
14 4 10 77.81 6.53
14 4 11 147.65 9.97
14 -6 0 367.75 16.21
14 -6 1 276.82 12.83
14 -6 2 9.19 3.49
14 -6 3 291.78 14.12
14 6 5 246.1 12.78
14 6 6 38.6 5.67
14 6 8 150.75 12.24
15 -9 -7 5.58 3.86
15 -9 -6 3.12 4.63
15 -9 -5 95.53 7.9
15 -9 -4 59.83 6.82
15 -7 -15 45.12 6.68
15 -7 -13 99.14 7.9
15 -7 -12 52.91 5.77
15 -7 -11 213.35 11.23
15 -7 -10 88.97 6.07
15 -7 -9 198.67 10.06
15 -7 -8 23.05 4.17
15 -7 -7 131.52 7.86
15 -7 -6 19.9 3.88
15 -7 -5 252.69 12.87
15 -7 -4 35.71 5.06
15 -7 -3 246.07 12.31
15 -7 -2 29.65 4.56
15 -7 -1 202.2 10.75
15 -5 -19 30.27 4.19
15 -5 -18 138.45 10.7
15 -5 -17 141.47 9.08
15 -5 -16 106.02 7.75
15 -5 -15 220.13 11.28
15 -5 -14 135.77 8.19
15 5 -13 236.53 10.25
15 -5 -13 253.96 11.85
15 -5 -12 141.61 8.47
15 -5 -11 141.65 7.68
15 -5 -10 71.86 6.68
15 -5 -9 101.46 6.15
15 -5 -8 30.78 3.67
15 -5 -7 226.86 10.74
15 -5 -6 55.34 4.19
15 -5 -5 186.66 9.05
15 -5 -4 83.96 5.05
15 -5 -3 262.93 11.94
15 -5 -2 364.67 14.82
15 -5 -1 328.06 12.99
15 -3 -20 48.77 4.42
15 -3 -19 37.13 4.1
15 -3 -18 1.94 3.01
15 -3 -17 195.16 8.98
15 -3 -16 161.21 8.35
15 3 -15 149.94 6.92
15 -3 -15 136.92 7.84
15 3 -14 404.33 16.29
15 -3 -14 402.93 15.85
15 3 -13 278.31 11.02
15 -3 -13 277.49 11.1
15 3 -12 171.16 7.82
15 -3 -12 152.75 8.01
15 3 -11 16.07 1.91
15 -3 -11 31.16 4.61
15 -3 -10 165.64 8.17
15 3 -10 162.14 7.24
15 3 -9 19.22 2.42
15 -3 -9 14.26 4.04
15 3 -8 274.78 11.15
15 -3 -8 257.63 10.33
15 3 -7 19.41 2.42
15 -3 -7 12.9 3.12
15 3 -6 659.45 25.95
15 -3 -6 672.41 24.74
15 -3 -5 16.39 3.85
15 -3 -4 421.55 15.62
15 -3 -3 388.4 14.75
15 -1 -21 6.05 2.66
15 -1 -20 215.38 12.56
15 -1 -19 30.97 3.99
15 1 -18 204.24 9.67
15 -1 -18 196.08 9.96
15 1 -17 52.62 3.73
15 -1 -17 58.49 4.44
15 1 -16 363.07 14.25
15 -1 -16 398.98 16.05
15 1 -15 10.83 2
15 -1 -15 0.74 2.75
15 1 -14 229.78 9.2
15 -1 -14 231.83 9.18
15 1 -13 11.65 2.17
15 -1 -13 9.76 3.22
15 1 -12 289.24 12.57
15 1 -12 350.83 14.23
15 -1 -12 310.28 12.59
15 1 -11 429.42 15.99
15 1 -11 461.66 17.02
15 -1 -11 391.86 15.07
15 1 -10 775.38 27.28
15 -1 -10 720.36 25.47
15 1 -9 248.96 9.6
15 -1 -9 222.01 9.47
15 1 -8 144.81 6.69
15 -1 -8 161.48 7.61
15 1 -7 27 2.32
15 1 -6 81.99 4.44
15 1 5 26.51 3.7
15 1 6 157.75 7.42
15 1 7 231.2 10.08
15 1 8 166.26 8.69
15 1 9 54.63 4.37
15 3 4 299.26 14.36
15 3 5 51.48 4.44
15 3 6 191.05 10.02
15 3 7 31.63 4.14
15 3 8 185.41 11.07
15 3 9 26.83 3.84
15 3 10 315.03 19.83
15 3 11 22.75 3.93
15 3 12 282.96 16.25
15 -5 0 626.42 22.72
15 -5 1 389.23 17.12
15 -5 2 562.61 22.53
15 -5 3 457.63 20.19
15 -5 4 251.23 11.14
15 5 5 99.23 7.06
15 5 6 112.09 7.8
15 5 7 13.35 3.83
15 5 8 28.4 4.67
15 5 9 63.77 6.66
15 5 10 47.17 5.71
15 -7 0 22.62 3.4
16 -8 -12 43.92 6.92
16 -8 -11 150.65 10.62
16 -8 -10 28.86 5.25
16 -8 -9 96.62 8.22
16 -8 -8 -9.28 4.22
16 -8 -7 28.96 4.34
16 -8 -6 6.79 3.82
16 -8 -5 201.2 12.59
16 -8 -4 46.16 5.23
16 -8 -3 181.37 11.99
16 -8 -2 16.68 4.6
16 -6 -17 84.57 7.92
16 -6 -16 13.83 5.75
16 -6 -15 340.59 17.59
16 -6 -14 -1.47 3.37
16 -6 -13 91.67 7.02
16 -6 -12 382.2 16.43
16 -6 -11 137.45 7.06
16 -6 -10 85.55 5.99
16 -6 -9 188.91 9.59
16 -6 -8 36.76 4.93
16 -6 -7 55.31 5.76
16 -6 -6 2.16 4.02
16 -6 -5 229.95 10.6
16 -6 -4 56.18 5.61
16 -6 -3 229.01 11.2
16 -6 -2 38.17 4.08
16 -6 -1 289.15 14.32
16 -4 -20 4.5 3.64
16 -4 -19 9.23 3.76
16 -4 -18 41.02 5.81
16 -4 -17 29.69 4.83
16 -4 -16 162.26 9.99
16 -4 -15 115.8 6.61
16 4 -14 297.99 12.01
16 -4 -14 343.28 15.69
16 4 -13 122.8 5.58
16 -4 -13 133.39 7.84
16 -4 -12 316.93 13.7
16 -4 -11 74.3 5.84
16 -4 -10 184.8 9.68
16 -4 -9 157.85 7.71
16 -4 -8 225.76 10.74
16 4 -7 323.08 15.2
16 -4 -7 333.69 14.5
16 -4 -6 38.41 4.46
16 -4 -5 259.23 11.24
16 -4 -4 215.09 9.34
16 -4 -3 63.7 4.62
16 -4 -2 196.21 9.61
16 -4 -1 153.05 7.45
16 -2 -21 -5.34 3.42
16 -2 -20 27.19 4.19
16 -2 -19 95.53 6.85
16 -2 -18 96.43 5.66
16 2 -17 35.98 2.75
16 -2 -17 37.92 3.65
16 2 -16 538.03 22.49
16 -2 -16 572.89 21.69
16 2 -15 13.63 1.88
16 -2 -15 24.35 3.69
16 2 -14 494.66 18.9
16 -2 -14 477.54 18.44
16 2 -13 159.29 7.71
16 -2 -13 180.47 8.04
16 2 -12 460.96 18.59
16 -2 -12 495.26 18.04
16 2 -11 138.74 6.71
16 -2 -11 139.4 7.36
16 2 -10 130.72 6.38
16 -2 -10 139.85 7.22
16 2 -9 23.53 2.43
16 -2 -9 18.47 4.14
16 2 -8 340.77 14.27
16 -2 -8 330.46 13.38
16 2 -7 80.75 4.98
16 -2 -7 84.89 5.56
16 -2 -6 20.1 3.94
16 0 -20 131.64 8.17
16 0 -19 -3.54 2.15
16 0 -18 209.08 10.3
16 0 -17 2.02 1.71
16 0 -16 170.55 7.82
16 0 -15 4.81 2.51
16 0 -14 754.25 27.58
16 0 -13 4.22 2.78
16 0 -12 1649.76 57.14
16 0 -12 1853.88 61.55
16 0 -10 1018.99 35.21
16 0 -10 1107.27 40.12
16 2 5 72.4 4.48
16 2 6 290.92 13.69
16 2 7 44.57 3.96
16 2 8 58.47 5.22
16 2 9 43.6 4.9
16 2 10 168.39 11.11
16 -4 0 301.16 12.45
16 -4 1 111.56 7.03
16 4 5 71.77 6.14
16 4 7 47.7 5.73
16 4 8 77.2 7
16 4 9 117.48 8.79
16 4 10 112.62 8.99
16 -6 0 77.39 6.1
16 -6 1 263.24 13.72
16 -6 2 9.35 3.68
16 6 7 20.51 4.58
17 -7 -15 49.33 6.74
17 -7 -14 51.52 5.77
17 -7 -13 183.97 10.79
17 -7 -12 50.83 7.07
17 -7 -11 393.93 20.42
17 -7 -10 47.13 6.12
17 -7 -9 205.11 10.62
17 -7 -8 13.17 4.98
17 -7 -7 73.51 7.08
17 -7 -6 38.17 5.53
17 -7 -5 347.22 15.78
17 -7 -4 39.98 4.94
17 -7 -3 103.85 7.59
17 -7 -2 93.52 6.97
17 -7 -1 97.75 5.93
17 -5 -18 121.79 8.08
17 -5 -17 148.71 12.31
17 -5 -16 78.74 7.02
17 -5 -15 165.63 9.64
17 -5 -14 102.52 7.65
17 -5 -13 81.25 6.03
17 -5 -12 166.99 8.68
17 -5 -11 45.46 4.91
17 -5 -10 55.42 5.9
17 -5 -9 165.98 9.36
17 -5 -8 89.17 6.4
17 -5 -7 94.92 6.41
17 -5 -6 6.02 4.08
17 -5 -5 58.27 5.33
17 -5 -4 86.3 6.59
17 -5 -3 188.89 9.44
17 -5 -2 292.87 13.02
17 -5 -1 58.96 5.92
17 -3 -20 22.47 3.33
17 -3 -19 54.18 5.92
17 -3 -18 22.35 4.92
17 -3 -17 64.77 5.78
17 3 -16 283.97 12.87
17 -3 -16 305.85 13.64
17 3 -15 28.66 2.31
17 -3 -15 39.38 5.05
17 3 -14 216.11 9.21
17 -3 -14 189.78 9.95
17 3 -13 72.06 3.86
17 -3 -13 84 5.58
17 -3 -12 309.94 12.26
17 -3 -11 86.76 5.6
17 -3 -10 479.53 18.11
17 3 -9 55.88 4.22
17 -3 -9 53.8 5.04
17 3 -8 506.59 20.6
17 -3 -8 499.81 18.44
17 -3 -7 100.62 6.07
17 -3 -6 408.02 14.96
17 -3 -5 26.92 3.66
17 -3 -4 25.27 3.57
17 -1 -21 26.48 3.25
17 -1 -20 123.51 8.57
17 1 -19 2.69 1.83
17 1 -18 60.81 3.88
17 -1 -18 69.32 4.97
17 1 -17 14.85 2.55
17 -1 -17 26.59 3.93
17 1 -16 183.66 8.24
17 -1 -16 194.69 8.59
17 1 -15 73.19 4.61
17 -1 -15 81.69 5.77
17 1 -14 568.54 20.3
17 -1 -14 561.36 19.6
17 1 -13 212.82 8.45
17 -1 -13 168.81 8.69
17 1 -12 626.04 23.98
17 1 -12 671.14 26.1
17 -1 -12 635.57 22.97
17 1 -11 145.63 6.23
17 1 -11 131.48 6.84
17 -1 -11 168.35 7.49
17 1 -10 438.68 18.51
17 -1 -10 396.04 15.17
17 1 -9 135.37 6.5
17 -1 -9 98.16 5.6
17 -1 -8 154.03 6.73
17 1 8 119.45 7.39
17 3 6 85.15 6.3
17 3 7 12.11 4.49
17 3 8 167.26 11.27
17 3 10 193.44 14.08
17 -5 0 221.59 10.96
17 -5 1 298.43 13.18
17 -5 2 137.33 7.61
17 -5 3 153.5 8.75
17 5 7 95.96 8.09
17 5 8 -7.32 3.56
17 -7 0 10.98 3.7
18 -8 -11 177.36 12.14
18 -8 -10 13.48 3.76
18 -8 -9 139.34 9.87
18 -8 -8 -6.19 3.57
18 -8 -7 127.91 9.5
18 -8 -6 -1.16 3.48
18 -8 -5 228.04 12.75
18 -8 -4 65.67 7.11
18 -8 -3 134.08 9.69
18 -6 -16 26.16 4.54
18 -6 -15 120.42 9.98
18 -6 -14 109.72 8.04
18 -6 -13 123.08 8.3
18 -6 -12 333.14 15.11
18 -6 -11 161.32 9.76
18 -6 -10 66.93 5.94
18 -6 -9 114.38 7.78
18 -6 -8 17.69 3.48
18 -6 -7 62.22 5.64
18 -6 -6 76.22 5.15
18 -6 -5 202.28 9.65
18 -6 -4 18.86 3.42
18 -6 -3 233.35 10.04
18 -6 -2 34.82 4.9
18 -6 -1 207.14 10.7
18 -4 -19 53.99 5.05
18 -4 -18 73.5 6.43
18 -4 -17 73.9 6.82
18 -4 -16 175.06 9.77
18 4 -15 111.07 5.39
18 -4 -15 103.22 6.41
18 4 -14 144.05 6.97
18 -4 -14 149.23 8.44
18 -4 -13 155.51 7.95
18 -4 -12 234.51 10.77
18 -4 -11 222.78 11.09
18 -4 -10 104.87 6.88
18 -4 -9 339.02 13.68
18 -4 -8 289.82 13.07
18 -4 -7 337.26 14.83
18 -4 -6 165.06 9.37
18 -4 -5 99.15 6.74
18 -4 -4 22.22 3.28
18 -4 -3 128.16 6.9
18 -4 -2 316.85 13.25
18 -4 -1 97.05 6.4
18 -2 -21 81.99 7.05
18 -2 -20 135.19 9.35
18 -2 -19 59.85 5.38
18 -2 -18 246.35 12.36
18 2 -17 4.23 1.69
18 -2 -17 0.84 2.53
18 2 -16 389.74 16.48
18 -2 -16 347.86 13.89
18 2 -15 118.17 6.09
18 -2 -15 140.05 7.55
18 2 -14 172.55 8.45
18 -2 -14 195.38 9.15
18 2 -13 127.6 6.26
18 -2 -13 122.31 7.71
18 -2 -12 481.78 18.61
18 -2 -11 34.29 4.47
18 2 -10 419.74 18.58
18 -2 -10 428.48 17.43
18 2 -9 38.08 3.07
18 -2 -9 34.99 4.25
18 -2 -8 268.4 11.09
18 -2 -7 26.65 3.04
18 0 -20 62.46 5.07
18 0 -19 4.18 2.25
18 0 -18 61.89 4.22
18 0 -17 5.77 3.15
18 0 -16 211.3 8.67
18 0 -15 -3.3 2.79
18 0 -14 459.12 17.57
18 0 -13 -0.41 2.67
18 0 -12 1207.3 41.35
18 0 -11 1.43 2.77
18 0 -10 475.43 17.71
18 -4 0 129.97 7.23
18 4 8 172 11.13
18 -6 0 18.7 4.91
18 -6 1 206.16 10.82
19 -7 -14 12.15 3.74
19 -7 -13 218.97 14.84
19 -7 -12 76.87 7.34
19 -7 -11 198.52 12.4
19 -7 -10 76.94 5.37
19 -7 -9 109.19 8.37
19 -7 -8 51.35 5.28
19 -7 -7 449.51 23.52
19 -7 -6 15.49 3.54
19 -7 -5 285.61 15.08
19 -7 -4 5.44 3.35
19 -7 -3 91.05 6.93
19 -7 -2 36.3 5.25
19 -7 -1 82.73 6.63
19 -5 -18 28.06 5.85
19 -5 -17 106.35 8.49
19 -5 -16 32.23 6.09
19 -5 -15 71.03 6.26
19 -5 -14 189.96 10.8
19 -5 -13 28.8 4.62
19 -5 -12 155.54 9.51
19 -5 -11 140.75 7.43
19 -5 -10 90.55 6.29
19 -5 -9 343.15 14.95
19 -5 -8 139.56 8.33
19 -5 -7 291.62 12.77
19 -5 -6 44.1 4.8
19 -5 -5 103.25 5.96
19 -5 -4 40.76 4.64
19 -5 -3 187.87 9.74
19 -5 -2 237.55 11.13
19 -5 -1 239.99 10.32
19 -3 -20 120.61 8.84
19 -3 -19 71.19 5.58
19 -3 -18 162.16 9.43
19 -3 -17 37.29 4.33
19 3 -16 125.71 6.75
19 -3 -16 120.99 6.85
19 3 -15 20.76 2.07
19 -3 -15 17.32 3.94
19 3 -14 220.64 9.91
19 -3 -14 252.22 11.61
19 -3 -13 51.87 5.01
19 -3 -12 516.48 18.77
19 -3 -11 91.61 5.48
19 -3 -10 986.06 36.32
19 -3 -9 48.55 4.85
19 -3 -8 760.97 28.18
19 -3 -7 110.92 6.3
19 -3 -6 161.23 9.28
19 -3 -5 16.22 3.16
19 -3 -4 64.24 5.53
19 -1 -21 2.47 1.94
19 -1 -20 76.28 6.3
19 1 -19 10.74 2.16
19 -1 -19 24.12 3.52
19 1 -18 103.08 6.22
19 -1 -18 109.41 6.33
19 -1 -17 5.44 3.45
19 1 -16 233.82 10.4
19 -1 -16 194.14 9.27
19 1 -15 20.34 2.88
19 -1 -15 14.85 3.51
19 1 -14 795.87 29.42
19 -1 -14 818.41 31.24
19 1 -13 263.65 10.07
19 -1 -13 235.26 9.93
19 1 -12 581.14 20.71
19 -1 -12 628.34 21.96
19 -1 -11 289.58 11.95
19 -1 -10 1091.81 39.98
19 -1 -9 80.58 5.82
19 -5 0 124.36 7.38
19 -5 1 159.49 9.24
19 -5 2 206.6 11.42
19 -5 3 117.72 7.67
20 -8 -8 40.16 4.71
20 -8 -7 244.27 15.36
20 -8 -6 35.33 6.31
20 -8 -5 283.07 16.92
20 -8 -4 9.5 4.96
20 -6 -16 11.6 3.55
20 -6 -15 110.86 8.43
20 -6 -14 73.94 7.64
20 -6 -13 89.92 6.68
20 -6 -12 152.73 9.83
20 -6 -11 48.57 5.5
20 -6 -10 53.01 5.6
20 -6 -9 88.92 6.84
20 -6 -8 42.57 5.62
20 -6 -7 97.92 8.1
20 -6 -6 177.14 10.11
20 -6 -5 184.91 10.05
20 -6 -4 13.04 3.11
20 -6 -3 152.21 8.65
20 -6 -2 48.42 5.51
20 -6 -1 130.05 8.14
20 -4 -19 72.97 5.87
20 -4 -18 74.56 6.48
20 -4 -17 63.05 6.74
20 -4 -16 36.08 4.59
20 4 -15 73.87 4.42
20 -4 -15 57.81 4.87
20 -4 -14 20.41 5.03
20 -4 -13 57.75 5.2
20 -4 -12 182.15 9.57
20 -4 -11 230.02 11.46
20 -4 -10 508.46 20.1
20 -4 -9 368.01 16.63
20 -4 -8 434.14 17.81
20 -4 -7 157.86 9.17
20 -4 -6 149.31 7.88
20 -4 -5 47.09 5.43
20 -4 -4 170.3 8.55
20 -4 -3 138.72 8.35
20 -4 -2 229.22 10.76
20 -4 -1 89.54 6.49
20 -2 -20 102.69 7.85
20 -2 -19 5.18 2.75
20 2 -18 121.81 7.36
20 -2 -18 107.41 7.63
20 2 -17 67.14 4.55
20 -2 -17 62.32 5.76
20 2 -16 100.22 5.66
20 -2 -16 114.37 7.61
20 2 -15 168.91 8.38
20 -2 -15 171.99 9.24
20 2 -14 125.09 7.11
20 -2 -14 134.59 7.52
20 2 -13 40.76 3.44
20 -2 -13 43.39 4.8
20 -2 -12 184.45 9.22
20 -2 -11 28.15 4.37
20 -2 -10 435.13 17.3
20 -2 -9 16.16 3.25
20 -2 -8 424.08 17.09
20 -2 -7 39.13 4.28
20 0 -21 -0.43 1.41
20 0 -20 119.55 7.95
20 0 -19 -5.19 1.8
20 0 -18 48.02 3.6
20 0 -17 8.29 3.11
20 0 -16 194.19 8.82
20 0 -15 5.24 2.98
20 0 -14 236.04 10.41
20 0 -13 2.37 3.4
20 0 -12 1015.83 36.71
20 -4 0 85.08 5.97
20 -6 0 17.46 3.95
21 -7 -12 58.2 6.88
21 -7 -11 193.47 12.96
21 -7 -10 15.91 5.54
21 -7 -9 149.32 10.92
21 -7 -8 154.46 10.95
21 -7 -7 306.73 16.72
21 -7 -6 64.72 6.33
21 -7 -5 118.97 8.65
21 -7 -4 7.71 3.86
21 -7 -3 30.88 4.39
21 -7 -2 30.69 4.91
21 -5 -17 26.4 4.4
21 -5 -16 6.76 5.2
21 -5 -15 25.79 4.85
21 -5 -14 57.45 6.56
21 -5 -13 34.71 5.3
21 -5 -12 4.46 3.65
21 -5 -11 177.67 10.45
21 -5 -10 50.55 6.07
21 -5 -9 192.91 10.57
21 -5 -8 72.21 5.8
21 -5 -7 84.72 6.23
21 -5 -6 105.84 6.57
21 -5 -5 57.12 5.66
21 -5 -4 285.36 12.95
21 -5 -3 255.82 13.06
21 -5 -2 55.04 5.17
21 -5 -1 74.41 5.69
21 -3 -19 13.62 4.01
21 -3 -18 242.23 13.37
21 3 -17 57.76 4.14
21 -3 -17 50.38 5.23
21 3 -16 42.25 3.44
21 -3 -16 37.7 4.87
21 3 -15 5.9 1.76
21 -3 -15 32.3 5.04
21 3 -14 26.97 3.03
21 -3 -14 43.45 5.63
21 -3 -13 81.3 6.32
21 -3 -12 243.82 11.74
21 -3 -11 21.37 4.86
21 -3 -10 450.1 19.57
21 -3 -9 79.52 6.81
21 -3 -8 300.34 13.58
21 -3 -7 144.18 8.59
21 -3 -6 53.68 4.81
21 -3 -5 157.65 9.56
21 -1 -20 221.99 13.25
21 1 -19 11.86 2.97
21 -1 -19 2.52 2.63
21 1 -18 177.61 10.57
21 -1 -18 197.15 11.94
21 1 -17 22.15 3.2
21 -1 -17 17.6 2.8
21 1 -16 99.91 6.13
21 -1 -16 71.35 5.29
21 1 -15 14.23 2.99
21 -1 -15 -2.37 3.7
21 1 -14 366.35 14.54
21 -1 -14 334.14 14.44
21 1 -13 52.46 3.45
21 -1 -13 48.98 4.63
21 1 -12 77.05 4.91
21 -1 -12 64.45 4.84
21 -1 -11 13.12 2.77
21 -1 -10 156.79 8.34
21 -5 0 130.62 8.18
21 -5 1 80.5 6.09
21 -5 2 97.79 7.84
22 -6 -15 82.12 7.64
22 -6 -14 41.28 5.13
22 -6 -13 38.45 4.7
22 -6 -12 61.13 6.31
22 -6 -11 34.55 6.2
22 -6 -10 49.31 6.41
22 -6 -9 172.89 10.42
22 -6 -8 100.85 7.98
22 -6 -7 77.93 7.6
22 -6 -6 158.75 9.91
22 -6 -5 262.09 14.19
22 -6 -4 27.92 4.76
22 -6 -3 224.87 12.58
22 -6 -2 10.98 3.31
22 -6 -1 99.19 8.61
22 -4 -18 83.5 7.58
22 -4 -17 81.68 6.79
22 -4 -16 9.62 3.31
22 4 -15 41.32 3.46
22 -4 -15 26.39 5.44
22 -4 -14 22.85 3.88
22 -4 -13 130.36 8.66
22 -4 -12 225.62 10.69
22 -4 -11 337.41 14.65
22 -4 -10 543.17 22.4
22 -4 -9 86.91 6.6
22 -4 -8 266.44 11.56
22 -4 -7 48.91 5.62
22 -4 -6 102.04 7.7
22 -4 -5 120.3 8.85
22 -4 -4 184.22 9.92
22 -4 -3 52.31 5.77
22 -4 -2 57.63 5.15
22 -4 -1 100.8 7.42
22 -2 -20 300.71 16.98
22 -2 -19 52.93 5.58
22 2 -18 250.61 13.57
22 -2 -18 218.27 13.05
22 2 -17 41.3 4.05
22 -2 -17 36.79 5.6
22 2 -16 227.22 11.46
22 -2 -16 277.57 12.01
22 2 -15 77.61 5.23
22 -2 -15 48.09 5.25
22 2 -14 70.63 4.94
22 -2 -14 90.69 6.38
22 -2 -13 35.9 3.69
22 -2 -12 168.35 8.94
22 -2 -11 -1.23 3.78
22 -2 -10 314.25 12.87
22 -2 -9 15.83 3.47
22 -2 -8 388.78 15.75
22 0 -20 126.78 8.25
22 0 -19 -5.64 2.09
22 0 -18 40.68 4.68
22 0 -17 -0.52 2.99
22 0 -16 179.11 8.26
22 0 -15 12.18 3.82
22 0 -14 462.8 19.5
22 0 -13 14.51 2.9
22 0 -12 368.16 14.58
22 0 -11 2.17 2.58
22 -4 0 78.12 6.27
22 -6 0 18.42 4.35
23 -7 -10 32.82 5.54
23 -7 -9 110.28 9.26
23 -7 -8 54.31 6.5
23 -7 -7 252.75 15.24
23 -7 -6 23.62 4.14
23 -7 -5 99.41 8.83
23 -7 -4 -1.97 3.12
23 -5 -16 56.27 6
23 -5 -15 47.17 5.44
23 -5 -14 -5.61 4.38
23 -5 -13 60.41 5.9
23 -5 -12 18.03 4.05
23 -5 -11 195.39 11.98
23 -5 -10 90.93 7.92
23 -5 -9 174.7 9.99
23 -5 -8 221.99 11.77
23 -5 -7 56.19 6.55
23 -5 -6 219.03 10.93
23 -5 -5 126.84 8.88
23 -5 -4 171.8 10.86
23 -5 -3 145.89 9.32
23 -5 -2 152 10.34
23 -5 -1 38.62 4.95
23 -3 -19 74.75 5.38
23 -3 -18 93.32 8.37
23 3 -17 81.22 6.49
23 -3 -17 79.93 6.55
23 3 -16 26.24 3.85
23 -3 -16 47.63 5.78
23 3 -15 26.41 2.83
23 -3 -15 27.18 3.49
23 -3 -14 106.15 6.37
23 -3 -13 25.88 4.79
23 -3 -12 390.58 17.03
23 -3 -11 27.37 5.5
23 -3 -10 381.16 16.6
23 -3 -9 62.13 5.31
23 -3 -8 316.41 14.79
23 -3 -7 69.82 4.93
23 -3 -6 170.16 10.2
23 -3 -5 76.27 5.47
23 1 -20 205.13 12.53
23 -1 -20 202.21 12
23 1 -19 6.68 2.4
23 -1 -19 21.34 3.75
23 1 -18 196.93 10.67
23 -1 -18 185.96 11.62
23 1 -17 14.52 3.09
23 -1 -17 18.58 3.41
23 1 -16 418.57 18.15
23 -1 -16 412.61 16.97
23 1 -15 0.94 2.18
23 -1 -15 3.3 2.48
23 1 -14 123.84 7.26
23 -1 -14 95.99 6.12
23 1 -13 154.29 7.79
23 -1 -13 141.18 7.28
23 -1 -12 50.94 4.44
23 -1 -11 64.54 5.06
23 -1 -10 268.28 13.65
23 -5 0 72.79 5.77
23 -5 1 0.21 2.98
24 -6 -13 11.81 3.77
24 -6 -11 35.09 6
24 -6 -10 33.82 5.5
24 -6 -9 149.4 10.23
24 -6 -8 153.13 10.27
24 -6 -7 100.79 7.82
24 -6 -6 65.21 7.12
24 -6 -5 199.2 12.01
24 -6 -4 15.29 4.75
24 -6 -3 62.21 6.83
24 -6 -2 -4.23 4.03
24 -6 -1 52.72 5.79
24 -4 -17 39.18 4.88
24 4 -16 60 4.74
24 -4 -16 64.06 6.5
24 -4 -15 58.78 6.36
24 -4 -14 46.59 6.63
24 -4 -13 216.39 13.06
24 -4 -12 96.23 7.33
24 -4 -11 159.32 9.68
24 -4 -10 42.11 5.9
24 -4 -9 62.01 5.51
24 -4 -8 120.21 8.71
24 -4 -7 119.46 7.92
24 -4 -6 167.93 9.09
24 -4 -5 92.46 7.02
24 -4 -4 200.12 10.16
24 -4 -3 46.3 6.4
24 -4 -2 176.49 10.65
24 -4 -1 51.57 5.97
24 -2 -19 45.01 5.95
24 2 -18 125.62 8.31
24 -2 -18 133.24 9.19
24 2 -17 93.88 6.69
24 -2 -17 92.26 6.45
24 2 -16 119.51 7.57
24 -2 -16 152.07 9.03
24 2 -15 9.21 2.41
24 -2 -15 15.65 3.5
24 2 -14 51.33 5.04
24 -2 -14 65.1 6.18
24 -2 -13 20.85 4.73
24 -2 -12 30.69 4.42
24 -2 -11 13.54 5.13
24 -2 -10 256.04 13
24 -2 -9 91.33 6.79
24 -2 -8 457.82 18.2
24 0 -20 109.16 7.36
24 0 -19 6.12 3.42
24 0 -18 312.26 17.5
24 0 -17 14.56 3.72
24 0 -16 487.02 20.96
24 0 -15 -0.73 2.7
24 0 -14 99.75 6.39
24 0 -13 6.45 2.5
24 0 -12 158.51 8.26
24 -4 0 25.62 4.31
25 -5 -15 128.33 9.65
25 -5 -14 1.63 3.36
25 -5 -13 53.87 5.9
25 -5 -12 22.14 4.06
25 -5 -11 95.73 7.33
25 -5 -10 15.68 5.19
25 -5 -9 28.19 5.72
25 -5 -8 216.58 12.74
25 -5 -7 102.66 8.44
25 -5 -6 275.36 16.43
25 -5 -5 323.86 18.54
25 -5 -4 109.73 8.79
25 -5 -3 105.23 8.68
25 -5 -2 145.89 11.67
25 -5 -1 58.1 6.08
25 -3 -18 85.77 7.2
25 3 -17 81.25 5.69
25 -3 -17 117.88 9.04
25 3 -16 57.09 5.57
25 -3 -16 83.08 6.1
25 3 -15 3.77 2.83
25 -3 -15 19.52 4.93
25 -3 -14 236.46 12.78
25 -3 -13 48.08 5.94
25 -3 -12 261.83 12.66
25 -3 -11 35.7 5.63
25 -3 -10 99.33 6.88
25 -3 -9 44.01 4.72
25 -3 -8 94.27 6.59
25 -3 -7 108.47 6.71
25 -3 -6 280.04 13.99
25 -3 -5 38.11 3.93
25 1 -19 13.15 3.32
25 -1 -19 24.38 4.05
25 1 -18 157.15 9.74
25 -1 -18 192.47 10.38
25 1 -17 19.6 3.53
25 -1 -17 16.36 4.04
25 1 -16 308.13 15.55
25 -1 -16 303.71 15.91
25 1 -15 17.8 3.67
25 -1 -15 25.94 4.67
25 1 -14 -3.46 2.3
25 -1 -14 8.09 4.36
25 1 -13 -3.65 3.03
25 -1 -13 -1.76 3.11
25 -1 -12 59.37 5.91
25 -1 -11 72.22 6.51
25 -1 -10 183.3 9.73
25 -5 0 59.63 5.86
26 -6 -8 36.89 5.14
26 -6 -7 152.12 9.81
26 4 -16 73.86 5.81
26 -4 -16 61.97 7.11
26 -4 -15 97.07 7.5
26 -4 -14 124.97 9.22
26 -4 -13 135.38 9.11
26 -4 -12 67.62 6.64
26 -4 -11 8.37 3.78
26 -4 -10 49.01 6.86
26 -4 -9 11.49 5.44
26 -4 -8 96.68 8.96
26 -4 -7 29.8 5.98
26 -4 -6 201.02 12.33
26 -4 -5 54.8 5.49
26 -4 -4 220.6 12.45
26 -4 -3 42.54 6.41
26 -4 -2 101.08 7.85
26 -4 -1 21.89 4.11
26 2 -18 92.65 6.61
26 -2 -18 102.08 7.21
26 2 -17 43.37 4.5
26 -2 -17 24.88 5.5
26 2 -16 131.05 9.3
26 -2 -16 124.98 9.77
26 2 -15 8.4 2.73
26 -2 -15 12.41 3.72
26 -2 -14 63.95 6.52
26 -2 -13 18.99 4.95
26 -2 -12 72.66 5.69
26 -2 -11 18.12 4.12
26 -2 -10 68.97 6.5
26 -2 -9 125.41 7.95
26 -2 -8 71.92 6.71
26 0 -18 226.05 12.81
26 0 -17 -5.51 2.6
26 0 -16 324.16 16.47
26 0 -15 12.13 3.24
26 0 -14 131.35 8.2
26 0 -12 83.01 5.62
26 -4 0 55.95 7.28
27 -5 -12 39.78 5.41
27 -5 -11 39.43 5.01
27 -5 -10 13.31 4.1
27 -5 -9 31.93 5.85
27 -5 -8 14 4.01
27 -5 -7 182.29 11.89
27 -5 -6 57.34 7.34
27 -5 -5 68.85 7.35
27 -5 -4 94.85 9.93
27 3 -16 228.9 13.61
27 -3 -16 221.16 12.38
27 3 -15 53.19 4.63
27 -3 -15 44.84 5.99
27 -3 -14 287.13 16.04
27 -3 -12 49.93 5.86
27 -3 -11 23.02 4.52
27 -3 -10 7.61 3.91
27 -3 -9 18.04 5.46
27 -3 -8 15.49 5.68
27 -3 -7 77.26 8.49
27 -3 -6 154.39 12.14
27 -3 -5 66.62 6.02
27 1 -18 311.44 17.02
27 -1 -18 368.6 18.96
27 1 -17 44.65 5.04
27 -1 -17 69.05 4.92
27 1 -16 182.77 11.33
27 -1 -16 155.77 9.97
27 1 -15 11.76 3.78
27 -1 -15 17.93 4.8
27 1 -14 199.86 11.7
27 -1 -14 221.57 12.89
27 -1 -13 55.36 5.93
27 -1 -12 94.83 7.89
27 -1 -11 43.34 4.55
28 -4 -13 152.71 10.39
28 -4 -12 44.49 5.95
28 -4 -11 51.33 6.27
28 -4 -10 80.64 7.62
28 -4 -9 91.04 7.54
28 -4 -8 21.6 4.86
28 -4 -7 99.49 7.36
28 -4 -6 81.05 7.99
28 -4 -5 115.06 9.24
28 -4 -4 54.07 5.91
28 -4 -3 56.97 7.45
28 2 -16 196.07 10.86
28 -2 -16 188.47 11.62
28 2 -15 26.01 4.3
28 -2 -15 27.11 4.37
28 -2 -14 234.31 13.46
28 -2 -13 58.99 6.12
28 -2 -12 59.52 6.42
28 -2 -11 64.3 6
28 -2 -10 56.54 5.99
28 -2 -9 102.79 7.55
28 -2 -8 170.04 10.26
28 0 -17 19.69 3.88
28 0 -16 169.35 11.09
28 0 -15 -3.36 3.04
28 0 -14 242.19 15.03
28 0 -13 4.78 3.95
28 0 -12 359.3 20.69
29 -3 -14 203.53 12.45
29 -3 -13 20.73 3.72
29 -3 -12 104.15 8.68
29 -3 -11 49 6.09
29 -3 -10 159.99 11.7
29 -3 -9 30.93 6.21
29 -3 -8 94.71 8.09
29 -3 -7 150.57 10.5
29 -3 -6 83.09 8.11
29 -3 -5 71.26 6.45
29 1 -16 58.08 5.81
29 -1 -16 56.33 5.77
29 1 -15 26.11 4.93
29 -1 -15 8.67 4.81
29 1 -14 356.27 20.05
29 -1 -14 391.77 22.04
29 -1 -13 56.88 6.34
29 -1 -12 109.81 9.23
29 -1 -11 65.15 5.79
30 -2 -14 87.12 7.91
30 -2 -13 28.49 5.8
30 -2 -12 96.18 7.16
30 -2 -11 34.51 4.76
30 -2 -10 88.95 7.14
30 -2 -9 18.09 4.55
30 -2 -8 99.07 7.99
30 0 -15 14.66 4.71
30 0 -14 392.84 21.1
30 0 -13 9 3.62
30 0 -12 436.56 26.17
31 -1 -13 33.44 5.08
31 -1 -12 161.11 10.67
31 -1 -11 27.99 5.25
