#------------------------------------------------------------------------------
#$Date: 2016-06-17 01:54:49 +0300 (Fri, 17 Jun 2016) $
#$Revision: 183600 $
#$URL: file:///home/coder/svn-repositories/cod/cif/4/08/64/4086499.cif $
#------------------------------------------------------------------------------
#
# This file is available in the Crystallography Open Database (COD),
# http://www.crystallography.net/
#
# All data on this site have been placed in the public domain by the
# contributors.
#
data_4086499
loop_
_publ_author_name
'Wong, Ka Lai'
'Chen, Chen'
'Chan, Kin Shing'
_publ_section_title
;
 Base-Promoted Vinyl Carbon--Bromine Bond Cleavage by Group 9
 Metalloporphyrin Complexes
;
_journal_issue                   11
_journal_name_full               Organometallics
_journal_page_first              1847
_journal_paper_doi               10.1021/acs.organomet.6b00228
_journal_volume                  35
_journal_year                    2016
_chemical_formula_sum            'C56 H43 N4 Rh'
_chemical_formula_weight         874.85
_space_group_crystal_system      triclinic
_space_group_IT_number           2
_space_group_name_Hall           '-P 1'
_space_group_name_H-M_alt        'P -1'
_symmetry_space_group_name_Hall  '-P 1'
_symmetry_space_group_name_H-M   'P -1'
_atom_sites_solution_hydrogens   geom
_audit_creation_method           SHELXL-2014/6
_cell_angle_alpha                92.399(2)
_cell_angle_beta                 111.005(2)
_cell_angle_gamma                100.969(2)
_cell_formula_units_Z            2
_cell_length_a                   13.2652(6)
_cell_length_b                   13.7595(6)
_cell_length_c                   14.0517(6)
_cell_measurement_reflns_used    1710
_cell_measurement_temperature    296(2)
_cell_measurement_theta_max      15
_cell_measurement_theta_min      15
_cell_volume                     2333.57(18)
_computing_cell_refinement       'BRUKER KAPPA APEXII DUO DIFFRACTOMETER'
_computing_data_collection       'BRUKER KAPPA APEXII DUO DIFFRACTOMETER'
_computing_data_reduction        'BRUKER KAPPA APEXII DUO DIFFRACTOMETER'
_computing_molecular_graphics    'BRUKER SHELXTL'
_computing_publication_material  'BRUKER SHELXTL'
_computing_structure_refinement  'SHELXL-2014/6 (Sheldrick, 2014)'
_diffrn_ambient_temperature      296(2)
_diffrn_measured_fraction_theta_full 0.976
_diffrn_measured_fraction_theta_max 0.976
_diffrn_measurement_device_type  'BRUKER KAPPA APEXII DUO DIFFRACTOMETER'
_diffrn_measurement_method       'PHI & OMEGA SCAN'
_diffrn_radiation_type           MoK\a
_diffrn_radiation_wavelength     0.71073
_diffrn_reflns_av_unetI/netI     0.0681
_diffrn_reflns_Laue_measured_fraction_full 0.976
_diffrn_reflns_Laue_measured_fraction_max 0.976
_diffrn_reflns_limit_h_max       14
_diffrn_reflns_limit_h_min       -15
_diffrn_reflns_limit_k_max       16
_diffrn_reflns_limit_k_min       -16
_diffrn_reflns_limit_l_max       16
_diffrn_reflns_limit_l_min       0
_diffrn_reflns_number            8366
_diffrn_reflns_point_group_measured_fraction_full 0.976
_diffrn_reflns_point_group_measured_fraction_max 0.976
_diffrn_reflns_theta_full        25.242
_diffrn_reflns_theta_max         25.247
_diffrn_reflns_theta_min         1.518
_exptl_absorpt_coefficient_mu    0.406
_exptl_absorpt_correction_T_max  0.745624
_exptl_absorpt_correction_T_min  0.663136
_exptl_absorpt_correction_type   multi-scan
_exptl_crystal_colour            red
_exptl_crystal_density_diffrn    1.245
_exptl_crystal_description       block
_exptl_crystal_F_000             904
_exptl_crystal_size_max          0.400
_exptl_crystal_size_mid          0.300
_exptl_crystal_size_min          0.200
_platon_squeeze_details
;
;
_refine_diff_density_max         1.488
_refine_diff_density_min         -1.513
_refine_diff_density_rms         0.176
_refine_ls_extinction_method     none
_refine_ls_goodness_of_fit_ref   1.089
_refine_ls_hydrogen_treatment    constr
_refine_ls_matrix_type           full
_refine_ls_number_parameters     551
_refine_ls_number_reflns         8366
_refine_ls_number_restraints     0
_refine_ls_restrained_S_all      1.089
_refine_ls_R_factor_all          0.1151
_refine_ls_R_factor_gt           0.0750
_refine_ls_shift/su_max          0.005
_refine_ls_shift/su_mean         0.001
_refine_ls_structure_factor_coef Fsqd
_refine_ls_weighting_details
'w=1/[\s^2^(Fo^2^)+(0.1733P)^2^+0.7675P] where P=(Fo^2^+2Fc^2^)/3'
_refine_ls_weighting_scheme      calc
_refine_ls_wR_factor_gt          0.2261
_refine_ls_wR_factor_ref         0.2625
_reflns_Friedel_coverage         0.000
_reflns_number_gt                5666
_reflns_number_total             8366
_reflns_threshold_expression     'I > 2\s(I)'
_cod_data_source_file            om6b00228_si_002.cif
_cod_data_source_block           klw1
_cod_depositor_comments          'Adding full bibliography for 4086499.cif.'
_cod_database_code               4086499
_shelx_space_group_comment
;
The symmetry employed for this shelxl refinement is uniquely defined
by the following loop, which should always be used as a source of
symmetry information in preference to the above space-group names.
They are only intended as comments.
;
_shelx_estimated_absorpt_t_min   0.854
_shelx_estimated_absorpt_t_max   0.923
_shelxl_version_number           2014/6
_shelx_res_file
;
TITL P in P-1
CELL 0.71073  13.2652  13.7595  14.0517  92.399 111.005 100.969
ZERR    2.00   0.0006   0.0006   0.0006   0.002   0.002   0.002
LATT 1
SFAC C  H  N  Rh
UNIT 112 86 8 2
REM C56 H43 N4 Rh
REM APEXII BLOCK RED
SIZE 0.40 0.30 0.20
OMIT -3 50.5

L.S. 4
ACTA
FMAP 2
PLAN 20
TEMP 23.000
merg 0
WGHT    0.173300    0.767500
BASF   0.99480
FVAR       0.26857
RH1   4    0.508588    0.982433    0.686073    11.00000    0.03657    0.04706 =
         0.03740    0.00287    0.02028    0.01658
N1    3    0.390750    0.855199    0.628536    11.00000    0.03582    0.05154 =
         0.03086    0.00970    0.01765    0.01925
N2    3    0.581405    0.947806    0.589224    11.00000    0.03883    0.04391 =
         0.04020    0.00629    0.02380    0.01827
N3    3    0.626741    1.108848    0.743079    11.00000    0.03500    0.04561 =
         0.02907    0.00501    0.01532    0.01845
N4    3    0.428586    1.022952    0.774503    11.00000    0.03980    0.05514 =
         0.04496    0.00510    0.02549    0.01694
C1    1    0.301518    0.822036    0.657404    11.00000    0.03651    0.05502 =
         0.04767    0.00942    0.02095    0.01358
C2    1    0.253431    0.721713    0.617071    11.00000    0.05061    0.05159 =
         0.06670    0.00976    0.03597    0.01342
AFIX  43
H2A   2    0.192997    0.682501    0.626179    11.00000   -1.20000
AFIX   0
C3    1    0.309827    0.692587    0.563336    11.00000    0.05460    0.04497 =
         0.06091    0.00484    0.03546    0.01718
AFIX  43
H3A   2    0.296801    0.629101    0.529782    11.00000   -1.20000
AFIX   0
C4    1    0.394464    0.777123    0.566651    11.00000    0.03874    0.04045 =
         0.04205    0.00294    0.01646    0.01709
C5    1    0.463404    0.781551    0.511993    11.00000    0.03862    0.04215 =
         0.03557    0.00360    0.01754    0.01703
C6    1    0.544610    0.864960    0.517875    11.00000    0.03480    0.04124 =
         0.03461    0.00119    0.01436    0.01730
C7    1    0.605915    0.875558    0.451772    11.00000    0.05058    0.04898 =
         0.04001    0.00243    0.02558    0.01731
AFIX  43
H7A   2    0.593337    0.832549    0.393866    11.00000   -1.20000
AFIX   0
C8    1    0.686974    0.961551    0.490348    11.00000    0.04672    0.05216 =
         0.05501    0.01130    0.03321    0.01766
AFIX  43
H8A   2    0.740488    0.986742    0.464097    11.00000   -1.20000
AFIX   0
C9    1    0.673703    1.005435    0.578958    11.00000    0.03938    0.04499 =
         0.03226    0.00347    0.01853    0.01891
C10   1    0.747120    1.086110    0.647874    11.00000    0.03961    0.05045 =
         0.04135    0.00785    0.02217    0.01667
C11   1    0.726319    1.132858    0.728136    11.00000    0.03837    0.04404 =
         0.04221   -0.00014    0.01706    0.01083
C12   1    0.800481    1.211073    0.803174    11.00000    0.04051    0.06017 =
         0.05145   -0.00002    0.01854    0.00968
AFIX  43
H12A  2    0.872586    1.239066    0.809792    11.00000   -1.20000
AFIX   0
C13   1    0.748742    1.238133    0.863512    11.00000    0.04484    0.05904 =
         0.04607   -0.00995    0.01641    0.00842
AFIX  43
H13A  2    0.778131    1.287700    0.919201    11.00000   -1.20000
AFIX   0
C14   1    0.639419    1.175523    0.825057    11.00000    0.04898    0.04647 =
         0.04136    0.00617    0.02370    0.01750
C15   1    0.557520    1.180118    0.864708    11.00000    0.04859    0.05013 =
         0.03388    0.00287    0.02105    0.02116
C16   1    0.459537    1.110824    0.838231    11.00000    0.04328    0.05562 =
         0.04350   -0.00183    0.02263    0.02402
C17   1    0.371361    1.120333    0.873414    11.00000    0.06185    0.08537 =
         0.05380   -0.00378    0.03396    0.02470
AFIX  43
H17A  2    0.370025    1.173974    0.915131    11.00000   -1.20000
AFIX   0
C18   1    0.291786    1.036761    0.834224    11.00000    0.04399    0.08272 =
         0.05620   -0.00956    0.02812    0.01363
AFIX  43
H18A  2    0.225759    1.021834    0.845256    11.00000   -1.20000
AFIX   0
C19   1    0.326251    0.973989    0.771991    11.00000    0.03874    0.07185 =
         0.04337    0.00356    0.02178    0.02082
C20   1    0.268669    0.880673    0.720610    11.00000    0.04981    0.05745 =
         0.04685    0.00744    0.03239    0.01720
C21   1    0.456727    0.688755    0.445933    11.00000    0.04155    0.04089 =
         0.05490   -0.00273    0.02779    0.00951
C22   1    0.548524    0.647303    0.465868    11.00000    0.05110    0.04788 =
         0.06322   -0.00076    0.02706    0.01441
AFIX  43
H22A  2    0.615017    0.678003    0.518244    11.00000   -1.20000
AFIX   0
C23   1    0.541873    0.559787    0.407874    11.00000    0.06557    0.05011 =
         0.08906    0.00419    0.04733    0.02657
AFIX  43
H23A  2    0.604371    0.533216    0.421564    11.00000   -1.20000
AFIX   0
C24   1    0.445879    0.513080    0.332080    11.00000    0.06272    0.04418 =
         0.05495    0.00026    0.03653    0.01030
C25   1    0.356434    0.554966    0.311946    11.00000    0.05511    0.05320 =
         0.05532   -0.00802    0.02254    0.00484
AFIX  43
H25A  2    0.290201    0.524007    0.259386    11.00000   -1.20000
AFIX   0
C26   1    0.361367    0.642468    0.367620    11.00000    0.06189    0.05286 =
         0.05846    0.00694    0.03151    0.02480
AFIX  43
H26A  2    0.299121    0.669755    0.351380    11.00000   -1.20000
AFIX   0
C27   1    0.439148    0.416046    0.269643    11.00000    0.08693    0.05377 =
         0.08600   -0.01149    0.04599    0.00962
AFIX  33
H27A  2    0.365501    0.393210    0.219412    11.00000   -1.50000
H27B  2    0.490722    0.428145    0.235646    11.00000   -1.50000
H27C  2    0.457013    0.366154    0.314859    11.00000   -1.50000
AFIX   0
C31   1    0.857508    1.121079    0.640071    11.00000    0.03954    0.05511 =
         0.03884    0.00176    0.02017    0.01594
C32   1    0.896976    1.219603    0.631882    11.00000    0.04904    0.05655 =
         0.06214    0.00254    0.03339    0.01436
AFIX  43
H32A  2    0.852392    1.265171    0.627497    11.00000   -1.20000
AFIX   0
C33   1    1.002945    1.252053    0.630070    11.00000    0.05368    0.05952 =
         0.05588    0.00465    0.02875    0.00843
AFIX  43
H33A  2    1.026910    1.318334    0.622673    11.00000   -1.20000
AFIX   0
C34   1    1.072214    1.186762    0.639141    11.00000    0.04599    0.07700 =
         0.05311   -0.00191    0.02709    0.00881
C35   1    1.032376    1.089133    0.644980    11.00000    0.04971    0.07858 =
         0.08186   -0.00258    0.02771    0.03238
AFIX  43
H35A  2    1.076863    1.043627    0.648539    11.00000   -1.20000
AFIX   0
C36   1    0.926287    1.055740    0.645747    11.00000    0.05196    0.05527 =
         0.05934    0.00534    0.02413    0.01852
AFIX  43
H36A  2    0.901685    0.988738    0.650132    11.00000   -1.20000
AFIX   0
C37   1    1.188136    1.223090    0.643742    11.00000    0.05244    0.11810 =
         0.10363   -0.00180    0.04331    0.01143
AFIX  33
H37A  2    1.201148    1.293356    0.638490    11.00000   -1.50000
H37B  2    1.239720    1.210747    0.707737    11.00000   -1.50000
H37C  2    1.197693    1.188404    0.587941    11.00000   -1.50000
AFIX   0
C41   1    0.581207    1.266171    0.945027    11.00000    0.05450    0.06129 =
         0.04393   -0.00575    0.02713    0.01377
C42   1    0.591053    1.362238    0.920762    11.00000    0.14233    0.05746 =
         0.06047    0.00175    0.06228    0.01335
AFIX  43
H42A  2    0.579246    1.374164    0.853361    11.00000   -1.20000
AFIX   0
C43   1    0.618282    1.440969    0.995569    11.00000    0.17401    0.05350 =
         0.09392   -0.00474    0.08319    0.00790
AFIX  43
H43A  2    0.626050    1.505490    0.977623    11.00000   -1.20000
AFIX   0
C44   1    0.634478    1.427471    1.096405    11.00000    0.07859    0.06664 =
         0.07706   -0.02071    0.04387    0.00197
C45   1    0.616092    1.331934    1.118073    11.00000    0.06861    0.09391 =
         0.04434   -0.00788    0.02498    0.01836
AFIX  43
H45A  2    0.620767    1.320629    1.184161    11.00000   -1.20000
AFIX   0
C46   1    0.590484    1.250212    1.044987    11.00000    0.07250    0.06195 =
         0.04872   -0.00301    0.02764    0.02160
AFIX  43
H46A  2    0.579690    1.185721    1.062630    11.00000   -1.20000
AFIX   0
C47   1    0.666441    1.517047    1.177653    11.00000    0.12284    0.12170 =
         0.09298   -0.05906    0.05587   -0.01787
AFIX  33
H47A  2    0.675643    1.577559    1.147077    11.00000   -1.50000
H47B  2    0.609125    1.514848    1.204636    11.00000   -1.50000
H47C  2    0.734618    1.514968    1.232251    11.00000   -1.50000
AFIX   0
C51   1    0.159050    0.839628    0.730190    11.00000    0.04360    0.06446 =
         0.06062   -0.00197    0.03427    0.00981
C52   1    0.151064    0.825443    0.823273    11.00000    0.05560    0.11623 =
         0.06048    0.01328    0.03417    0.01717
AFIX  43
H52A  2    0.214571    0.836926    0.882630    11.00000   -1.20000
AFIX   0
C53   1    0.046317    0.793418    0.828627    11.00000    0.07454    0.12155 =
         0.08416    0.00247    0.05907    0.00807
AFIX  43
H53A  2    0.041128    0.785452    0.892228    11.00000   -1.20000
AFIX   0
C54   1   -0.047980    0.773765    0.742351    11.00000    0.05277    0.12519 =
         0.11069   -0.01368    0.04767    0.00019
C55   1   -0.038252    0.787190    0.650479    11.00000    0.05009    0.10005 =
         0.08193   -0.01089    0.02895    0.01056
AFIX  43
H55A  2   -0.101857    0.773562    0.591123    11.00000   -1.20000
AFIX   0
C56   1    0.060745    0.819657    0.642656    11.00000    0.05664    0.07108 =
         0.06903   -0.00612    0.03405    0.01395
AFIX  43
H56A  2    0.063955    0.828931    0.578537    11.00000   -1.20000
AFIX   0
C57   1   -0.160386    0.737240    0.752154    11.00000    0.07814    0.22367 =
         0.15597   -0.02786    0.08394   -0.02092
AFIX  33
H57A  2   -0.149288    0.732742    0.823056    11.00000   -1.50000
H57B  2   -0.206697    0.783422    0.726182    11.00000   -1.50000
H57C  2   -0.195377    0.672746    0.713345    11.00000   -1.50000
AFIX   0
C61   1    0.594063    0.907606    0.789980    11.00000    0.04931    0.05109 =
         0.05549    0.00837    0.02017    0.01123
AFIX  43
H61A  2    0.555741    0.844199    0.792124    11.00000   -1.20000
AFIX   0
C62   1    0.693479    0.931659    0.855004    11.00000    0.06692    0.07271 =
         0.10876    0.04827   -0.01004    0.00154
AFIX  43
H62A  2    0.732193    0.994804    0.852592    11.00000   -1.20000
AFIX   0
C63   1    0.755751    0.876257    0.932071    11.00000    0.04884    0.06424 =
         0.05435    0.00961    0.00872    0.01794
C64   1    0.714941    0.780544    0.944539    11.00000    0.05378    0.06490 =
         0.04588    0.00425    0.01743    0.01762
AFIX  43
H64A  2    0.642457    0.749077    0.903971    11.00000   -1.20000
AFIX   0
C65   1    0.778983    0.730604    1.015576    11.00000    0.08279    0.07016 =
         0.10736    0.03810    0.04599    0.02668
AFIX  43
H65A  2    0.749540    0.665336    1.021883    11.00000   -1.20000
AFIX   0
C66   1    0.884656    0.774087    1.077192    11.00000    0.07392    0.10295 =
         0.08405    0.03501    0.01863    0.03715
AFIX  43
H66A  2    0.927753    0.739301    1.125143    11.00000   -1.20000
AFIX   0
C67   1    0.925548    0.868435    1.067348    11.00000    0.06040    0.11345 =
         0.08495    0.02014    0.00426    0.01339
AFIX  43
H67A  2    0.997948    0.899003    1.109060    11.00000   -1.20000
AFIX   0
C68   1    0.862722    0.921109    0.996833    11.00000    0.05800    0.09824 =
         0.07803    0.02751   -0.00049    0.01721
AFIX  43
H68A  2    0.892299    0.987023    0.992743    11.00000   -1.20000

AFIX   0
HKLF 5

REM  P in P-1
REM R1 =  0.0750 for    5666 Fo > 4sig(Fo)  and  0.1151 for all    8366 data
REM    551 parameters refined using      0 restraints

END

WGHT      0.1690      1.2331

REM Highest difference peak  1.488,  deepest hole -1.513,  1-sigma level  0.176
Q1    1   0.0158  0.5178  0.2033  11.00000  0.05    1.49
Q2    1   0.9453  0.4954  1.1072  11.00000  0.05    1.28
Q3    1   0.9447  1.5126  0.6160  11.00000  0.05    1.25
Q4    1   0.9937  1.4877  1.0482  11.00000  0.05    1.12
Q5    1   0.9635  1.4613  1.2810  11.00000  0.05    1.12
Q6    1   0.9605  1.5131  1.0130  11.00000  0.05    1.08
Q7    1  -0.0283  0.5202  0.5387  11.00000  0.05    0.95
Q8    1   0.4758  1.0507  0.9402  11.00000  0.05    0.65
Q9    1   0.5571  1.0284  0.6989  11.00000  0.05    0.65
Q10   1   0.5674  1.0423  0.7844  11.00000  0.05    0.62
Q11   1   0.6381  1.3426  0.9423  11.00000  0.05    0.54
Q12   1   0.4516  0.9285  0.6731  11.00000  0.05    0.51
Q13   1   0.5676  1.1406  0.7030  11.00000  0.05    0.47
Q14   1   0.4412  0.9833  0.5505  11.00000  0.05    0.46
Q15   1   0.5001  0.9076  0.6799  11.00000  0.05    0.46
Q16   1   0.5670  0.9730  0.8227  11.00000  0.05    0.45
Q17   1   0.4547  0.8278  0.6776  11.00000  0.05    0.44
Q18   1   0.8887  1.5111  1.2613  11.00000  0.05    0.44
Q19   1   1.1741  1.2564  0.5678  11.00000  0.05    0.44
Q20   1   0.2401  0.7228  0.3015  11.00000  0.05    0.44
;
_shelx_res_checksum              22287
_shelx_hkl_file
;
   1   0   0 2328.96 21.7526   2
   2   0   0 1078.63 6.64659   2
   3   0   0 28.8213 0.47017   2
   4   0   0 31.7675 0.58459   2
   5   0   0 55.8359 0.82898   2
   6   0   0 56.1198 2.58877  -1
   6   1   0 56.1198 2.58877   2
   7   0   0 172.035 4.44224  -1
   7   1   0 172.035 4.44224   2
  10   0   0 8.02766 0.75751   2
  11   0   0 22.3794 0.96869   2
  12   0   0 8.06056 0.81474   2
  13   0   0 18.8584 3.92839  -1
  13   1   0 18.8584 3.92839   2
  14   0   0 22.8452 4.40078  -1
 -14  -2   1 22.8452 4.40078   2
  15   0   0 13.0958 4.08410  -1
 -15  -2   1 13.0958 4.08410   2
  15   0   0 12.8672 5.08559  -1
  15   1   0 12.8672 5.08559   2
 -15   1   0 7.72720 5.00691  -1
  15   0   0 7.72720 5.00691   2
 -15   1   0 7.89671 4.55206  -1
 -15  -1   1 7.89671 4.55206   2
 -14   1   0 12.8411 3.82395  -1
  14   0   0 12.8411 3.82395   2
 -13   1   0 12.8061 0.99956   2
 -13   1   0 1.35163 3.59108  -1
  13   0   0 1.35163 3.59108   2
 -12   1   0 39.3568 1.28859   2
 -11   1   0 58.9148 1.36506   2
  -9   1   0 115.449 3.66429  -1
   9   0   0 115.449 3.66429   2
  -8   1   0 38.1273 1.56362  -1
   8   0   0 38.1273 1.56362   2
  -7   1   0 32.5788 1.41686  -1
   7   0   0 32.5788 1.41686   2
  -7   1   0 -0.0579 0.44575   2
  -6   1   0 1.95444 1.63712  -1
   6   0   0 1.95444 1.63712   2
  -4   1   0 245.618 1.82853   2
  -3   1   0 463.940 2.96052   2
  -2   1   0 663.617 11.7052  -1
  -2   1   0 663.617 11.7052   2
  -1   1   0 1597.06 10.3381   2
   0   1   0 819.899 13.6274   2
   1   1   0 5.19304 0.15418   2
   2   1   0 206.322 1.28404   2
   3   1   0 261.360 1.82682   2
   4   1   0 202.932 1.67874   2
   5   1   0 718.053 5.78579   2
   8   1   0 93.8204 1.33731   2
   9   1   0 98.0688 1.56675   2
  10   1   0 36.4313 1.23699   2
  11   1   0 81.7060 1.61061   2
  12   1   0 34.4495 1.32054   2
  14   1   0 26.3095 4.43506  -1
  14   2   0 26.3095 4.43506   2
  14   1   0 1.92015 3.42472  -1
 -14  -3   1 1.92015 3.42472   2
  15   1   0 11.7495 6.76052  -1
 -15  -3   1 11.7495 6.76052   2
 -15   2   0 7.48130 4.41423  -1
 -15   1   0 7.48130 4.41423   2
 -14   2   0 9.36204 3.81421  -1
 -14   1   0 9.36204 3.81421   2
 -13   2   0 12.3950 0.99235   2
 -12   2   0 31.0673 1.21457   2
 -11   2   0 28.4075 1.14894   2
 -10   2   0 111.017 4.42133  -1
 -10   1   0 111.017 4.42133   2
  -9   2   0 188.294 2.36751  -1
  -9   1   0 188.294 2.36751   2
  -8   2   0 34.8466 0.98694  -1
  -8   1   0 34.8466 0.98694   2
  -6   2   0 55.8233 2.77252  -1
  -6   1   0 55.8233 2.77252   2
  -5   2   0 490.019 3.39143   2
  -5   2   0 256.356 5.40534  -1
  -5   1   0 256.356 5.40534   2
  -4   2   0 291.172 1.98627   2
  -3   2   0 122.067 1.08883   2
  -2   2   0 69.6209 1.93054  -1
  -2   2   0 69.6209 1.93054   2
  -1   2   0 1095.53 5.60182   2
   0   2   0 34.0452 0.35754   2
   1   2   0 1513.18 7.03552   2
   2   2   0 1508.23 8.14915   2
   3   2   0 141.623 1.22274   2
   4   2   0 115.311 1.29083   2
   5   2   0 476.751 3.57525   2
   6   2   0 151.169 1.43513   2
   7   2   0 101.082 1.44064   2
   8   2   0 69.4665 1.23282   2
   9   2   0 11.6916 0.79280   2
  10   2   0 24.4834 1.02408   2
  11   2   0 68.7225 1.56077   2
  12   2   0 46.2455 1.47184   2
  13   2   0 28.2291 1.39082   2
  14   2   0 -1.7553 5.88608  -1
 -14  -4   1 -1.7553 5.88608   2
  15   2   0 7.45283 7.67672  -1
 -15  -4   1 7.45283 7.67672   2
 -15   3   0 8.84864 3.10551  -1
 -15   2   0 8.84864 3.10551   2
 -15   3   0 -2.7177 5.53558  -1
 -15   1   0 -2.7177 5.53558   2
 -14   3   0 12.4591 3.65021  -1
 -14   2   0 12.4591 3.65021   2
 -13   3   0 6.29442 0.90833   2
 -12   3   0 26.9895 1.15486   2
 -10   3   0 65.3424 1.77124  -1
 -10   2   0 65.3424 1.77124   2
  -9   3   0 37.3248 1.21379  -1
  -9   2   0 37.3248 1.21379   2
  -8   3   0 31.5025 0.98952  -1
  -8   2   0 31.5025 0.98952   2
  -7   3   0 90.9320 2.08945  -1
  -7   2   0 90.9320 2.08945   2
  -6   3   0 483.246 8.99477  -1
  -6   2   0 483.246 8.99477   2
  -5   3   0 8.08767 0.35622   2
  -4   3   0 16.4267 0.54208   2
  -3   3   0 0.59597 0.29044   2
  -2   3   0 97.1278 0.77525   2
  -1   3   0 953.907 4.76048   2
   0   3   0 217.569 1.30468   2
   1   3   0 1475.40 6.68540   2
   2   3   0 441.924 2.81684   2
   3   3   0 791.384 5.11338   2
   4   3   0 784.767 5.59094   2
   5   3   0 729.651 5.29517   2
   6   3   0 461.346 3.58677   2
   7   3   0 84.9455 1.33645   2
   8   3   0 45.1767 1.15445   2
   9   3   0 0.02407 0.63099   2
  10   3   0 36.2520 1.26703   2
  11   3   0 68.2221 1.60635   2
  12   3   0 68.0167 1.83362   2
 -16   4   0 -4.1571 6.68507  -1
 -16   2   0 -4.1571 6.68507   2
 -15   4   0 4.04068 3.44048  -1
 -15   2   0 4.04068 3.44048   2
 -15   4   0 9.11677 4.02905  -1
 -15   3   0 9.11677 4.02905   2
 -14   4   0 5.24662 3.39175  -1
 -14   3   0 5.24662 3.39175   2
 -13   4   0 31.3595 1.40880   2
 -12   4   0 35.3559 1.36537   2
 -11   4   0 48.4594 2.39618  -1
 -11   3   0 48.4594 2.39618   2
 -10   4   0 159.113 2.15456  -1
 -10   3   0 159.113 2.15456   2
  -9   4   0 18.6529 1.23309  -1
  -9   3   0 18.6529 1.23309   2
  -8   4   0 35.2749 1.08684  -1
  -8   3   0 35.2749 1.08684   2
  -7   4   0 26.4097 1.22923  -1
  -7   3   0 26.4097 1.22923   2
  -6   4   0 28.6266 1.29402  -1
  -6   3   0 28.6266 1.29402   2
  -5   4   0 429.259 3.43371   2
  -4   4   0 326.928 2.50464   2
  -3   4   0 16.6711 0.45006   2
  -2   4   0 121.264 0.98762   2
  -1   4   0 111.425 0.90796   2
   0   4   0 662.244 3.34573   2
   1   4   0 139.372 1.01895   2
   2   4   0 425.617 2.41137   2
   3   4   0 325.147 2.45289   2
   4   4   0 532.312 3.51461   2
   5   4   0 89.1986 1.17398   2
   6   4   0 137.541 1.49643   2
   7   4   0 75.0257 1.18673   2
   8   4   0 0.23215 0.59519   2
   9   4   0 10.7137 0.77948   2
  10   4   0 55.0272 1.48159   2
  11   4   0 70.4341 1.70720   2
  12   4   0 45.6388 1.71957   2
 -16   5   0 -0.1323 6.25005  -1
 -16   3   0 -0.1323 6.25005   2
 -15   5   0 -0.7425 1.53914   2
 -15   5   0 2.23671 3.95139  -1
 -15   4   0 2.23671 3.95139   2
 -14   5   0 5.72235 1.37752   2
 -11   5   0 0.89265 0.89926   2
 -11   5   0 38.6033 2.65112  -1
 -11   4   0 38.6033 2.65112   2
 -10   5   0 130.674 2.66934  -1
 -10   4   0 130.674 2.66934   2
  -9   5   0 -0.6787 1.19352  -1
  -9   4   0 -0.6787 1.19352   2
  -8   5   0 13.5111 1.09466  -1
  -8   4   0 13.5111 1.09466   2
  -7   5   0 38.0346 1.19074  -1
  -7   4   0 38.0346 1.19074   2
  -6   5   0 170.690 4.49079  -1
  -6   4   0 170.690 4.49079   2
  -5   5   0 431.707 3.84439   2
  -4   5   0 57.9658 0.84240   2
  -3   5   0 231.797 1.64709   2
  -2   5   0 236.087 1.80940   2
  -1   5   0 0.84240 0.26450   2
   0   5   0 145.975 1.09619   2
   1   5   0 461.143 2.77411   2
   2   5   0 237.704 1.68717   2
   3   5   0 159.271 1.47824   2
   4   5   0 58.9421 0.94633   2
   5   5   0 80.3454 1.29435   2
   6   5   0 180.730 1.85204   2
   7   5   0 180.140 1.90636   2
   9   5   0 23.3024 0.96462   2
  10   5   0 37.0368 1.53079   2
  11   5   0 36.6633 1.47604   2
  12   5   0 17.6848 1.81283   2
  13   5   0 10.0334 1.94821   2
 -16   6   0 -2.2226 2.88018   2
 -16   6   0 -5.4744 5.83367  -1
 -16   4   0 -5.4744 5.83367   2
 -14   6   0 3.72200 4.16692  -1
 -14   4   0 3.72200 4.16692   2
 -13   6   0 -0.5503 0.82949   2
 -12   6   0 5.76649 0.88832   2
 -12   6   0 11.4731 3.89049  -1
 -12   5   0 11.4731 3.89049   2
 -10   6   0 47.1378 2.82210  -1
 -10   5   0 47.1378 2.82210   2
  -9   6   0 21.5182 1.63778  -1
  -9   5   0 21.5182 1.63778   2
  -8   6   0 38.6969 1.60260  -1
  -8   5   0 38.6969 1.60260   2
  -7   6   0 43.7868 1.97038  -1
  -7   5   0 43.7868 1.97038   2
  -6   6   0 44.4133 0.98731   2
  -6   6   0 58.2085 3.35211  -1
  -6   5   0 58.2085 3.35211   2
  -5   6   0 232.556 2.40529   2
  -4   6   0 91.9169 1.13253   2
  -3   6   0 154.216 1.42025   2
  -2   6   0 68.7914 0.90647   2
  -1   6   0 72.7734 0.83718   2
   0   6   0 117.607 1.08036   2
   1   6   0 363.892 2.38326   2
   2   6   0 204.665 1.69564   2
   3   6   0 20.7498 0.73859   2
   4   6   0 26.5523 0.83473   2
   5   6   0 147.796 1.84440   2
   6   6   0 182.283 1.96320   2
   6   6   0 63.2966 4.74189  -1
   5   7   0 63.2966 4.74189   2
   7   6   0 59.2169 1.25855   2
   8   6   0 2.40578 0.68363   2
   9   6   0 25.0317 1.15925   2
  10   6   0 13.8410 1.57685   2
  11   6   0 14.4601 1.71422   2
  12   6   0 5.81558 1.69407   2
  13   6   0 2.26474 1.92437   2
 -16   7   0 6.05477 6.19097  -1
 -16   5   0 6.05477 6.19097   2
 -16   7   0 0.72773 2.05583   2
 -15   7   0 -0.3436 2.50305   2
 -14   7   0 0.53068 1.40644   2
 -13   7   0 3.62632 1.31318   2
 -13   7   0 34.7800 3.27545  -1
 -13   5   0 34.7800 3.27545   2
 -11   7   0 -0.6526 3.78636  -1
 -11   6   0 -0.6526 3.78636   2
 -10   7   0 3.23229 2.30832  -1
 -10   6   0 3.23229 2.30832   2
  -9   7   0 18.9706 2.24949  -1
  -9   6   0 18.9706 2.24949   2
  -8   7   0 37.6602 2.70321  -1
  -8   6   0 37.6602 2.70321   2
  -8   7   0 85.7282 1.39582   2
  -7   7   0 116.178 1.66648   2
  -7   7   0 75.2015 4.14064  -1
  -7   6   0 75.2015 4.14064   2
  -6   7   0 23.0067 0.87369   2
  -4   7   0 11.9285 3.31045  -1
  -5   7   0 11.9285 3.31045   2
  -3   7   0 31.2241 1.98795  -1
  -4   7   0 31.2241 1.98795   2
  -2   7   0 170.834 4.16061  -1
  -3   7   0 170.834 4.16061   2
  -1   7   0 378.538 2.28125   2
  -1   7   0 2.86422 2.19094  -1
  -2   7   0 2.86422 2.19094   2
   0   7   0 44.5514 0.83883   2
   1   7   0 208.735 1.69362   2
   2   7   0 24.2388 0.81308   2
   3   7   0 27.0894 0.90980   2
   4   7   0 50.6553 1.16984   2
   6   7   0 86.3031 1.39135   2
   7   7   0 3.85368 0.66375   2
   8   7   0 37.3940 1.66466   2
   8   7   0 5.36989 5.53663  -1
   7   8   0 5.36989 5.53663   2
   9   7   0 13.8603 1.44128   2
  10   7   0 6.96444 1.46769   2
  11   7   0 7.70293 1.64393   2
  12   7   0 11.0398 1.97073   2
  13   7   0 5.67873 2.21088   2
  13   7   0 -0.5480 6.76240  -1
 -12  -9   1 -0.5480 6.76240   2
 -15   8   0 0.99675 1.80623   2
 -15   8   0 -2.5753 4.99096  -1
 -15   6   0 -2.5753 4.99096   2
 -14   8   0 0.43254 1.49048   2
 -14   8   0 0.46515 4.68527  -1
 -14   6   0 0.46515 4.68527   2
 -11   8   0 6.41582 4.24087  -1
 -12   7   0 6.41582 4.24087   2
 -10   8   0 -1.7555 3.84458  -1
 -11   7   0 -1.7555 3.84458   2
  -9   8   0 0.09874 2.60122  -1
 -10   7   0 0.09874 2.60122   2
  -8   8   0 12.5030 4.07537  -1
  -9   7   0 12.5030 4.07537   2
  -7   8   0 18.1316 0.89482   2
  -6   8   0 2.79305 0.67351   2
  -4   8   0 0.69477 1.91764  -1
  -5   8   0 0.69477 1.91764   2
  -3   8   0 8.28625 2.04194  -1
  -4   8   0 8.28625 2.04194   2
  -2   8   0 37.3074 1.64311  -1
  -3   8   0 37.3074 1.64311   2
  -1   8   0 3.85430 2.62684  -1
  -2   8   0 3.85430 2.62684   2
   0   8   0 107.086 1.29998   2
   0   8   0 71.5028 2.65787  -1
  -1   8   0 71.5028 2.65787   2
   1   8   0 65.4948 1.09578   2
   2   8   0 63.0274 1.24639   2
   3   8   0 49.1754 1.23729   2
   4   8   0 97.5166 1.56576   2
   5   8   0 25.4697 1.29981   2
   6   8   0 19.9339 1.23703   2
   8   8   0 75.8643 2.61465   2
   9   8   0 13.0490 1.56449   2
  10   8   0 13.6819 1.75803   2
  11   8   0 1.49395 5.64293  -1
 -10 -10   1 1.49395 5.64293   2
  11   8   0 9.38128 1.84574   2
  12   8   0 4.40558 2.09211   2
  12   8   0 -0.0064 6.79818  -1
 -11 -10   1 -0.0064 6.79818   2
 -15   9   0 0.93776 1.90639   2
 -14   9   0 0.41415 1.56068   2
 -12   9   0 -1.4779 3.19320  -1
 -13   8   0 -1.4779 3.19320   2
 -11   9   0 3.99722 3.02758  -1
 -12   8   0 3.99722 3.02758   2
 -10   9   0 0.25978 2.66421  -1
 -11   8   0 0.25978 2.66421   2
  -9   9   0 0.00982 2.15105  -1
 -10   8   0 0.00982 2.15105   2
  -8   9   0 4.07507 2.41879  -1
  -9   8   0 4.07507 2.41879   2
  -7   9   0 27.5704 3.25196  -1
  -8   8   0 27.5704 3.25196   2
  -7   9   0 0.48718 0.76159   2
  -6   9   0 0.77821 0.57308   2
  -4   9   0 1.37461 4.14979  -1
  -5   9   0 1.37461 4.14979   2
  -3   9   0 1.69344 2.46048  -1
  -4   9   0 1.69344 2.46048   2
  -2   9   0 22.2599 1.92222  -1
  -3   9   0 22.2599 1.92222   2
  -1   9   0 21.5850 3.25688  -1
  -2   9   0 21.5850 3.25688   2
   0   9   0 137.703 1.88735   2
   0   9   0 54.4962 4.82244  -1
  -1   9   0 54.4962 4.82244   2
   1   9   0 84.5444 1.69650   2
   2   9   0 34.9337 1.47985   2
   3   9   0 13.7128 1.30924   2
   4   9   0 17.9130 1.21352   2
   5   9   0 25.6550 1.39090   2
   6   9   0 25.5982 1.42812   2
   7   9   0 53.1961 2.18641   2
   8   9   0 55.3430 2.56978   2
   9   9   0 12.0254 1.60434   2
   9   9   0 6.33181 4.72624  -1
  -8 -10   1 6.33181 4.72624   2
  10   9   0 9.13828 2.55689   2
  11   9   0 2.41219 2.80651   2
 -15  10   0 1.81501 3.15229   2
 -14  10   0 1.12402 2.65621   2
 -12  10   0 -2.4573 3.24218  -1
 -13   9   0 -2.4573 3.24218   2
 -11  10   0 10.1082 2.82591  -1
 -12   9   0 10.1082 2.82591   2
 -10  10   0 7.35766 2.34652  -1
 -11   9   0 7.35766 2.34652   2
  -9  10   0 -1.3962 2.14722  -1
 -10   9   0 -1.3962 2.14722   2
  -8  10   0 -2.0160 2.02954  -1
  -9   9   0 -2.0160 2.02954   2
  -7  10   0 1.05216 0.83347   2
  -7  10   0 -1.3947 4.20572  -1
  -8   9   0 -1.3947 4.20572   2
  -6  10   0 -1.3068 0.78840   2
  -5  10   0 0.22319 0.56045   2
  -4  10   0 6.48200 0.84803   2
  -3  10   0 2.59813 0.84671   2
  -2  10   0 1.72183 0.83222   2
  -1  10   0 0.61581 0.81421   2
   0  10   0 7.11079 1.08514   2
   1  10   0 6.85637 0.96426   2
   2  10   0 17.4197 1.40528   2
   3  10   0 29.8675 1.72528   2
   4  10   0 49.4450 2.15388   2
   5  10   0 64.9851 2.42342   2
   5  10   0 19.2822 6.51749  -1
  -4 -11   1 19.2822 6.51749   2
   6  10   0 33.2506 6.21318  -1
  -5 -11   1 33.2506 6.21318   2
   6  10   0 19.2508 1.89172   2
   7  10   0 22.0359 6.46763  -1
  -6 -11   1 22.0359 6.46763   2
   8  10   0 1.02956 9.29270  -1
  -7 -11   1 1.02956 9.29270   2
   8  10   0 1.01011 1.82596   2
   9  10   0 3.54256 2.02131   2
 -14  11   0 -4.6875 2.41390   2
 -12  11   0 -0.5752 4.79356  -1
 -13  10   0 -0.5752 4.79356   2
 -11  11   0 -2.6837 2.55650  -1
 -12  10   0 -2.6837 2.55650   2
 -10  11   0 0.22034 2.34710  -1
 -11  10   0 0.22034 2.34710   2
  -9  11   0 -2.0841 2.13399  -1
 -10  10   0 -2.0841 2.13399   2
  -8  11   0 -2.6018 2.99764  -1
  -9  10   0 -2.6018 2.99764   2
  -8  11   0 3.35010 1.77557   2
  -7  11   0 -8.4942 4.42621  -1
  -8  10   0 -8.4942 4.42621   2
  -7  11   0 17.9969 2.03273   2
  -6  11   0 25.4280 2.14954   2
  -5  11   0 -0.8877 1.48793   2
  -4  11   0 1.13793 1.19948   2
  -3  11   0 2.48970 1.25088   2
  -2  11   0 -2.4572 1.21236   2
  -1  11   0 1.67187 1.31324   2
   0  11   0 -1.8852 1.31277   2
   1  11   0 9.86626 1.62023   2
   2  11   0 10.4274 1.82718   2
   3  11   0 8.37163 2.42302   2
   4  11   0 3.40805 2.43709   2
   5  11   0 -6.5328 6.30211  -1
  -4 -12   1 -6.5328 6.30211   2
   6  11   0 -5.0652 5.04699  -1
  -5 -12   1 -5.0652 5.04699   2
   7  11   0 -4.6198 5.07382  -1
  -6 -12   1 -4.6198 5.07382   2
   7  11   0 2.68795 5.01873   2
   8  11   0 0.64137 10.1904  -1
  -7 -12   1 0.64137 10.1904   2
   8  11   0 6.12187 5.54450   2
   9  11   0 5.55576 6.05459   2
   9  11   0 -1.3584 11.7848  -1
  -8 -12   1 -1.3584 11.7848   2
 -14  12   0 2.05249 5.63777   2
 -12  12   0 -2.1617 4.93756  -1
 -13  11   0 -2.1617 4.93756   2
 -11  12   0 -2.2354 3.31739  -1
 -12  11   0 -2.2354 3.31739   2
 -10  12   0 -1.4115 3.23645  -1
 -11  11   0 -1.4115 3.23645   2
  -9  12   0 24.0196 3.07849  -1
 -10  11   0 24.0196 3.07849   2
  -8  12   0 3.72185 1.99442   2
  -8  12   0 -2.8835 6.10842  -1
  -9  11   0 -2.8835 6.10842   2
  -7  12   0 3.49769 1.90779   2
  -6  12   0 0.89496 1.73893   2
  -5  12   0 27.4504 2.38899   2
  -4  12   0 7.69693 2.63429   2
  -3  12   0 0.95639 1.33500   2
  -2  12   0 9.92502 1.66955   2
  -1  12   0 1.71089 1.44199   2
   0  12   0 -1.6245 1.46059   2
   1  12   0 -1.2314 2.25112   2
   2  12   0 1.27499 2.40717   2
   4  12   0 35.0889 7.92382  -1
  -3 -13   1 35.0889 7.92382   2
   5  12   0 15.2599 5.96196  -1
  -4 -13   1 15.2599 5.96196   2
   6  12   0 12.1071 5.63123  -1
  -5 -13   1 12.1071 5.63123   2
   7  12   0 5.43556 5.79727  -1
  -6 -13   1 5.43556 5.79727   2
   8  12   0 4.70501 11.6340  -1
  -7 -13   1 4.70501 11.6340   2
   8  12   0 5.85440 6.35175   2
   9  12   0 -2.8274 12.8514  -1
  -8 -13   1 -2.8274 12.8514   2
 -12  13   0 10.2085 9.97389  -1
 -13  12   0 10.2085 9.97389   2
 -11  13   0 8.80425 6.31788  -1
 -12  12   0 8.80425 6.31788   2
 -10  13   0 8.17110 6.37756  -1
 -11  12   0 8.17110 6.37756   2
  -9  13   0 10.5273 5.67135  -1
 -10  12   0 10.5273 5.67135   2
  -9  13   0 1.97261 2.31756   2
  -8  13   0 0.51899 2.20880   2
  -8  13   0 2.14359 6.76921  -1
  -9  12   0 2.14359 6.76921   2
  -7  13   0 -1.8019 2.05665   2
  -6  13   0 6.47675 2.21016   2
  -5  13   0 2.74409 2.12975   2
  -4  13   0 -0.9816 2.65041   2
  -3  13   0 0.34836 2.63499   2
  -2  13   0 -0.4900 1.50552   2
  -1  13   0 -1.6374 1.54372   2
   0  13   0 -1.2114 1.69684   2
   1  13   0 -0.3291 1.85040   2
   2  13   0 2.96109 2.96202   2
   4  13   0 13.5989 8.88416  -1
  -3 -14   1 13.5989 8.88416   2
   5  13   0 12.2298 6.75660  -1
  -4 -14   1 12.2298 6.75660   2
   6  13   0 1.82587 5.07172  -1
  -5 -14   1 1.82587 5.07172   2
   7  13   0 12.0575 10.3510  -1
  -6 -14   1 12.0575 10.3510   2
   8  13   0 7.71176 12.2757  -1
  -7 -14   1 7.71176 12.2757   2
   8  13   0 2.21248 7.12920   2
 -12  14   0 -1.9956 11.1198  -1
 -13  13   0 -1.9956 11.1198   2
 -11  14   0 -1.9764 7.66752  -1
 -12  13   0 -1.9764 7.66752   2
 -10  14   0 6.81245 2.89604   2
 -10  14   0 8.98980 7.11051  -1
 -11  13   0 8.98980 7.11051   2
  -9  14   0 2.49124 2.71932   2
  -9  14   0 -2.0474 8.75364  -1
 -10  13   0 -2.0474 8.75364   2
  -8  14   0 -1.6345 2.58416   2
  -7  14   0 -0.7877 2.50104   2
  -6  14   0 7.42732 2.65848   2
  -5  14   0 3.09382 2.53058   2
  -2  14   0 1.29604 10.0378  -1
   3 -14   1 1.29604 10.0378   2
  -1  14   0 4.40270 3.53308   2
  -1  14   0 -2.7415 9.76644  -1
   2 -14   1 -2.7415 9.76644   2
   0  14   0 -1.0234 1.98584   2
   0  14   0 -4.2241 10.1906  -1
   1 -14   1 -4.2241 10.1906   2
   1  14   0 -0.1903 3.44842   2
   4  14   0 24.1705 11.0640  -1
  -3 -15   1 24.1705 11.0640   2
   5  14   0 7.21302 8.12442  -1
  -4 -15   1 7.21302 8.12442   2
   6  14   0 6.44245 7.88607  -1
  -5 -15   1 6.44245 7.88607   2
   7  14   0 -0.9917 13.2812  -1
  -6 -15   1 -0.9917 13.2812   2
 -11  15   0 -0.0031 8.78354  -1
 -12  14   0 -0.0031 8.78354   2
 -11  15   0 -2.2872 4.32125   2
 -10  15   0 7.85217 10.4597  -1
 -11  14   0 7.85217 10.4597   2
 -10  15   0 1.56809 3.19605   2
  -9  15   0 4.45005 3.10411   2
  -8  15   0 -1.3161 2.92855   2
  -7  15   0 7.26504 3.07831   2
  -6  15   0 7.94890 3.08089   2
  -3  15   0 6.55900 7.80540  -1
   4 -15   1 6.55900 7.80540   2
  -2  15   0 4.96158 7.49347  -1
   3 -15   1 4.96158 7.49347   2
  -1  15   0 1.61416 7.63084  -1
   2 -15   1 1.61416 7.63084   2
  -1  15   0 3.99374 4.04662   2
   0  15   0 1.75130 3.91930   2
   0  15   0 12.6051 8.20791  -1
   1 -15   1 12.6051 8.20791   2
   1  15   0 1.67321 3.94087   2
   4  15   0 11.1246 9.59794  -1
  -3 -16   1 11.1246 9.59794   2
   5  15   0 5.30858 9.37936  -1
  -4 -16   1 5.30858 9.37936   2
   6  15   0 -3.0030 7.55723   2
 -10  16   0 11.2849 3.75247   2
  -9  16   0 8.46902 3.67054   2
  -8  16   0 10.2089 3.59437   2
  -7  16   0 3.06882 3.38179   2
  -6  16   0 0.97935 3.29330   2
  -4  16   0 13.6096 9.26562  -1
   5 -16   1 13.6096 9.26562   2
  -3  16   0 6.61073 9.05255  -1
   4 -16   1 6.61073 9.05255   2
  -2  16   0 20.0622 8.81405  -1
   3 -16   1 20.0622 8.81405   2
  -1  16   0 16.8539 9.09647  -1
   2 -16   1 16.8539 9.09647   2
  -1  16   0 1.04376 4.37486   2
   0  16   0 27.8662 9.71735  -1
   1 -16   1 27.8662 9.71735   2
   0  16   0 -0.3845 4.36765   2
   1  16   0 0.83878 4.54056   2
  -8  17   0 6.80352 3.91761   2
  -7  17   0 2.78759 3.72660   2
  -4  17   0 19.0118 10.5623  -1
   5 -17   1 19.0118 10.5623   2
  -3  17   0 29.2867 10.1195  -1
   4 -17   1 29.2867 10.1195   2
  -2  17   0 13.4973 9.99534  -1
   3 -17   1 13.4973 9.99534   2
  -1  17   0 16.5324 10.4404  -1
   2 -17   1 16.5324 10.4404   2
  -1  17   0 -2.3213 4.77052   2
   0  17   0 0.63514 4.95979   2
   0  17   0 20.6089 15.1265  -1
   1 -17   1 20.6089 15.1265   2
   1  17   0 0.45970 5.00979   2
   2  17   0 0.60007 5.20333   2
  -4  18   0 -1.2486 14.8900  -1
   5 -18   1 -1.2486 14.8900   2
  -3  18   0 1.74743 5.37341   2
  -3  18   0 30.5136 15.0384  -1
   4 -18   1 30.5136 15.0384   2
  -2  18   0 4.84651 5.41575   2
  -2  18   0 22.0664 15.0501  -1
   3 -18   1 22.0664 15.0501   2
   2 -18   1 4.88746 5.43397   2
   2 -18   1 15.5496 14.4623  -1
   3 -18   2 15.5496 14.4623   2
   3 -18   1 9.44881 15.1518  -1
   4 -18   2 9.44881 15.1518   2
  -2 -17   1 1.48597 5.11117   2
  -1 -17   1 1.61855 15.7466  -1
   0 -17   2 1.61855 15.7466   2
  -1 -17   1 4.00417 4.95194   2
   0 -17   1 2.41496 10.6062  -1
   1 -17   2 2.41496 10.6062   2
   0 -17   1 0.22008 4.91929   2
   1 -17   1 1.22155 9.89323  -1
   2 -17   2 1.22155 9.89323   2
   2 -17   1 11.0979 9.90632  -1
   3 -17   2 11.0979 9.90632   2
   3 -17   1 -1.6264 10.0160  -1
   4 -17   2 -1.6264 10.0160   2
   6 -17   1 11.5165 3.91565   2
   7 -17   1 14.0745 4.02364   2
   8 -17   1 12.4205 4.08652   2
  -2 -16   1 6.61993 4.62383   2
  -1 -16   1 -5.0061 13.2143  -1
   0 -16   2 -5.0061 13.2143   2
  -1 -16   1 9.96851 4.69350   2
   0 -16   1 8.90033 4.68149   2
   0 -16   1 -4.3701 9.01452  -1
   1 -16   2 -4.3701 9.01452   2
   1 -16   1 -7.3644 8.52000  -1
   2 -16   2 -7.3644 8.52000   2
   2 -16   1 1.99471 8.56821  -1
   3 -16   2 1.99471 8.56821   2
   3 -16   1 12.6105 9.12011  -1
   4 -16   2 12.6105 9.12011   2
   6 -16   1 12.6799 3.49089   2
   7 -16   1 30.7736 3.95376   2
   8 -16   1 24.1056 3.91801   2
   9 -16   1 12.3999 3.78136   2
  10 -16   1 5.22250 3.73211   2
  -5 -15   1 7.24036 9.66781  -1
  -4 -16   2 7.24036 9.66781   2
  -4 -15   1 21.8673 13.6407  -1
  -3 -16   2 21.8673 13.6407   2
  -2 -15   1 18.4441 4.52600   2
  -1 -15   1 5.43773 8.38218  -1
   0 -15   2 5.43773 8.38218   2
  -1 -15   1 14.0647 4.36152   2
   0 -15   1 14.7572 4.27040   2
   1 -15   1 -5.1815 7.43469  -1
   2 -15   2 -5.1815 7.43469   2
   2 -15   1 -0.8070 7.73614  -1
   3 -15   2 -0.8070 7.73614   2
   5 -15   1 14.6285 3.18516   2
   6 -15   1 36.7259 3.59686   2
   7 -15   1 62.0262 4.14969   2
   8 -15   1 19.7454 3.46014   2
   9 -15   1 12.7554 3.38922   2
  10 -15   1 6.90752 3.35615   2
  10 -15   1 32.6625 8.66839  -1
  11 -14   1 32.6625 8.66839   2
  11 -15   1 5.37754 4.39372   2
  11 -15   1 19.8468 9.14511  -1
  12 -14   1 19.8468 9.14511   2
  -7 -14   1 11.1267 12.8949  -1
  -6 -15   2 11.1267 12.8949   2
  -6 -14   1 9.42570 7.84991  -1
  -5 -15   2 9.42570 7.84991   2
  -5 -14   1 13.5077 8.21293  -1
  -4 -15   2 13.5077 8.21293   2
  -2 -14   1 10.9811 3.74701   2
  -1 -14   1 -2.2070 4.96304  -1
   0 -14   2 -2.2070 4.96304   2
  -1 -14   1 0.46509 3.39460   2
   0 -14   1 -4.7779 3.99408  -1
   1 -14   2 -4.7779 3.99408   2
   0 -14   1 5.75100 2.16047   2
   1 -14   1 -1.2066 6.61352  -1
   2 -14   2 -1.2066 6.61352   2
   2 -14   1 2.19303 6.81601  -1
   3 -14   2 2.19303 6.81601   2
   4 -14   1 4.06597 3.36645   2
   5 -14   1 46.9673 3.46455   2
   6 -14   1 50.0216 3.53309   2
   7 -14   1 28.2024 3.13017   2
   8 -14   1 15.9593 2.99683   2
   9 -14   1 33.5738 3.43814   2
   9 -14   1 50.4909 8.72022  -1
  10 -13   1 50.4909 8.72022   2
  10 -14   1 21.5287 7.57987  -1
  11 -13   1 21.5287 7.57987   2
  10 -14   1 34.0544 3.53135   2
  11 -14   1 12.1557 7.77459  -1
  12 -13   1 12.1557 7.77459   2
  12 -14   1 31.3983 11.7599  -1
  13 -13   1 31.3983 11.7599   2
  -8 -13   1 1.97111 10.3440  -1
  -7 -14   2 1.97111 10.3440   2
  -7 -13   1 10.7266 12.4500  -1
  -6 -14   2 10.7266 12.4500   2
  -6 -13   1 25.8990 6.71807  -1
  -5 -14   2 25.8990 6.71807   2
  -5 -13   1 25.2479 8.98520  -1
  -4 -14   2 25.2479 8.98520   2
  -2 -13   1 9.32530 3.11079   2
  -1 -13   1 0.81798 1.77739   2
   0 -13   1 9.73761 1.96804   2
   1 -13   1 13.0971 1.97350   2
   2 -13   1 8.83985 1.72928   2
   3 -13   1 17.9846 3.34593   2
   4 -13   1 0.57042 2.63782   2
   5 -13   1 66.2767 3.80388   2
   6 -13   1 45.7812 3.09915   2
   7 -13   1 12.8061 2.50369   2
   8 -13   1 27.0251 2.85997   2
   8 -13   1 19.0692 6.70732  -1
   9 -12   1 19.0692 6.70732   2
   9 -13   1 41.2645 3.24182   2
   9 -13   1 38.9704 4.47954  -1
  10 -12   1 38.9704 4.47954   2
  10 -13   1 50.5100 6.90580  -1
  11 -12   1 50.5100 6.90580   2
  11 -13   1 29.1748 6.94643  -1
  12 -12   1 29.1748 6.94643   2
  -9 -12   1 -4.7996 11.4552  -1
  -8 -13   2 -4.7996 11.4552   2
  -8 -12   1 13.9994 10.2789  -1
  -7 -13   2 13.9994 10.2789   2
  -7 -12   1 15.3500 10.2216  -1
  -6 -13   2 15.3500 10.2216   2
  -6 -12   1 26.5643 5.49868  -1
  -5 -13   2 26.5643 5.49868   2
  -5 -12   1 12.5000 7.59584  -1
  -4 -13   2 12.5000 7.59584   2
  -3 -12   1 6.22059 2.67008   2
  -2 -12   1 0.23774 1.57505   2
  -1 -12   1 4.49357 1.65571   2
   0 -12   1 22.6928 2.04686   2
   1 -12   1 36.8676 2.47793   2
   2 -12   1 82.5400 3.00528   2
   3 -12   1 121.997 3.43469   2
   4 -12   1 44.5768 3.92608   2
   5 -12   1 100.996 3.58891   2
   6 -12   1 58.1690 3.17271   2
   7 -12   1 27.5640 2.53066   2
   7 -12   1 41.5054 6.40522  -1
   8 -11   1 41.5054 6.40522   2
   8 -12   1 43.9840 2.89045   2
   8 -12   1 23.3629 5.10178  -1
   9 -11   1 23.3629 5.10178   2
   9 -12   1 41.5585 4.11424  -1
  10 -11   1 41.5585 4.11424   2
  10 -12   1 52.4090 5.92113  -1
  11 -11   1 52.4090 5.92113   2
  11 -12   1 36.0461 6.26916  -1
  12 -11   1 36.0461 6.26916   2
  -9 -11   1 -4.5462 10.4862  -1
  -8 -12   2 -4.5462 10.4862   2
  -8 -11   1 -2.1819 8.91461  -1
  -7 -12   2 -2.1819 8.91461   2
  -8 -11   1 0.88670 4.97487   2
  -7 -11   1 11.1571 5.08001  -1
  -6 -12   2 11.1571 5.08001   2
  -6 -11   1 30.9000 5.40704  -1
  -5 -12   2 30.9000 5.40704   2
  -5 -11   1 33.4976 7.35766  -1
  -4 -12   2 33.4976 7.35766   2
  -3 -11   1 18.3100 2.00904   2
  -2 -11   1 30.0635 2.19441   2
  -1 -11   1 45.3701 2.58600   2
   0 -11   1 28.1036 2.04265   2
   1 -11   1 28.1863 2.01316   2
   2 -11   1 99.4615 3.06277   2
   3 -11   1 26.1807 1.84400   2
   4 -11   1 28.9280 2.04606   2
   5 -11   1 -0.5598 1.50067   2
   6 -11   1 1.10435 1.55944   2
   6 -11   1 85.8440 5.62925  -1
   7 -10   1 85.8440 5.62925   2
   7 -11   1 18.9688 2.06372   2
   7 -11   1 57.7994 3.68185  -1
   8 -10   1 57.7994 3.68185   2
   8 -11   1 31.7141 2.81553  -1
   9 -10   1 31.7141 2.81553   2
   9 -11   1 22.6298 2.79872  -1
  10 -10   1 22.6298 2.79872   2
  10 -11   1 28.3766 3.29583  -1
  11 -10   1 28.3766 3.29583   2
  11 -11   1 40.9422 4.45005  -1
  12 -10   1 40.9422 4.45005   2
  13 -11   1 21.2131 5.50963   2
  14 -11   1 15.6550 8.04994  -1
  15  -9   1 15.6550 8.04994   2
  -9 -10   1 0.66961 1.69541   2
  -9 -10   1 18.6926 9.07581  -1
  -8 -11   2 18.6926 9.07581   2
  -8 -10   1 41.3328 4.11241  -1
  -7 -11   2 41.3328 4.11241   2
  -7 -10   1 79.4314 4.27701  -1
  -6 -11   2 79.4314 4.27701   2
  -7 -10   1 4.82302 1.84333   2
  -6 -10   1 8.05737 1.57761   2
  -6 -10   1 62.4090 4.19010  -1
  -5 -11   2 62.4090 4.19010   2
  -5 -10   1 3.53037 1.16870   2
  -5 -10   1 48.9482 7.07967  -1
  -4 -11   2 48.9482 7.07967   2
  -4 -10   1 2.57950 1.12068   2
  -3 -10   1 10.8709 1.30794   2
  -2 -10   1 44.0819 1.62744   2
  -1 -10   1 33.1864 1.52484   2
   0 -10   1 14.7585 1.08234   2
   1 -10   1 67.2894 1.75004   2
   2 -10   1 95.8022 2.29748   2
   3 -10   1 11.7640 1.14831   2
   4 -10   1 85.4655 1.93298   2
   5 -10   1 13.6955 0.94521   2
   6 -10   1 33.1129 1.36042   2
   6 -10   1 128.969 6.01678  -1
   7  -9   1 128.969 6.01678   2
   7 -10   1 51.1181 2.64857  -1
   8  -9   1 51.1181 2.64857   2
   8 -10   1 63.3378 2.62885  -1
   9  -9   1 63.3378 2.62885   2
   9 -10   1 32.3093 2.46672  -1
  10  -9   1 32.3093 2.46672   2
  10 -10   1 36.6241 2.95069  -1
  11  -9   1 36.6241 2.95069   2
  11 -10   1 65.1764 3.79636  -1
  12  -9   1 65.1764 3.79636   2
  12 -10   1 27.6224 5.21529  -1
  13  -9   1 27.6224 5.21529   2
  13 -10   1 17.6511 2.92276   2
  14 -10   1 11.5352 3.13837   2
 -12  -9   1 9.35643 7.65864  -1
 -11 -11   2 9.35643 7.65864   2
 -11  -9   1 -0.2313 1.65449   2
 -10  -9   1 1.75812 1.48015   2
 -10  -9   1 12.6963 4.92192  -1
  -9 -10   2 12.6963 4.92192   2
  -9  -9   1 1.67168 1.28272   2
  -8  -9   1 5.52872 1.34981   2
  -7  -9   1 6.80802 1.19238   2
  -6  -9   1 0.09499 0.91354   2
  -5  -9   1 6.61787 1.19304   2
  -4  -9   1 19.8093 1.45060   2
  -3  -9   1 27.0420 1.19322   2
  -2  -9   1 6.90557 0.82966   2
  -1  -9   1 7.34659 0.69874   2
   0  -9   1 0.09715 0.36688   2
   0  -9   1 26.8782 3.28173  -1
   1  -9   1 26.8782 3.28173   2
   1  -9   1 16.8795 1.87638  -1
   2  -9   1 16.8795 1.87638   2
   2  -9   1 16.2863 2.04553  -1
   3  -9   1 16.2863 2.04553   2
   4  -9   1 55.7885 1.32557   2
   5  -9   1 50.8272 1.37130   2
   6  -9   1 91.8256 1.54491   2
   6  -9   1 95.3825 5.27955  -1
   7  -8   1 95.3825 5.27955   2
   7  -9   1 23.9524 2.23991  -1
   8  -8   1 23.9524 2.23991   2
   8  -9   1 45.2229 2.76934  -1
   9  -8   1 45.2229 2.76934   2
   9  -9   1 31.8590 2.65668  -1
  10  -8   1 31.8590 2.65668   2
  10  -9   1 31.3666 2.84863  -1
  11  -8   1 31.3666 2.84863   2
  11  -9   1 56.7438 3.73034  -1
  12  -8   1 56.7438 3.73034   2
  14  -9   1 6.59997 2.74929   2
  14  -9   1 16.6850 5.41148  -1
  14  -7   1 16.6850 5.41148   2
  15  -9   1 24.4895 4.66173  -1
  15  -7   1 24.4895 4.66173   2
 -13  -8   1 3.82594 2.89856   2
 -12  -8   1 4.15834 6.77209  -1
 -11 -10   2 4.15834 6.77209   2
 -12  -8   1 1.69665 1.84258   2
 -11  -8   1 1.65047 1.49116   2
 -10  -8   1 0.41251 1.30090   2
  -9  -8   1 3.43890 1.23924   2
  -8  -8   1 0.88440 1.09789   2
  -7  -8   1 3.26652 0.91799   2
  -6  -8   1 8.52814 0.81963   2
  -5  -8   1 16.8405 0.91586   2
  -4  -8   1 16.0789 0.88367   2
  -3  -8   1 18.4067 0.79332   2
  -2  -8   1 3.45336 0.54117   2
  -1  -8   1 3.85194 0.46229   2
  -1  -8   1 178.057 5.73949  -1
   0  -8   1 178.057 5.73949   2
   0  -8   1 87.9537 2.75698  -1
   1  -8   1 87.9537 2.75698   2
   1  -8   1 14.5493 1.61197  -1
   2  -8   1 14.5493 1.61197   2
   2  -8   1 134.680 2.32128  -1
   3  -8   1 134.680 2.32128   2
   3  -8   1 57.0325 3.05721  -1
   4  -8   1 57.0325 3.05721   2
   5  -8   1 38.1850 1.06339   2
   6  -8   1 109.536 1.46456   2
   7  -8   1 119.291 3.83040  -1
   8  -7   1 119.291 3.83040   2
   8  -8   1 117.540 3.10289  -1
   9  -7   1 117.540 3.10289   2
   9  -8   1 33.0563 2.47934  -1
  10  -7   1 33.0563 2.47934   2
  10  -8   1 34.0134 3.22544  -1
  11  -7   1 34.0134 3.22544   2
  13  -8   1 10.8010 4.48566  -1
  13  -6   1 10.8010 4.48566   2
  13  -8   1 13.7164 1.77881   2
  14  -8   1 4.27877 1.69847   2
  15  -8   1 13.0868 6.63001  -1
  15  -6   1 13.0868 6.63001   2
  15  -8   1 18.8588 2.38092   2
 -13  -7   1 2.51389 1.99110   2
 -12  -7   1 3.16436 1.66592   2
 -11  -7   1 1.52376 1.38059   2
 -10  -7   1 0.49922 1.24263   2
  -9  -7   1 3.09442 0.93145   2
  -8  -7   1 0.30892 0.62810   2
  -7  -7   1 4.01465 0.64891   2
  -6  -7   1 -0.4778 0.57191   2
  -4  -7   1 -0.0548 0.50103   2
  -3  -7   1 7.99593 0.58927   2
  -2  -7   1 61.2133 1.03941   2
  -1  -7   1 0.39122 0.35691   2
  -1  -7   1 61.6438 3.68899  -1
   0  -7   1 61.6438 3.68899   2
   0  -7   1 10.5804 4.01964  -1
   1  -7   1 10.5804 4.01964   2
   1  -7   1 29.3145 2.49348  -1
   2  -7   1 29.3145 2.49348   2
   2  -7   1 20.9482 2.36320  -1
   3  -7   1 20.9482 2.36320   2
   3  -7   1 45.7822 2.59386  -1
   4  -7   1 45.7822 2.59386   2
   5  -7   1 0.31956 0.41200   2
   6  -7   1 81.3763 1.37807   2
   7  -7   1 107.334 1.92831   2
   8  -7   1 149.517 3.34918  -1
   8  -6   1 149.517 3.34918   2
   9  -7   1 113.577 3.14860  -1
   9  -6   1 113.577 3.14860   2
  10  -7   1 15.4251 3.20524  -1
  10  -6   1 15.4251 3.20524   2
  12  -7   1 25.0492 1.90583   2
  13  -7   1 8.19657 1.53439   2
  15  -7   1 9.50963 4.66952  -1
  15  -6   1 9.50963 4.66952   2
  15  -7   1 10.5348 5.98411  -1
  15  -5   1 10.5348 5.98411   2
 -14  -6   1 3.73960 2.20769   2
 -13  -6   1 0.74630 1.76051   2
 -12  -6   1 -1.5869 1.42881   2
 -11  -6   1 0.14637 1.00485   2
 -10  -6   1 3.66406 0.86534   2
  -9  -6   1 4.55924 0.68452   2
  -8  -6   1 2.89340 0.59143   2
  -7  -6   1 5.52470 0.59831   2
  -6  -6   1 9.05443 0.61315   2
  -6  -6   1 -1.1833 3.96973  -1
  -5  -7   1 -1.1833 3.96973   2
  -5  -6   1 16.5889 0.76454   2
  -4  -6   1 -0.1945 0.42480   2
  -3  -6   1 5.77973 0.46671   2
  -2  -6   1 70.9348 1.02410   2
  -1  -6   1 23.6897 0.62564   2
   0  -6   1 2.66595 0.36252   2
   1  -6   1 3.69218 0.34608   2
   2  -6   1 133.781 1.25530   2
   3  -6   1 11.5105 0.49342   2
   4  -6   1 115.753 1.53998   2
   5  -6   1 76.6842 1.46572   2
   6  -6   1 91.3308 1.47507   2
   6  -6   1 0.31964 2.01887  -1
   6  -5   1 0.31964 2.01887   2
   7  -6   1 101.394 1.78945   2
   7  -6   1 15.0209 1.50526  -1
   7  -5   1 15.0209 1.50526   2
   8  -6   1 41.0087 1.41352  -1
   8  -5   1 41.0087 1.41352   2
   9  -6   1 39.1782 2.77945  -1
   9  -5   1 39.1782 2.77945   2
  10  -6   1 4.77878 2.97622  -1
  10  -5   1 4.77878 2.97622   2
  11  -6   1 15.2950 1.08610   2
  12  -6   1 2.92809 1.25225   2
  14  -6   1 10.3262 2.55368   2
  15  -6   1 18.1319 4.58586  -1
  15  -5   1 18.1319 4.58586   2
  15  -6   1 8.71700 5.82695  -1
  15  -4   1 8.71700 5.82695   2
 -14  -5   1 3.37111 1.98775   2
 -13  -5   1 1.71401 1.61437   2
 -12  -5   1 2.05719 0.94074   2
 -11  -5   1 6.75266 0.94381   2
 -10  -5   1 6.91991 0.88040   2
  -9  -5   1 2.43037 0.62516   2
  -8  -5   1 2.22738 0.59375   2
  -7  -5   1 18.0878 0.72318   2
  -6  -5   1 4.83461 0.52652   2
  -5  -5   1 6.41749 0.45063   2
  -4  -5   1 1.58728 0.35859   2
  -3  -5   1 0.74825 0.30876   2
  -2  -5   1 3.33900 0.37598   2
  -1  -5   1 88.5522 0.88766   2
   0  -5   1 2.80350 0.34106   2
   1  -5   1 87.8136 0.96329   2
   2  -5   1 121.704 1.12889   2
   3  -5   1 -0.2927 0.30109   2
   4  -5   1 3.05803 0.46129   2
   5  -5   1 24.6410 0.97643   2
   6  -5   1 1.65119 1.20962  -1
   6  -4   1 1.65119 1.20962   2
   7  -5   1 20.2182 1.28488  -1
   7  -4   1 20.2182 1.28488   2
   8  -5   1 10.5297 1.13293  -1
   8  -4   1 10.5297 1.13293   2
   9  -5   1 -0.5271 1.21539  -1
   9  -4   1 -0.5271 1.21539   2
  10  -5   1 42.7878 4.04537  -1
  10  -4   1 42.7878 4.04537   2
  11  -5   1 22.5737 1.15049   2
  12  -5   1 1.90289 0.85709   2
  13  -5   1 60.5468 4.34545  -1
  13  -4   1 60.5468 4.34545   2
  13  -5   1 38.7783 3.32998   2
  14  -5   1 22.5315 1.97939   2
  14  -5   1 17.2783 4.02344  -1
  14  -4   1 17.2783 4.02344   2
  15  -5   1 -7.2839 5.76534  -1
  15  -3   1 -7.2839 5.76534   2
  15  -5   1 9.14926 4.40554  -1
  15  -4   1 9.14926 4.40554   2
 -13  -4   1 5.76710 1.00838   2
 -12  -4   1 10.8704 1.00085   2
 -11  -4   1 24.0521 1.10167   2
 -10  -4   1 3.85393 0.76300   2
  -9  -4   1 12.1692 0.71251   2
  -8  -4   1 0.07211 0.51733   2
  -7  -4   1 13.8925 0.61764   2
  -6  -4   1 14.7864 0.58417   2
  -5  -4   1 30.9433 0.78016   2
  -4  -4   1 25.4290 0.67351   2
  -3  -4   1 18.5710 0.54339   2
  -2  -4   1 20.8108 0.58536   2
  -1  -4   1 415.462 2.33893   2
   0  -4   1 1.81714 0.31021   2
   1  -4   1 17.9906 0.47664   2
   2  -4   1 181.321 1.42687   2
   3  -4   1 133.476 1.24855   2
   4  -4   1 6.62392 0.44178   2
   5  -4   1 14.8648 0.68038   2
   5  -4   1 25.2568 2.51683  -1
   5  -3   1 25.2568 2.51683   2
   6  -4   1 0.39704 2.33961  -1
   6  -3   1 0.39704 2.33961   2
   7  -4   1 15.3031 0.93544  -1
   7  -3   1 15.3031 0.93544   2
   8  -4   1 30.4561 1.07587  -1
   8  -3   1 30.4561 1.07587   2
   9  -4   1 5.34343 1.19940  -1
   9  -3   1 5.34343 1.19940   2
  10  -4   1 142.326 3.18502  -1
  10  -3   1 142.326 3.18502   2
  11  -4   1 33.2072 1.41695   2
  12  -4   1 18.5831 1.12391   2
  13  -4   1 17.6337 3.61211  -1
  13  -3   1 17.6337 3.61211   2
  14  -4   1 -7.1415 4.77758  -1
  14  -2   1 -7.1415 4.77758   2
  14  -4   1 1.26782 3.71423  -1
  14  -3   1 1.26782 3.71423   2
  15  -4   1 1.94195 4.36137  -1
  15  -3   1 1.94195 4.36137   2
  15  -4   1 7.84148 6.47445  -1
  15  -2   1 7.84148 6.47445   2
 -13  -3   1 15.0447 1.09860   2
 -12  -3   1 22.4029 1.04729   2
 -11  -3   1 23.9859 1.00805   2
 -10  -3   1 0.67878 0.64051   2
  -9  -3   1 16.1929 0.77616   2
  -8  -3   1 22.9437 0.89484   2
  -7  -3   1 67.3795 1.06722   2
  -6  -3   1 101.866 1.07563   2
  -5  -3   1 60.6356 0.87144   2
  -4  -3   1 35.5291 0.67836   2
  -3  -3   1 1.47119 0.24790   2
  -2  -3   1 14.4032 0.39234   2
  -1  -3   1 3.98525 0.24855   2
   0  -3   1 253.332 1.62725   2
   1  -3   1 0.44294 0.22250   2
   2  -3   1 14.7708 0.43056   2
   3  -3   1 519.522 3.54381   2
   4  -3   1 0.65356 0.33411   2
   6  -3   1 27.9527 3.09460  -1
   6  -2   1 27.9527 3.09460   2
   7  -3   1 10.6888 0.81096  -1
   7  -2   1 10.6888 0.81096   2
   8  -3   1 3.55894 0.94725  -1
   8  -2   1 3.55894 0.94725   2
   9  -3   1 7.28540 1.47872  -1
   9  -2   1 7.28540 1.47872   2
  10  -3   1 155.435 6.78156  -1
  10  -2   1 155.435 6.78156   2
  11  -3   1 46.8938 1.39589   2
  12  -3   1 48.9344 1.47406   2
  13  -3   1 -1.6384 3.32102  -1
  13  -2   1 -1.6384 3.32102   2
  14  -3   1 -0.2333 3.91116  -1
  14  -2   1 -0.2333 3.91116   2
  14  -3   1 6.84151 5.43547  -1
  14  -1   1 6.84151 5.43547   2
  15  -3   1 5.88632 6.55056  -1
  15  -1   1 5.88632 6.55056   2
 -15  -2   1 -0.3885 6.66142  -1
 -15  -4   2 -0.3885 6.66142   2
 -13  -2   1 36.7585 1.46259   2
 -12  -2   1 25.8918 1.13424   2
 -11  -2   1 9.23356 0.76560   2
 -10  -2   1 13.5459 0.79459   2
  -9  -2   1 2.32871 0.55656   2
  -8  -2   1 40.9781 1.02883   2
  -7  -2   1 106.394 1.15411   2
  -6  -2   1 5.48408 0.36799   2
  -5  -2   1 25.8865 0.64008   2
  -4  -2   1 22.2272 0.61974   2
  -3  -2   1 45.3680 0.59260   2
  -2  -2   1 -1.0038 1.29307  -1
  -2  -2   1 -1.0038 1.29307   2
  -1  -2   1 0.52318 0.11964   2
   0  -2   1 94.1606 0.76813   2
   1  -2   1 373.856 2.23958   2
   2  -2   1 2.05436 0.21350   2
   3  -2   1 32.5782 0.63909   2
   4  -2   1 4.14769 0.35824   2
   5  -2   1 11.9658 0.47786   2
   6  -2   1 23.8522 2.87399  -1
   6  -1   1 23.8522 2.87399   2
   7  -2   1 24.0028 1.01997  -1
   7  -1   1 24.0028 1.01997   2
   8  -2   1 4.42275 1.08246  -1
   8  -1   1 4.42275 1.08246   2
   9  -2   1 10.3324 2.19450  -1
   9  -1   1 10.3324 2.19450   2
  11  -2   1 9.48367 0.87050   2
  12  -2   1 7.70421 0.88237   2
  13  -2   1 1.12087 3.92087  -1
  13  -1   1 1.12087 3.92087   2
 -15  -1   1 1.92139 3.82735  -1
 -15  -3   2 1.92139 3.82735   2
 -15  -1   1 19.4510 4.75346  -1
 -15  -2   1 19.4510 4.75346   2
 -14  -1   1 25.6700 4.03457  -1
 -14  -2   1 25.6700 4.03457   2
 -14  -1   1 27.5014 1.34867   2
 -14  -1   1 7.90390 4.18538  -1
 -14  -3   2 7.90390 4.18538   2
 -13  -1   1 36.4434 1.39883   2
 -12  -1   1 22.3085 0.97336   2
 -11  -1   1 3.69521 0.66296   2
 -10  -1   1 47.4639 1.16950   2
  -9  -1   1 5.93037 0.61477   2
  -8  -1   1 69.5076 1.03034   2
  -6  -1   1 10.1513 0.38658   2
  -5  -1   1 9.70997 0.35017   2
  -4  -1   1 122.417 1.53294   2
  -3  -1   1 25.2721 0.60035   2
  -2  -1   1 260.434 1.84685   2
  -1  -1   1 1.94963 0.31905  -1
  -1  -1   1 1.94963 0.31905   2
   0  -1   1 320.898 1.91541   2
   1  -1   1 445.869 2.38476   2
   2  -1   1 0.95464 0.15838   2
   3  -1   1 90.2419 0.96458   2
   4  -1   1 142.675 1.33820   2
   5  -1   1 16.9105 0.59809   2
   5  -1   1 -0.1753 1.53518  -1
   5   0   1 -0.1753 1.53518   2
   6  -1   1 15.4350 1.34591  -1
   6   0   1 15.4350 1.34591   2
   7  -1   1 3.42972 1.04238  -1
   7   0   1 3.42972 1.04238   2
   8  -1   1 39.2574 1.80563  -1
   8   0   1 39.2574 1.80563   2
  10  -1   1 1.26764 0.69782   2
  11  -1   1 11.5408 0.88297   2
  12  -1   1 -0.4251 0.73777   2
  13  -1   1 10.9578 3.96132  -1
  13   0   1 10.9578 3.96132   2
  14  -1   1 16.3436 4.03622  -1
  14   1   0 16.3436 4.03622   2
 -15   0   1 8.32790 1.30922   2
 -15   0   1 0.56057 4.74657  -1
 -15  -2   2 0.56057 4.74657   2
 -15   0   1 6.37583 4.09506  -1
 -15  -1   1 6.37583 4.09506   2
 -13   0   1 2.63267 0.77115   2
 -12   0   1 5.42630 0.73493   2
 -11   0   1 11.1572 0.78513   2
 -10   0   1 24.3978 1.00341   2
  -7   0   1 132.551 3.44556  -1
  -7  -1   1 132.551 3.44556   2
  -6   0   1 173.636 1.93228   2
  -5   0   1 283.434 3.14901   2
  -4   0   1 627.740 7.79595   2
  -3   0   1 216.146 2.97914   2
  -2   0   1 838.142 10.2927  -1
  -2   0   1 838.142 10.2927   2
  -1   0   1 175.687 3.96440  -1
  -1   0   1 175.687 3.96440   2
   0   0   1 188.087 1.61590   2
   1   0   1 120.020 0.74186   2
   2   0   1 276.517 1.61937   2
   3   0   1 14.2519 0.48654   2
   4   0   1 16.2915 0.57763   2
   5   0   1 24.9998 2.42092  -1
   5   1   1 24.9998 2.42092   2
   6   0   1 6.29257 2.31003  -1
   6   1   1 6.29257 2.31003   2
   9   0   1 14.1910 0.85464   2
  10   0   1 0.37236 0.67119   2
  11   0   1 0.74570 0.72792   2
  12   0   1 -0.6521 0.74552   2
  13   0   1 7.94990 4.26708  -1
  13   1   1 7.94990 4.26708   2
  14   0   1 15.6178 1.92385   2
  14   0   1 28.5242 5.82834  -1
  14   2   0 28.5242 5.82834   2
  15   0   1 18.4547 7.28283  -1
  15   2   0 18.4547 7.28283   2
  15   0   1 9.53933 2.11868   2
 -16   1   1 25.7826 4.70312  -1
 -16   0   1 25.7826 4.70312   2
 -15   1   1 -3.0433 3.92384  -1
 -15  -1   2 -3.0433 3.92384   2
 -14   1   1 8.13911 3.38173  -1
 -14   0   1 8.13911 3.38173   2
 -13   1   1 25.6110 1.13179   2
 -12   1   1 111.894 1.70132   2
 -11   1   1 252.827 2.62536   2
  -9   1   1 81.6327 2.65013  -1
  -9   0   1 81.6327 2.65013   2
  -8   1   1 29.2691 1.35521  -1
  -8   0   1 29.2691 1.35521   2
  -7   1   1 7.71717 1.10654  -1
  -7   0   1 7.71717 1.10654   2
  -6   1   1 279.714 2.58814   2
  -5   1   1 9.69411 0.48002   2
  -4   1   1 75.1721 1.11250   2
  -3   1   1 390.104 5.00302  -1
  -3   1   1 390.104 5.00302   2
  -2   1   1 19.7798 0.26668   2
  -1   1   1 279.205 1.92940  -1
  -1   1   1 279.205 1.92940   2
   0   1   1 336.794 2.02185   2
   1   1   1 17.7611 0.30253   2
   2   1   1 263.397 1.61748   2
   3   1   1 95.0309 1.04420   2
   4   1   1 150.999 1.65988   2
   5   1   1 11.3360 2.49848  -1
   5   2   1 11.3360 2.49848   2
   7   1   1 26.2908 0.87429   2
   8   1   1 17.4808 0.78048   2
   9   1   1 22.8761 0.98041   2
  10   1   1 -0.8416 0.65074   2
  11   1   1 13.3608 0.93035   2
  12   1   1 1.52976 0.79991   2
  13   1   1 36.3131 3.46178  -1
  13   3   0 36.3131 3.46178   2
  14   1   1 4.99261 5.84332  -1
  14   3   0 4.99261 5.84332   2
  14   1   1 7.91964 1.82346   2
  15   1   1 1.01579 1.99385   2
  15   1   1 -6.2245 7.65235  -1
  15   3   0 -6.2245 7.65235   2
 -16   2   1 13.3811 4.59745  -1
 -16   1   1 13.3811 4.59745   2
 -15   2   1 11.3261 3.86293  -1
 -15   1   1 11.3261 3.86293   2
 -14   2   1 21.8371 1.09669   2
 -14   2   1 8.47500 3.30737  -1
 -14   1   1 8.47500 3.30737   2
 -13   2   1 57.0073 1.45101   2
 -12   2   1 169.833 2.11679   2
 -10   2   1 146.323 2.41118  -1
 -10   1   1 146.323 2.41118   2
  -9   2   1 377.637 3.14027  -1
  -9   1   1 377.637 3.14027   2
  -8   2   1 123.113 2.04863  -1
  -8   1   1 123.113 2.04863   2
  -7   2   1 -0.1132 2.15151  -1
  -7   1   1 -0.1132 2.15151   2
  -5   2   1 151.354 1.33881   2
  -4   2   1 189.482 1.30248   2
  -3   2   1 730.187 12.4235  -1
  -3   2   1 730.187 12.4235   2
  -2   2   1 39.3816 0.72775  -1
  -2   2   1 39.3816 0.72775   2
  -1   2   1 886.813 4.36929   2
   0   2   1 41.9512 0.41775   2
   1   2   1 67.2927 0.63880   2
   2   2   1 11.6585 0.38818   2
   3   2   1 -0.0989 0.30998   2
   4   2   1 35.9097 0.84071   2
   6   2   1 3.23705 0.45347   2
   7   2   1 29.3796 1.01281   2
   8   2   1 -0.0757 0.55498   2
   9   2   1 0.03620 0.65626   2
  10   2   1 4.75711 0.78100   2
  11   2   1 16.2453 1.01225   2
  12   2   1 0.73689 0.82259   2
  13   2   1 24.5177 5.41889  -1
  13   4   0 24.5177 5.41889   2
  14   2   1 5.51204 6.65936  -1
  14   4   0 5.51204 6.65936   2
 -16   3   1 1.23339 4.41259  -1
 -16   2   1 1.23339 4.41259   2
 -15   3   1 7.44285 4.67730  -1
 -15   1   1 7.44285 4.67730   2
 -15   3   1 16.4156 2.77842  -1
 -15   2   1 16.4156 2.77842   2
 -13   3   1 64.7313 1.53972   2
 -11   3   1 156.557 2.46455  -1
 -11   2   1 156.557 2.46455   2
 -10   3   1 168.989 1.94763  -1
 -10   2   1 168.989 1.94763   2
  -9   3   1 92.6404 1.41770  -1
  -9   2   1 92.6404 1.41770   2
  -8   3   1 27.7600 1.31191  -1
  -8   2   1 27.7600 1.31191   2
  -7   3   1 0.51129 1.43235  -1
  -7   2   1 0.51129 1.43235   2
  -6   3   1 78.5582 2.72804  -1
  -6   2   1 78.5582 2.72804   2
  -5   3   1 139.789 1.33768   2
  -4   3   1 178.861 1.35540   2
  -3   3   1 347.809 6.56893  -1
  -3   3   1 347.809 6.56893   2
  -2   3   1 107.671 2.84732  -1
  -2   3   1 107.671 2.84732   2
  -1   3   1 399.545 1.98601   2
   0   3   1 97.1056 0.71354   2
   1   3   1 161.271 1.13242   2
   2   3   1 245.740 1.68128   2
   3   3   1 102.025 1.12217   2
   4   3   1 191.117 1.97727   2
   5   3   1 123.648 1.59853   2
   6   3   1 96.9281 1.45220   2
   7   3   1 11.9380 0.75103   2
   8   3   1 9.85745 0.73993   2
   9   3   1 5.49911 0.76342   2
  10   3   1 2.75911 0.75885   2
  11   3   1 8.74382 0.94033   2
  14   3   1 15.3640 7.64636  -1
  14   5   0 15.3640 7.64636   2
 -16   4   1 0.22564 5.38562  -1
 -16   2   1 0.22564 5.38562   2
 -16   4   1 30.2870 4.67086  -1
 -16   3   1 30.2870 4.67086   2
 -15   4   1 32.7626 3.73012  -1
 -15   3   1 32.7626 3.73012   2
 -15   4   1 20.4963 4.26229  -1
 -15   2   1 20.4963 4.26229   2
 -14   4   1 10.6815 0.99141   2
 -14   4   1 41.1826 3.36932  -1
 -14   3   1 41.1826 3.36932   2
 -13   4   1 32.2654 1.30457   2
 -12   4   1 194.338 4.52906  -1
 -12   3   1 194.338 4.52906   2
 -11   4   1 20.3402 1.36863  -1
 -11   3   1 20.3402 1.36863   2
 -10   4   1 210.145 2.27005  -1
 -10   3   1 210.145 2.27005   2
  -9   4   1 3.85985 1.25340  -1
  -9   3   1 3.85985 1.25340   2
  -8   4   1 25.7828 1.18597  -1
  -8   3   1 25.7828 1.18597   2
  -7   4   1 76.7257 1.46287  -1
  -7   3   1 76.7257 1.46287   2
  -6   4   1 102.128 3.06941  -1
  -6   3   1 102.128 3.06941   2
  -6   4   1 323.156 2.82902   2
  -5   4   1 454.558 3.14733   2
  -4   4   1 145.862 1.35544   2
  -3   4   1 258.405 1.83244   2
  -2   4   1 22.2787 0.51941   2
  -1   4   1 606.897 2.97117   2
   0   4   1 54.2253 0.63593   2
   1   4   1 167.181 1.15125   2
   2   4   1 278.512 1.93508   2
   3   4   1 67.9352 0.98149   2
   4   4   1 21.9071 0.67639   2
   5   4   1 17.4286 0.82817   2
   6   4   1 54.8547 1.25935   2
   7   4   1 16.0865 0.85188   2
   8   4   1 4.68074 0.73319   2
   8   4   1 2.77387 3.90796  -1
   8   5   0 2.77387 3.90796   2
   9   4   1 7.28434 0.79916   2
  10   4   1 5.04683 0.83827   2
  11   4   1 0.11748 1.11645   2
 -16   5   1 20.9478 3.71068  -1
 -16   3   1 20.9478 3.71068   2
 -16   5   1 21.3473 4.39115  -1
 -16   4   1 21.3473 4.39115   2
 -15   5   1 4.14831 3.90028  -1
 -15   4   1 4.14831 3.90028   2
 -15   5   1 39.8210 4.39109  -1
 -15   3   1 39.8210 4.39109   2
 -13   5   1 29.5325 1.33412   2
 -12   5   1 107.924 2.85393  -1
 -12   4   1 107.924 2.85393   2
 -11   5   1 27.8577 1.68062  -1
 -11   4   1 27.8577 1.68062   2
 -10   5   1 201.977 2.46187  -1
 -10   4   1 201.977 2.46187   2
  -9   5   1 72.6436 1.42824  -1
  -9   4   1 72.6436 1.42824   2
  -8   5   1 219.385 1.97456  -1
  -8   4   1 219.385 1.97456   2
  -7   5   1 586.533 6.21623  -1
  -7   4   1 586.533 6.21623   2
  -6   5   1 264.963 2.32294   2
  -5   5   1 293.383 2.68843   2
  -4   5   1 93.8088 1.20334   2
  -3   5   1 68.2089 0.74517   2
  -2   5   1 338.457 2.22418   2
  -1   5   1 144.986 1.08816   2
   0   5   1 99.4307 0.89424   2
   1   5   1 332.119 1.96372   2
   2   5   1 251.048 1.99899   2
   3   5   1 72.9045 1.09460   2
   4   5   1 16.6338 0.65276   2
   5   5   1 39.1862 1.15687   2
   6   5   1 26.0459 0.94870   2
   7   5   1 41.9811 1.20944   2
   8   5   1 1.18055 0.67659   2
   9   5   1 2.03179 0.78558   2
  10   5   1 4.58614 1.13431   2
  11   5   1 2.08366 1.18421   2
  12   5   1 5.00483 1.65831   2
 -16   6   1 2.02946 4.23197  -1
 -16   5   1 2.02946 4.23197   2
 -16   6   1 14.9023 3.56507  -1
 -16   4   1 14.9023 3.56507   2
 -15   6   1 10.8747 4.23836  -1
 -15   4   1 10.8747 4.23836   2
 -14   6   1 25.2901 1.48396   2
 -13   6   1 11.7464 0.99671   2
 -12   6   1 16.0340 3.62154  -1
 -12   5   1 16.0340 3.62154   2
 -11   6   1 154.657 2.93218  -1
 -11   5   1 154.657 2.93218   2
 -10   6   1 98.6223 2.39749  -1
 -10   5   1 98.6223 2.39749   2
  -9   6   1 179.129 2.94032  -1
  -9   5   1 179.129 2.94032   2
  -8   6   1 248.591 3.75414  -1
  -8   5   1 248.591 3.75414   2
  -7   6   1 151.048 1.75530   2
  -7   6   1 385.865 8.04785  -1
  -7   5   1 385.865 8.04785   2
  -6   6   1 353.116 2.96668   2
  -5   6   1 270.163 2.64472   2
  -4   6   1 106.357 1.20224   2
  -3   6   1 79.9874 0.92061   2
  -2   6   1 323.709 2.02377   2
  -1   6   1 44.0961 0.65505   2
   0   6   1 462.314 2.86091   2
   1   6   1 877.040 4.72210   2
   2   6   1 119.269 1.27419   2
   3   6   1 13.8770 0.69540   2
   4   6   1 23.4385 0.81924   2
   5   6   1 87.1377 1.61365   2
   5   6   1 62.3531 4.81829  -1
   4   7   1 62.3531 4.81829   2
   6   6   1 44.7820 1.26393   2
   7   6   1 17.5007 0.89284   2
   8   6   1 -0.5324 0.73938   2
   9   6   1 4.49926 1.21485   2
  10   6   1 -1.2170 1.07750   2
  11   6   1 1.46241 1.45471   2
  12   6   1 2.15232 1.73376   2
  13   6   1 1.73334 2.08504   2
 -16   7   1 10.7932 2.10912   2
 -15   7   1 8.00080 4.50652  -1
 -15   5   1 8.00080 4.50652   2
 -14   7   1 13.4550 1.65998   2
 -14   7   1 23.3338 3.16646  -1
 -14   5   1 23.3338 3.16646   2
 -13   7   1 10.2459 1.01943   2
 -12   7   1 0.59916 3.70567  -1
 -12   6   1 0.59916 3.70567   2
 -11   7   1 233.602 4.66437  -1
 -11   6   1 233.602 4.66437   2
 -10   7   1 83.7560 3.12006  -1
 -10   6   1 83.7560 3.12006   2
  -9   7   1 176.195 3.40068  -1
  -9   6   1 176.195 3.40068   2
  -9   7   1 95.9326 1.45923   2
  -8   7   1 162.033 5.24274  -1
  -8   6   1 162.033 5.24274   2
  -8   7   1 171.530 2.01895   2
  -7   7   1 131.176 1.73695   2
  -6   7   1 466.114 3.79025   2
  -4   7   1 198.712 4.05234  -1
  -5   7   1 198.712 4.05234   2
  -3   7   1 85.8029 2.32007  -1
  -4   7   1 85.8029 2.32007   2
  -2   7   1 38.8408 0.70150   2
  -2   7   1 59.9751 2.93487  -1
  -3   7   1 59.9751 2.93487   2
  -1   7   1 0.22928 0.31597   2
   0   7   1 178.700 1.61057   2
   1   7   1 223.674 1.70073   2
   2   7   1 26.7949 0.93105   2
   3   7   1 90.4093 1.30089   2
   4   7   1 126.272 5.64525  -1
   3   8   1 126.272 5.64525   2
   5   7   1 84.6873 1.58705   2
   6   7   1 61.7169 1.58226   2
   7   7   1 -0.7729 0.93679   2
   7   7   1 124.311 8.12411  -1
   6   8   1 124.311 8.12411   2
   8   7   1 31.0174 1.98186   2
   9   7   1 20.8238 1.67989   2
  10   7   1 10.7004 1.68134   2
  11   7   1 5.60186 1.71535   2
  12   7   1 4.29307 2.01092   2
 -16   8   1 8.53723 2.13275   2
 -16   8   1 12.8559 5.97424  -1
 -16   6   1 12.8559 5.97424   2
 -15   8   1 6.60102 1.82268   2
 -15   8   1 9.08556 4.95046  -1
 -15   6   1 9.08556 4.95046   2
 -11   8   1 24.5601 4.05107  -1
 -12   7   1 24.5601 4.05107   2
 -10   8   1 108.569 5.18392  -1
 -11   7   1 108.569 5.18392   2
  -9   8   1 77.7877 4.63702  -1
 -10   7   1 77.7877 4.63702   2
  -7   8   1 160.266 2.03612   2
  -5   8   1 218.260 4.67886  -1
  -6   8   1 218.260 4.67886   2
  -4   8   1 117.354 3.57896  -1
  -5   8   1 117.354 3.57896   2
  -3   8   1 11.4216 1.87619  -1
  -4   8   1 11.4216 1.87619   2
  -2   8   1 90.3295 2.53695  -1
  -3   8   1 90.3295 2.53695   2
  -1   8   1 5.65357 2.74008  -1
  -2   8   1 5.65357 2.74008   2
   0   8   1 154.850 5.38207  -1
  -1   8   1 154.850 5.38207   2
   0   8   1 215.421 1.90782   2
   1   8   1 125.135 1.44271   2
   2   8   1 131.182 1.71179   2
   4   8   1 35.9139 1.28292   2
   5   8   1 15.6653 1.32237   2
   7   8   1 16.9948 1.38496   2
   8   8   1 52.7092 2.54642   2
   9   8   1 2.02239 1.35715   2
  10   8   1 2.28006 1.51161   2
  11   8   1 4.62627 2.76053   2
  11   8   1 2.84899 6.16580  -1
  10  10   0 2.84899 6.16580   2
  12   8   1 0.47264 3.29720   2
 -15   9   1 11.3788 2.07997   2
 -15   9   1 13.0807 5.60788  -1
 -15   7   1 13.0807 5.60788   2
 -13   9   1 1.66702 5.06832  -1
 -14   8   1 1.66702 5.06832   2
 -12   9   1 12.6993 3.11435  -1
 -13   8   1 12.6993 3.11435   2
 -11   9   1 43.2049 3.14855  -1
 -12   8   1 43.2049 3.14855   2
 -10   9   1 16.3615 2.49669  -1
 -11   8   1 16.3615 2.49669   2
  -9   9   1 41.1993 2.37563  -1
 -10   8   1 41.1993 2.37563   2
  -8   9   1 68.7278 3.42270  -1
  -9   8   1 68.7278 3.42270   2
  -7   9   1 100.724 1.88945   2
  -7   9   1 144.854 5.81754  -1
  -8   8   1 144.854 5.81754   2
  -5   9   1 71.1842 4.98524  -1
  -6   9   1 71.1842 4.98524   2
  -4   9   1 12.5531 1.80138  -1
  -5   9   1 12.5531 1.80138   2
  -3   9   1 23.9694 2.10624  -1
  -4   9   1 23.9694 2.10624   2
  -2   9   1 107.714 2.60446  -1
  -3   9   1 107.714 2.60446   2
  -1   9   1 127.863 1.42285   2
  -1   9   1 37.0401 3.63242  -1
  -2   9   1 37.0401 3.63242   2
   0   9   1 39.5950 1.49133   2
   1   9   1 50.3496 1.64490   2
   2   9   1 157.156 3.72441   2
   3   9   1 162.915 2.73451   2
   4   9   1 85.1864 2.11882   2
   5   9   1 71.9795 2.30185   2
   6   9   1 91.6359 2.54865   2
   7   9   1 35.5830 2.01563   2
   8   9   1 21.8181 5.08803  -1
   7  10   0 21.8181 5.08803   2
   8   9   1 13.1095 2.24534   2
   9   9   1 1.17003 1.89099   2
  10   9   1 2.20582 2.48403   2
 -15  10   1 7.02768 3.13388   2
 -13  10   1 -3.3479 3.51603  -1
 -14   9   1 -3.3479 3.51603   2
 -12  10   1 7.76474 3.20795  -1
 -13   9   1 7.76474 3.20795   2
 -11  10   1 17.5769 2.88077  -1
 -12   9   1 17.5769 2.88077   2
 -10  10   1 37.4395 2.52327  -1
 -11   9   1 37.4395 2.52327   2
  -9  10   1 48.4120 2.89490  -1
 -10   9   1 48.4120 2.89490   2
  -8  10   1 61.0334 3.54662  -1
  -9   9   1 61.0334 3.54662   2
  -8  10   1 47.0640 1.60138   2
  -7  10   1 92.3696 1.95810   2
  -7  10   1 85.4728 5.38162  -1
  -8   9   1 85.4728 5.38162   2
  -5  10   1 98.1935 5.75452  -1
  -6  10   1 98.1935 5.75452   2
  -4  10   1 80.4810 5.42126  -1
  -5  10   1 80.4810 5.42126   2
  -4  10   1 196.942 2.56076   2
  -3  10   1 86.4355 1.76692   2
  -2  10   1 85.0540 1.69595   2
  -1  10   1 89.0775 2.27666   2
   0  10   1 59.6087 2.54977   2
   1  10   1 67.4688 2.73581   2
   2  10   1 49.9064 2.55300   2
   3  10   1 3.06476 1.17059   2
   4  10   1 12.5279 1.56938   2
   5  10   1 19.4072 1.94605   2
   6  10   1 -6.9645 6.25305  -1
   5  11   0 -6.9645 6.25305   2
   6  10   1 8.08666 2.61630   2
   7  10   1 -3.2971 5.09245  -1
   6  11   0 -3.2971 5.09245   2
   7  10   1 28.0073 5.66934   2
   8  10   1 17.0309 5.74276   2
   9  10   1 9.53345 5.89591   2
 -13  11   1 -4.8383 3.77441  -1
 -14  10   1 -4.8383 3.77441   2
 -12  11   1 24.0478 3.40446  -1
 -13  10   1 24.0478 3.40446   2
 -11  11   1 39.8315 2.78859  -1
 -12  10   1 39.8315 2.78859   2
 -10  11   1 83.2141 3.11313  -1
 -11  10   1 83.2141 3.11313   2
  -9  11   1 28.2331 2.64751  -1
 -10  10   1 28.2331 2.64751   2
  -8  11   1 92.3548 2.81765   2
  -8  11   1 42.0057 2.99590  -1
  -9  10   1 42.0057 2.99590   2
  -7  11   1 60.1427 2.43351   2
  -6  11   1 70.4844 2.95705   2
  -5  11   1 92.8035 3.23388   2
  -4  11   1 283.087 4.95905   2
  -3  11   1 35.0766 2.18337   2
  -2  11   1 122.119 3.33023   2
  -1  11   1 13.6947 1.71380   2
   0  11   1 2.26782 1.47454   2
   1  11   1 0.14381 1.41066   2
   2  11   1 3.49296 1.58710   2
   3  11   1 1.62729 2.31954   2
   4  11   1 44.9756 4.07311   2
   4  11   1 0.82936 6.48818  -1
   3  12   0 0.82936 6.48818   2
   5  11   1 9.59931 5.40568  -1
   4  12   0 9.59931 5.40568   2
   6  11   1 18.8025 5.45230  -1
   5  12   0 18.8025 5.45230   2
   6  11   1 23.4770 3.42320   2
   7  11   1 37.4023 6.80894   2
   7  11   1 22.0359 5.67560  -1
   6  12   0 22.0359 5.67560   2
   8  11   1 20.1103 6.57688   2
   8  11   1 0.43202 11.3259  -1
   7  12   0 0.43202 11.3259   2
   9  11   1 4.58195 6.52064   2
 -14  12   1 3.01752 7.91427  -1
 -15  11   1 3.01752 7.91427   2
 -13  12   1 8.13306 6.09711  -1
 -14  11   1 8.13306 6.09711   2
 -12  12   1 39.2137 5.51275  -1
 -13  11   1 39.2137 5.51275   2
 -11  12   1 35.2549 3.74882  -1
 -12  11   1 35.2549 3.74882   2
 -10  12   1 24.3430 3.59490  -1
 -11  11   1 24.3430 3.59490   2
  -9  12   1 25.8197 2.62186   2
  -9  12   1 12.9217 3.37235  -1
 -10  11   1 12.9217 3.37235   2
  -8  12   1 52.6640 4.13892  -1
  -9  11   1 52.6640 4.13892   2
  -8  12   1 31.5451 2.64126   2
  -7  12   1 27.3863 2.43181   2
  -6  12   1 31.8670 2.47386   2
  -5  12   1 116.040 3.74308   2
  -4  12   1 120.583 5.27406   2
  -3  12   1 6.83311 1.53868   2
  -2  12   1 15.1867 1.79552   2
  -1  12   1 -2.2670 1.37167   2
   0  12   1 3.23376 1.59897   2
   1  12   1 5.95471 1.76489   2
   2  12   1 13.1317 2.97010   2
   4  12   1 9.76461 7.71734  -1
   3  13   0 9.76461 7.71734   2
   5  12   1 4.71974 5.82274  -1
   4  13   0 4.71974 5.82274   2
   6  12   1 -1.1372 5.66904  -1
   5  13   0 -1.1372 5.66904   2
   7  12   1 6.87513 6.35500  -1
   6  13   0 6.87513 6.35500   2
   7  12   1 17.4607 6.87096   2
   8  12   1 5.33702 6.90605   2
   8  12   1 -5.2675 12.2884  -1
   7  13   0 -5.2675 12.2884   2
 -12  13   1 26.7137 10.0467  -1
 -13  12   1 26.7137 10.0467   2
 -11  13   1 16.1649 6.25402  -1
 -12  12   1 16.1649 6.25402   2
 -10  13   1 3.15778 5.44469  -1
 -11  12   1 3.15778 5.44469   2
 -10  13   1 20.8136 2.85116   2
  -9  13   1 11.6555 2.52967   2
  -9  13   1 17.4789 7.63875  -1
 -10  12   1 17.4789 7.63875   2
  -8  13   1 20.3031 2.66459   2
  -7  13   1 56.7808 3.26124   2
  -6  13   1 55.7972 3.20331   2
  -5  13   1 58.1778 3.44936   2
  -4  13   1 14.1547 3.22335   2
  -3  13   1 20.2185 3.41718   2
  -2  13   1 31.2966 2.25101   2
  -1  13   1 31.7701 2.36032   2
   0  13   1 31.4294 2.55646   2
   1  13   1 26.1459 3.88392   2
   3  13   1 -0.0973 9.41096  -1
   2  14   0 -0.0973 9.41096   2
   4  13   1 -1.9287 7.10423  -1
   3  14   0 -1.9287 7.10423   2
   5  13   1 1.36803 6.59141  -1
   4  14   0 1.36803 6.59141   2
   6  13   1 3.97947 6.65176  -1
   5  14   0 3.97947 6.65176   2
   7  13   1 9.39145 7.37633   2
   7  13   1 -3.7915 11.9939  -1
   6  14   0 -3.7915 11.9939   2
   8  13   1 5.50511 7.63357   2
   8  13   1 1.89000 13.1187  -1
   7  14   0 1.89000 13.1187   2
 -12  14   1 6.27511 9.95839  -1
 -13  13   1 6.27511 9.95839   2
 -11  14   1 6.67484 4.01043   2
 -11  14   1 7.09238 7.46693  -1
 -12  13   1 7.09238 7.46693   2
 -10  14   1 13.8455 7.11867  -1
 -11  13   1 13.8455 7.11867   2
 -10  14   1 1.58798 2.69155   2
  -9  14   1 -0.5012 2.58266   2
  -8  14   1 7.80412 2.72086   2
  -7  14   1 25.8393 3.03091   2
  -6  14   1 35.3140 3.19171   2
  -5  14   1 21.5841 2.91439   2
  -3  14   1 5.01036 10.3920  -1
  -4  14   0 5.01036 10.3920   2
  -2  14   1 38.5955 4.54179   2
  -2  14   1 5.39851 9.81562  -1
  -3  14   0 5.39851 9.81562   2
  -1  14   1 -2.7205 10.5183  -1
  -2  14   0 -2.7205 10.5183   2
  -1  14   1 47.1844 4.82634   2
   0  14   1 24.5999 4.22336   2
   1  14   1 12.3415 3.98620   2
   3  14   1 8.74468 11.4555  -1
   2  15   0 8.74468 11.4555   2
   4  14   1 4.09362 8.38467  -1
   3  15   0 4.09362 8.38467   2
   5  14   1 3.79717 7.68708  -1
   4  15   0 3.79717 7.68708   2
   6  14   1 -2.0163 7.04320  -1
   5  15   0 -2.0163 7.04320   2
 -12  15   1 -0.1044 4.49682   2
 -11  15   1 1.50008 4.25250   2
 -11  15   1 4.64551 8.54462  -1
 -12  14   1 4.64551 8.54462   2
 -10  15   1 -0.4339 3.06865   2
  -9  15   1 3.22409 3.07216   2
  -8  15   1 5.37123 3.04858   2
  -7  15   1 10.9929 3.12395   2
  -4  15   1 10.2766 7.85378  -1
  -5  15   0 10.2766 7.85378   2
  -3  15   1 -7.5168 7.50642  -1
  -4  15   0 -7.5168 7.50642   2
  -2  15   1 1.84872 7.50622  -1
  -3  15   0 1.84872 7.50622   2
  -1  15   1 -5.0605 8.01720  -1
  -2  15   0 -5.0605 8.01720   2
  -1  15   1 24.3569 4.62423   2
   0  15   1 14.4114 4.43580   2
   3  15   1 0.66670 13.6401  -1
   2  16   0 0.66670 13.6401   2
   4  15   1 1.48174 9.62681  -1
   3  16   0 1.48174 9.62681   2
   5  15   1 -3.6083 9.43905  -1
   4  16   0 -3.6083 9.43905   2
 -10  16   1 0.08784 3.45403   2
  -9  16   1 4.27219 3.45700   2
  -8  16   1 1.93303 3.38075   2
  -7  16   1 2.48388 3.35241   2
  -4  16   1 0.75837 8.88564  -1
  -5  16   0 0.75837 8.88564   2
  -3  16   1 3.90182 8.62883  -1
  -4  16   0 3.90182 8.62883   2
  -2  16   1 7.63884 8.65882  -1
  -3  16   0 7.63884 8.65882   2
  -1  16   1 12.7859 4.84019   2
  -1  16   1 -6.8661 9.06842  -1
  -2  16   0 -6.8661 9.06842   2
   0  16   1 9.02039 4.74288   2
   1  16   1 5.23083 4.73035   2
  -9  17   1 -1.3372 4.98889   2
  -8  17   1 0.60175 3.71113   2
  -7  17   1 9.10588 3.85322   2
  -5  17   1 5.71301 10.3540  -1
  -6  17   0 5.71301 10.3540   2
  -4  17   1 -2.3677 7.69792  -1
  -5  17   0 -2.3677 7.69792   2
  -3  17   1 11.6636 9.65384  -1
  -4  17   0 11.6636 9.65384   2
  -2  17   1 7.20865 10.2010  -1
  -3  17   0 7.20865 10.2010   2
  -2  17   1 0.75500 4.94406   2
  -1  17   1 2.53370 4.96114   2
  -1  17   1 -17.532 14.2504  -1
  -2  17   0 -17.532 14.2504   2
   0  17   1 0.81695 5.14213   2
   1  17   1 2.90367 5.27063   2
  -5  18   1 0.64987 5.38560   2
  -4  18   1 0.75623 15.2034  -1
  -5  18   0 0.75623 15.2034   2
  -4  18   1 1.25872 5.31899   2
  -3  18   1 9.42570 10.9387  -1
  -4  18   0 9.42570 10.9387   2
  -3  18   1 8.30282 5.58401   2
   1 -18   2 5.59218 8.12875   2
   2 -18   2 0.75055 5.36898   2
   2 -18   2 -2.5714 15.1331  -1
   3 -18   3 -2.5714 15.1331   2
  -2 -17   2 -1.0739 4.94213   2
  -1 -17   2 2.92916 5.02678   2
  -1 -17   2 6.62926 15.2372  -1
   0 -17   3 6.62926 15.2372   2
   0 -17   2 5.43122 10.3234  -1
   1 -17   3 5.43122 10.3234   2
   1 -17   2 0.08542 9.73137  -1
   2 -17   3 0.08542 9.73137   2
   2 -17   2 8.75677 10.1928  -1
   3 -17   3 8.75677 10.1928   2
   3 -17   2 4.21231 13.6802  -1
   4 -17   3 4.21231 13.6802   2
   5 -17   2 1.06408 3.75826   2
   6 -17   2 2.46536 3.76605   2
   7 -17   2 1.55485 3.82821   2
   8 -17   2 0.20222 3.95120   2
   8 -17   2 -7.1922 17.8364  -1
   9 -16   3 -7.1922 17.8364   2
  -2 -16   2 0.42295 4.45863   2
  -2 -16   2 1.84223 13.9376  -1
  -1 -16   3 1.84223 13.9376   2
  -1 -16   2 -0.1337 4.41620   2
  -1 -16   2 1.66028 9.08647  -1
   0 -16   3 1.66028 9.08647   2
   0 -16   2 1.78723 8.73692  -1
   1 -16   3 1.78723 8.73692   2
   1 -16   2 -2.3447 8.71838  -1
   2 -16   3 -2.3447 8.71838   2
   2 -16   2 -4.7590 9.15073  -1
   3 -16   3 -4.7590 9.15073   2
   5 -16   2 5.91151 3.37037   2
   6 -16   2 -2.0223 3.26122   2
   7 -16   2 9.10740 3.57371   2
   8 -16   2 -1.6078 3.46953   2
   9 -16   2 -0.3648 3.58914   2
  -6 -15   2 10.9083 14.7128  -1
  -5 -16   3 10.9083 14.7128   2
  -5 -15   2 10.8218 12.5354  -1
  -4 -16   3 10.8218 12.5354   2
  -3 -15   2 8.83961 4.18971   2
  -2 -15   2 2.09923 12.1297  -1
  -1 -15   3 2.09923 12.1297   2
  -2 -15   2 11.3708 4.28691   2
  -1 -15   2 2.23856 3.94313   2
  -1 -15   2 -5.4543 7.84324  -1
   0 -15   3 -5.4543 7.84324   2
   0 -15   2 -0.9107 7.61573  -1
   1 -15   3 -0.9107 7.61573   2
   1 -15   2 -6.4621 7.82726  -1
   2 -15   3 -6.4621 7.82726   2
   2 -15   2 4.05128 12.5110  -1
   3 -15   3 4.05128 12.5110   2
   4 -15   2 1.23039 3.77293   2
   5 -15   2 1.56736 2.93124   2
   6 -15   2 8.05698 3.10597   2
   7 -15   2 9.08111 3.22465   2
   8 -15   2 5.31646 3.20042   2
   9 -15   2 1.79710 3.22445   2
  10 -15   2 -3.4378 8.75996  -1
  11 -14   2 -3.4378 8.75996   2
  10 -15   2 0.52536 3.18612   2
  11 -15   2 4.02038 4.44584   2
  11 -15   2 -6.4274 15.7921  -1
  12 -14   2 -6.4274 15.7921   2
  -8 -14   2 1.07988 7.05200   2
  -7 -14   2 1.71939 12.9166  -1
  -6 -15   3 1.71939 12.9166   2
  -6 -14   2 0.81820 8.11210  -1
  -5 -15   3 0.81820 8.11210   2
  -5 -14   2 3.32069 11.0129  -1
  -4 -15   3 3.32069 11.0129   2
  -3 -14   2 11.6142 3.74357   2
  -2 -14   2 17.6150 3.90936   2
  -1 -14   2 2.77047 3.43061   2
  -1 -14   2 -5.6817 4.39750  -1
   0 -14   3 -5.6817 4.39750   2
   0 -14   2 -2.1485 4.01748  -1
   1 -14   3 -2.1485 4.01748   2
   1 -14   2 -0.9100 6.84246  -1
   2 -14   3 -0.9100 6.84246   2
   4 -14   2 -0.4484 3.27263   2
   5 -14   2 0.25937 2.55279   2
   6 -14   2 4.44135 2.66905   2
   7 -14   2 8.17811 2.89690   2
   8 -14   2 9.11791 2.93972   2
   8 -14   2 9.55846 8.43261  -1
   9 -13   2 9.55846 8.43261   2
   9 -14   2 7.77291 2.99850   2
   9 -14   2 2.38226 5.24786  -1
  10 -13   2 2.38226 5.24786   2
  10 -14   2 7.02504 9.72899  -1
  11 -13   2 7.02504 9.72899   2
  10 -14   2 5.18292 2.92988   2
  11 -14   2 4.13201 8.27168  -1
  12 -13   2 4.13201 8.27168   2
  -9 -13   2 -2.5794 11.5362  -1
  -8 -14   3 -2.5794 11.5362   2
  -8 -13   2 -2.8385 8.51011  -1
  -7 -14   3 -2.8385 8.51011   2
  -7 -13   2 9.24070 15.2355  -1
  -6 -14   3 9.24070 15.2355   2
  -6 -13   2 -3.6113 6.38385  -1
  -5 -14   3 -3.6113 6.38385   2
  -3 -13   2 18.9983 3.45698   2
  -2 -13   2 16.6431 3.35052   2
  -1 -13   2 18.6667 2.27872   2
   0 -13   2 11.9193 2.00010   2
   1 -13   2 1.68736 1.60472   2
   2 -13   2 0.90545 1.56286   2
   3 -13   2 5.28484 2.90239   2
   4 -13   2 2.89068 2.87950   2
   5 -13   2 12.2781 2.41681   2
   6 -13   2 9.23278 2.42282   2
   7 -13   2 14.1701 2.63352   2
   7 -13   2 19.2418 6.88382  -1
   8 -12   2 19.2418 6.88382   2
   8 -13   2 11.4945 2.68558   2
   8 -13   2 10.6932 5.65747  -1
   9 -12   2 10.6932 5.65747   2
   9 -13   2 10.7017 4.76612  -1
  10 -12   2 10.7017 4.76612   2
  10 -13   2 11.5899 6.55931  -1
  11 -12   2 11.5899 6.55931   2
  11 -13   2 7.55088 7.91467  -1
  12 -12   2 7.55088 7.91467   2
  -9 -12   2 -8.9865 10.2710  -1
  -8 -13   3 -8.9865 10.2710   2
  -8 -12   2 -7.3362 9.19165  -1
  -7 -13   3 -7.3362 9.19165   2
  -7 -12   2 -0.6210 9.58538  -1
  -6 -13   3 -0.6210 9.58538   2
  -6 -12   2 -3.1291 6.86652  -1
  -5 -13   3 -3.1291 6.86652   2
  -3 -12   2 66.3753 3.28203   2
  -2 -12   2 16.9118 2.07538   2
  -1 -12   2 30.8877 2.32122   2
   0 -12   2 38.7869 2.59844   2
   1 -12   2 57.4433 2.77158   2
   2 -12   2 68.0211 2.86873   2
   3 -12   2 10.9418 1.64679   2
   4 -12   2 44.0565 3.94526   2
   5 -12   2 26.0496 2.40592   2
   6 -12   2 3.88564 1.93483   2
   6 -12   2 6.48648 5.24053  -1
   7 -11   2 6.48648 5.24053   2
   7 -12   2 11.4264 4.61094  -1
   8 -11   2 11.4264 4.61094   2
   7 -12   2 8.39675 2.14186   2
   8 -12   2 22.1213 3.65950  -1
   9 -11   2 22.1213 3.65950   2
   9 -12   2 19.0937 3.90119  -1
  10 -11   2 19.0937 3.90119   2
  10 -12   2 4.11473 5.78644  -1
  11 -11   2 4.11473 5.78644   2
  11 -12   2 4.14952 10.5218  -1
  12 -11   2 4.14952 10.5218   2
  13 -12   2 1.85054 5.17910   2
 -10 -11   2 7.31016 2.93981   2
  -9 -11   2 2.01055 9.40147  -1
  -8 -12   3 2.01055 9.40147   2
  -8 -11   2 1.80701 8.85402  -1
  -7 -12   3 1.80701 8.85402   2
  -7 -11   2 3.73993 4.94956  -1
  -6 -12   3 3.73993 4.94956   2
  -6 -11   2 4.94139 6.70731  -1
  -5 -12   3 4.94139 6.70731   2
  -3 -11   2 56.2302 2.83421   2
  -2 -11   2 32.9857 2.42776   2
  -1 -11   2 55.4289 2.68757   2
   0 -11   2 94.3586 3.13307   2
   1 -11   2 87.9127 3.00667   2
   2 -11   2 109.789 3.21052   2
   3 -11   2 1.53893 1.29210   2
   4 -11   2 15.8322 1.63962   2
   5 -11   2 4.64808 1.66399   2
   6 -11   2 8.93006 1.79000   2
   6 -11   2 29.3336 5.34008  -1
   7 -10   2 29.3336 5.34008   2
   7 -11   2 22.4701 3.16582  -1
   8 -10   2 22.4701 3.16582   2
   8 -11   2 44.9455 3.16926  -1
   9 -10   2 44.9455 3.16926   2
   9 -11   2 32.5243 3.20473  -1
  10 -10   2 32.5243 3.20473   2
  10 -11   2 12.5077 3.70964  -1
  11 -10   2 12.5077 3.70964   2
  11 -11   2 3.12757 4.87844  -1
  12 -10   2 3.12757 4.87844   2
  13 -11   2 -4.5052 7.09467  -1
  14  -9   2 -4.5052 7.09467   2
  13 -11   2 0.21361 5.02741   2
 -11 -10   2 0.12516 6.41185  -1
 -10 -11   3 0.12516 6.41185   2
 -10 -10   2 2.46494 4.74205  -1
  -9 -11   3 2.46494 4.74205   2
 -10 -10   2 11.1424 2.73208   2
  -9 -10   2 6.62372 3.88533  -1
  -8 -11   3 6.62372 3.88533   2
  -8 -10   2 9.60642 2.02329   2
  -8 -10   2 1.19191 3.63287  -1
  -7 -11   3 1.19191 3.63287   2
  -7 -10   2 -5.0364 3.40585  -1
  -6 -11   3 -5.0364 3.40585   2
  -7 -10   2 26.5767 2.44103   2
  -6 -10   2 5.18424 1.44759   2
  -6 -10   2 -1.8597 4.54907  -1
  -5 -11   3 -1.8597 4.54907   2
  -5 -10   2 9.78473 1.30737   2
  -5 -10   2 7.42082 4.83428  -1
  -4 -11   3 7.42082 4.83428   2
  -4 -10   2 54.6254 1.79252   2
  -3 -10   2 81.7463 2.02925   2
  -2 -10   2 68.9697 1.87336   2
  -1 -10   2 75.2124 1.89809   2
   0 -10   2 91.0084 2.01620   2
   1 -10   2 129.463 2.66204   2
   2 -10   2 163.833 2.99580   2
   3 -10   2 40.0984 1.71601   2
   4 -10   2 38.7637 1.51344   2
   5 -10   2 18.8473 1.29873   2
   6 -10   2 114.139 4.10720  -1
   7  -9   2 114.139 4.10720   2
   6 -10   2 28.0762 1.67455   2
   7 -10   2 124.235 3.08105  -1
   8  -9   2 124.235 3.08105   2
   8 -10   2 109.049 3.02270  -1
   9  -9   2 109.049 3.02270   2
   9 -10   2 36.1141 2.38611  -1
  10  -9   2 36.1141 2.38611   2
  10 -10   2 24.6965 3.04454  -1
  11  -9   2 24.6965 3.04454   2
 -12  -9   2 8.62470 2.11556   2
 -12  -9   2 0.31688 7.30664  -1
 -11 -11   3 0.31688 7.30664   2
 -11  -9   2 13.4623 5.73994  -1
 -10 -10   3 13.4623 5.73994   2
 -11  -9   2 10.6156 1.88460   2
 -10  -9   2 9.02875 1.65244   2
  -9  -9   2 12.9806 1.50109   2
  -8  -9   2 13.5584 1.98481   2
  -7  -9   2 27.8511 1.91644   2
  -6  -9   2 2.75120 1.06350   2
  -5  -9   2 27.6405 1.67608   2
  -4  -9   2 128.513 2.34892   2
  -3  -9   2 24.9173 1.01514   2
  -2  -9   2 21.0991 1.02591   2
  -1  -9   2 10.2135 0.76110   2
  -1  -9   2 116.637 7.54167  -1
   0  -9   2 116.637 7.54167   2
   0  -9   2 191.541 3.90547  -1
   1  -9   2 191.541 3.90547   2
   1  -9   2 159.434 3.23911  -1
   2  -9   2 159.434 3.23911   2
   3  -9   2 107.899 1.84847   2
   4  -9   2 25.2072 1.01423   2
   5  -9   2 27.6174 1.13415   2
   6  -9   2 171.574 4.46726  -1
   7  -8   2 171.574 4.46726   2
   6  -9   2 39.1657 1.23191   2
   7  -9   2 127.925 3.25887  -1
   8  -8   2 127.925 3.25887   2
   8  -9   2 51.1336 2.54628  -1
   9  -8   2 51.1336 2.54628   2
   9  -9   2 24.2335 3.15473  -1
  10  -8   2 24.2335 3.15473   2
  10  -9   2 20.5608 2.95126  -1
  11  -8   2 20.5608 2.95126   2
  11  -9   2 25.6269 5.17147  -1
  12  -8   2 25.6269 5.17147   2
  12  -9   2 9.06080 2.27972   2
  13  -9   2 18.2698 2.99326   2
 -13  -8   2 14.0026 7.83638  -1
 -12 -10   3 14.0026 7.83638   2
 -13  -8   2 9.41490 2.20659   2
 -12  -8   2 1.42737 1.72080   2
 -12  -8   2 7.97680 6.62076  -1
 -11 -10   3 7.97680 6.62076   2
 -11  -8   2 5.08177 1.52699   2
 -10  -8   2 14.6154 1.63131   2
  -9  -8   2 40.7888 2.07343   2
  -7  -8   2 0.90872 0.64927   2
  -6  -8   2 15.0479 0.88640   2
  -5  -8   2 111.372 1.75340   2
  -4  -8   2 154.685 1.86042   2
  -3  -8   2 41.2735 1.10113   2
  -2  -8   2 166.365 5.71635  -1
  -1  -8   2 166.365 5.71635   2
  -2  -8   2 68.0739 1.32816   2
  -1  -8   2 314.781 4.83248  -1
   0  -8   2 314.781 4.83248   2
   0  -8   2 285.316 3.36273  -1
   1  -8   2 285.316 3.36273   2
   1  -8   2 78.6340 1.93186  -1
   2  -8   2 78.6340 1.93186   2
   2  -8   2 103.602 3.17691  -1
   3  -8   2 103.602 3.17691   2
   4  -8   2 54.3036 1.10933   2
   5  -8   2 77.9732 1.60968   2
   6  -8   2 99.9062 1.63069   2
   6  -8   2 87.8710 4.98494  -1
   7  -7   2 87.8710 4.98494   2
   7  -8   2 76.9217 2.42023  -1
   8  -7   2 76.9217 2.42023   2
   8  -8   2 31.5606 2.55725  -1
   9  -7   2 31.5606 2.55725   2
   9  -8   2 34.1031 3.26941  -1
  10  -7   2 34.1031 3.26941   2
  10  -8   2 39.6498 5.04857  -1
  11  -7   2 39.6498 5.04857   2
  12  -8   2 28.7876 4.89495  -1
  12  -6   2 28.7876 4.89495   2
  13  -8   2 57.8086 5.16263  -1
  13  -6   2 57.8086 5.16263   2
  13  -8   2 13.0406 1.85056   2
  14  -8   2 4.09926 2.64183   2
  15  -8   2 5.87629 3.35346   2
  15  -8   2 7.39223 7.33058  -1
  15  -6   2 7.39223 7.33058   2
 -13  -7   2 7.60636 1.95866   2
 -12  -7   2 5.97841 1.61944   2
 -11  -7   2 11.7023 1.57665   2
 -10  -7   2 35.9918 1.57208   2
  -9  -7   2 50.0826 1.53058   2
  -9  -7   2 21.5330 5.68465  -1
  -8  -8   2 21.5330 5.68465   2
  -8  -7   2 52.0361 1.29466   2
  -7  -7   2 11.2521 0.72850   2
  -6  -7   2 81.2214 1.38290   2
  -5  -7   2 161.233 1.96995   2
  -4  -7   2 59.0403 1.14987   2
  -3  -7   2 70.4481 1.18249   2
  -2  -7   2 65.0111 1.05693   2
  -2  -7   2 158.128 5.06535  -1
  -1  -7   2 158.128 5.06535   2
  -1  -7   2 217.877 4.75858  -1
   0  -7   2 217.877 4.75858   2
   0  -7   2 165.607 3.11512  -1
   1  -7   2 165.607 3.11512   2
   1  -7   2 159.677 3.47938  -1
   2  -7   2 159.677 3.47938   2
   2  -7   2 170.958 3.81065  -1
   3  -7   2 170.958 3.81065   2
   4  -7   2 145.574 1.85764   2
   5  -7   2 44.4093 1.38005   2
   6  -7   2 156.239 2.06466   2
   8  -7   2 114.941 4.08910  -1
   8  -6   2 114.941 4.08910   2
   9  -7   2 32.7975 4.97233  -1
   9  -6   2 32.7975 4.97233   2
  12  -7   2 32.7090 2.24514   2
  12  -7   2 44.2719 5.03814  -1
  12  -5   2 44.2719 5.03814   2
  13  -7   2 28.1713 2.16279   2
  14  -7   2 24.8130 2.25593   2
  14  -7   2 29.2013 4.74021  -1
  14  -6   2 29.2013 4.74021   2
  15  -7   2 9.96836 4.89936  -1
  15  -6   2 9.96836 4.89936   2
  15  -7   2 12.7731 7.03435  -1
  15  -5   2 12.7731 7.03435   2
  15  -7   2 17.4500 3.58774   2
 -14  -6   2 8.75326 2.10622   2
 -13  -6   2 2.90988 1.67166   2
 -12  -6   2 5.89110 0.97257   2
 -11  -6   2 20.9868 1.05067   2
 -10  -6   2 48.9613 1.41852   2
  -9  -6   2 41.3641 1.15635   2
  -8  -6   2 44.1397 1.16545   2
  -7  -6   2 -0.1524 0.52254   2
  -6  -6   2 28.9673 0.95835   2
  -5  -6   2 76.4656 1.19597   2
  -4  -6   2 66.2796 1.08992   2
  -3  -6   2 428.530 3.26968   2
  -2  -6   2 146.075 1.44719   2
  -1  -6   2 405.047 2.70426   2
   0  -6   2 336.642 2.48267   2
   1  -6   2 293.120 2.00652   2
   2  -6   2 198.584 1.78972   2
   3  -6   2 206.914 1.71701   2
   4  -6   2 87.7993 1.39317   2
   5  -6   2 10.2038 0.76216   2
   6  -6   2 183.646 2.13826   2
   6  -6   2 62.8559 1.93983  -1
   6  -5   2 62.8559 1.93983   2
   7  -6   2 87.6400 1.78051   2
   7  -6   2 91.9928 2.32301  -1
   7  -5   2 91.9928 2.32301   2
   8  -6   2 112.589 2.39024  -1
   8  -5   2 112.589 2.39024   2
   9  -6   2 37.9906 2.37369  -1
   9  -5   2 37.9906 2.37369   2
  10  -6   2 8.02500 5.36538  -1
  10  -5   2 8.02500 5.36538   2
  10  -6   2 7.15790 1.08750   2
  11  -6   2 96.5324 7.22645  -1
  11  -5   2 96.5324 7.22645   2
  11  -6   2 91.0752 2.97163   2
  13  -6   2 78.8336 4.99613  -1
  13  -5   2 78.8336 4.99613   2
  14  -6   2 38.0444 4.74226  -1
  14  -5   2 38.0444 4.74226   2
  14  -6   2 27.2481 5.74570  -1
  14  -4   2 27.2481 5.74570   2
  15  -6   2 11.7937 4.81766  -1
  15  -5   2 11.7937 4.81766   2
 -14  -5   2 4.71928 1.11442   2
 -13  -5   2 2.94700 0.82221   2
 -12  -5   2 10.9365 0.87745   2
 -11  -5   2 24.2723 1.16195   2
 -10  -5   2 51.5989 1.40513   2
  -9  -5   2 24.4862 0.83894   2
  -8  -5   2 17.8852 0.69698   2
  -7  -5   2 37.5333 0.90017   2
  -6  -5   2 55.7821 1.01115   2
  -5  -5   2 145.285 1.50027   2
  -4  -5   2 550.016 3.43162   2
  -3  -5   2 918.061 6.49498   2
  -2  -5   2 344.207 2.45256   2
  -1  -5   2 367.886 2.41620   2
   0  -5   2 171.876 1.48454   2
   1  -5   2 11.5871 0.44522   2
   2  -5   2 21.9013 0.67227   2
   3  -5   2 243.738 1.94984   2
   4  -5   2 16.1839 0.67725   2
   5  -5   2 269.785 4.36283  -1
   5  -4   2 269.785 4.36283   2
   5  -5   2 10.7534 0.70380   2
   6  -5   2 141.251 2.08131  -1
   6  -4   2 141.251 2.08131   2
   7  -5   2 106.034 1.87586  -1
   7  -4   2 106.034 1.87586   2
   8  -5   2 54.3396 1.79096  -1
   8  -4   2 54.3396 1.79096   2
   9  -5   2 14.2398 2.22699  -1
   9  -4   2 14.2398 2.22699   2
  10  -5   2 6.50421 5.10321  -1
  10  -4   2 6.50421 5.10321   2
  12  -5   2 75.7059 4.68213  -1
  12  -4   2 75.7059 4.68213   2
  13  -5   2 59.2419 4.64480  -1
  13  -4   2 59.2419 4.64480   2
  14  -5   2 19.9731 5.58587  -1
  14  -3   2 19.9731 5.58587   2
  14  -5   2 27.8172 4.34030  -1
  14  -4   2 27.8172 4.34030   2
  15  -5   2 1.23025 6.45718  -1
  15  -3   2 1.23025 6.45718   2
  15  -5   2 7.96859 4.80919  -1
  15  -4   2 7.96859 4.80919   2
 -14  -4   2 4.25653 1.04997   2
 -13  -4   2 3.15688 0.89459   2
 -12  -4   2 6.54951 0.86072   2
 -11  -4   2 7.71935 0.76779   2
 -10  -4   2 33.8568 1.16758   2
  -9  -4   2 22.3740 0.81161   2
  -8  -4   2 6.69366 0.56654   2
  -7  -4   2 64.3295 1.01040   2
  -6  -4   2 123.953 1.22610   2
  -5  -4   2 67.8766 0.90152   2
  -4  -4   2 316.823 2.25733   2
  -3  -4   2 143.300 1.33230   2
  -2  -4   2 182.861 1.48212   2
  -1  -4   2 213.381 1.54412   2
   0  -4   2 48.1680 0.74745   2
   1  -4   2 98.5925 1.01843   2
   2  -4   2 593.433 3.89129   2
   3  -4   2 1147.78 6.95119   2
   4  -4   2 170.827 1.75991   2
   4  -4   2 178.515 5.06032  -1
   4  -3   2 178.515 5.06032   2
   5  -4   2 189.187 3.43305  -1
   5  -3   2 189.187 3.43305   2
   6  -4   2 87.1665 1.87001  -1
   6  -3   2 87.1665 1.87001   2
   7  -4   2 105.674 1.73869  -1
   7  -3   2 105.674 1.73869   2
   8  -4   2 60.3112 1.44329  -1
   8  -3   2 60.3112 1.44329   2
   9  -4   2 69.1337 2.22246  -1
   9  -3   2 69.1337 2.22246   2
  10  -4   2 8.28511 4.74265  -1
  10  -3   2 8.28511 4.74265   2
  11  -4   2 52.8685 1.71494   2
  12  -4   2 64.5084 4.47443  -1
  12  -3   2 64.5084 4.47443   2
  13  -4   2 24.3989 3.93946  -1
  13  -3   2 24.3989 3.93946   2
  14  -4   2 23.8422 4.44863  -1
  14  -3   2 23.8422 4.44863   2
  14  -4   2 21.7137 5.92510  -1
  14  -2   2 21.7137 5.92510   2
  15  -4   2 13.9003 7.23994  -1
  15  -2   2 13.9003 7.23994   2
  15  -4   2 7.03462 4.95129  -1
  15  -3   2 7.03462 4.95129   2
 -13  -3   2 2.43015 0.82324   2
 -12  -3   2 3.29295 0.71313   2
 -11  -3   2 6.38820 0.70110   2
 -10  -3   2 25.2984 1.00306   2
 -10  -3   2 40.8431 3.52650  -1
 -10  -4   3 40.8431 3.52650   2
  -9  -3   2 19.0965 0.67655   2
  -8  -3   2 39.3661 0.87225   2
  -7  -3   2 41.4143 0.77300   2
  -6  -3   2 101.057 1.02096   2
  -5  -3   2 29.0387 0.59632   2
  -4  -3   2 88.3311 0.95588   2
  -3  -3   2 129.928 1.08883   2
  -2  -3   2 289.332 5.59721  -1
  -2  -3   2 289.332 5.59721   2
  -1  -3   2 0.64655 0.26222   2
   0  -3   2 75.9767 0.85419   2
   1  -3   2 1185.68 6.75079   2
   2  -3   2 2243.85 12.2637   2
   3  -3   2 862.992 5.28767   2
   6  -3   2 96.8715 1.82893  -1
   6  -2   2 96.8715 1.82893   2
   7  -3   2 92.5473 1.47927  -1
   7  -2   2 92.5473 1.47927   2
   8  -3   2 53.9562 1.43135  -1
   8  -2   2 53.9562 1.43135   2
   9  -3   2 67.4222 5.38689  -1
   9  -2   2 67.4222 5.38689   2
  10  -3   2 255.459 9.43380  -1
  10  -2   2 255.459 9.43380   2
  11  -3   2 24.6954 1.20626   2
  13  -3   2 23.3953 4.90642  -1
  13  -1   2 23.3953 4.90642   2
  13  -3   2 11.0280 3.88146  -1
  13  -2   2 11.0280 3.88146   2
  14  -3   2 9.57898 5.98907  -1
  14  -1   2 9.57898 5.98907   2
  15  -3   2 11.8649 5.51707  -1
  15  -2   2 11.8649 5.51707   2
 -16  -2   2 3.48542 2.29293   2
 -14  -2   2 4.10136 0.88458   2
 -13  -2   2 2.06647 0.75284   2
 -12  -2   2 0.62951 0.62124   2
 -11  -2   2 3.37405 0.60950   2
 -10  -2   2 0.48306 0.52279   2
  -9  -2   2 6.39988 0.55091   2
  -8  -2   2 42.0957 0.87437   2
  -7  -2   2 93.5236 1.05242   2
  -6  -2   2 2.53201 0.28455   2
  -5  -2   2 43.3060 0.58704   2
  -4  -2   2 59.8953 0.70476   2
  -3  -2   2 89.9936 2.31401  -1
  -3  -2   2 89.9936 2.31401   2
  -2  -2   2 157.818 3.31757  -1
  -2  -2   2 157.818 3.31757   2
  -1  -2   2 167.199 3.43043  -1
  -1  -2   2 167.199 3.43043   2
   0  -2   2 1332.21 7.43961   2
   1  -2   2 9999.99 51.3882   2
   2  -2   2 2407.00 13.0734   2
   3  -2   2 42.8987 0.75067   2
   4  -2   2 109.282 1.32045   2
   5  -2   2 125.236 1.80695   2
   5  -2   2 141.071 4.57775  -1
   5  -1   2 141.071 4.57775   2
   6  -2   2 153.067 2.83218  -1
   6  -1   2 153.067 2.83218   2
   7  -2   2 69.9423 1.46582  -1
   7  -1   2 69.9423 1.46582   2
   8  -2   2 89.4723 1.98575  -1
   8  -1   2 89.4723 1.98575   2
   9  -2   2 27.3435 5.16566  -1
   9  -1   2 27.3435 5.16566   2
  11  -2   2 -1.2973 0.74904   2
  12  -2   2 9.65867 0.97535   2
  15  -2   2 32.9761 5.86002  -1
  15  -1   2 32.9761 5.86002   2
 -15  -1   2 33.0175 3.63968  -1
 -15  -3   3 33.0175 3.63968   2
 -13  -1   2 7.11249 0.79203   2
 -12  -1   2 1.88156 0.60777   2
 -11  -1   2 14.9254 0.74100   2
 -10  -1   2 4.71185 0.55254   2
  -9  -1   2 29.6828 0.92150   2
  -8  -1   2 5.55635 0.56707   2
  -7  -1   2 53.9769 1.02632   2
  -6  -1   2 73.4927 1.97992   2
  -5  -1   2 32.8662 1.43107   2
  -4  -1   2 206.121 3.27677   2
  -3  -1   2 428.513 3.61088   2
  -2  -1   2 705.309 12.1115  -1
  -2  -1   2 705.309 12.1115   2
  -1  -1   2 488.524 4.20696  -1
  -1  -1   2 488.524 4.20696   2
   0  -1   2 816.012 4.60422   2
   1  -1   2 1770.81 9.11630   2
   2  -1   2 4.45183 0.28693   2
   3  -1   2 13.5905 0.44974   2
   4  -1   2 228.499 1.94089   2
   6  -1   2 311.974 3.74020  -1
   6   0   2 311.974 3.74020   2
   7  -1   2 120.228 1.87340  -1
   7   0   2 120.228 1.87340   2
   8  -1   2 96.7002 5.63587  -1
   8   0   2 96.7002 5.63587   2
  10  -1   2 60.8716 1.55239   2
  11  -1   2 24.2987 1.12750   2
  12  -1   2 20.2523 4.26118  -1
  12   0   2 20.2523 4.26118   2
  12  -1   2 15.4325 1.08372   2
  15  -1   2 35.0976 5.98456  -1
  15   0   2 35.0976 5.98456   2
 -16   0   2 11.7705 4.35775  -1
 -16  -1   2 11.7705 4.35775   2
 -16   0   2 25.1196 5.57325  -1
 -16  -2   3 25.1196 5.57325   2
 -15   0   2 29.2315 4.44276  -1
 -15  -2   3 29.2315 4.44276   2
 -15   0   2 -0.5319 0.88022   2
 -15   0   2 2.55391 3.61116  -1
 -15  -1   2 2.55391 3.61116   2
 -14   0   2 4.50671 2.92995  -1
 -14  -1   2 4.50671 2.92995   2
 -13   0   2 21.1112 1.02635   2
 -12   0   2 9.98445 0.70251   2
 -11   0   2 2.99988 0.58644   2
  -8   0   2 1.23736 0.52962   2
  -7   0   2 20.4441 1.31286   2
  -6   0   2 92.9640 2.07674   2
  -5   0   2 241.874 3.61290   2
  -4   0   2 330.645 6.28560   2
  -3   0   2 116.343 2.99676  -1
  -3   0   2 116.343 2.99676   2
  -2   0   2 47.7058 1.11674  -1
  -2   0   2 47.7058 1.11674   2
  -1   0   2 2.22942 0.32604  -1
  -1   0   2 2.22942 0.32604   2
   0   0   2 496.146 2.86889   2
   1   0   2 3.53294 0.20036   2
   2   0   2 18.3794 0.48783   2
   3   0   2 579.874 4.04612   2
   4   0   2 93.6762 1.19879   2
   5   0   2 23.5162 0.84125   2
   5   0   2 124.684 3.53084  -1
   5   1   2 124.684 3.53084   2
   6   0   2 265.253 3.65388  -1
   6   1   2 265.253 3.65388   2
   9   0   2 195.842 2.48314   2
  10   0   2 21.9982 1.06431   2
  11   0   2 11.1529 0.95003   2
  13   0   2 28.7353 2.08192   2
  13   0   2 2.74011 5.12078  -1
  13   2   1 2.74011 5.12078   2
  14   0   2 -3.2220 6.14624  -1
  14   2   1 -3.2220 6.14624   2
  14   0   2 28.5575 2.39047   2
  15   0   2 -4.4505 7.91774  -1
  15   2   1 -4.4505 7.91774   2
 -16   1   2 20.5587 4.69119  -1
 -16  -1   3 20.5587 4.69119   2
 -16   1   2 5.45191 3.93482  -1
 -16   0   2 5.45191 3.93482   2
 -16   1   2 1.00366 1.49031   2
 -15   1   2 6.93800 3.34186  -1
 -15  -1   3 6.93800 3.34186   2
 -14   1   2 9.88138 2.84661  -1
 -14   0   2 9.88138 2.84661   2
 -13   1   2 3.75204 0.65345   2
 -10   1   2 -2.4397 2.04321  -1
 -10   0   2 -2.4397 2.04321   2
  -9   1   2 11.1397 1.25839  -1
  -9   0   2 11.1397 1.25839   2
  -6   1   2 6.06602 0.61576   2
  -5   1   2 21.1759 1.18542   2
  -4   1   2 17.7875 1.77347  -1
  -4   1   2 17.7875 1.77347   2
  -3   1   2 3.26863 0.58956  -1
  -3   1   2 3.26863 0.58956   2
  -2   1   2 163.313 1.47314  -1
  -2   1   2 163.313 1.47314   2
  -1   1   2 383.492 2.91700  -1
  -1   1   2 383.492 2.91700   2
   0   1   2 486.751 2.76506   2
   1   1   2 46.4278 0.52216   2
   2   1   2 190.027 1.37778   2
   3   1   2 427.831 3.37257   2
   4   1   2 319.606 2.74033   2
   4   1   2 32.4949 2.19883  -1
   4   2   2 32.4949 2.19883   2
   5   1   2 289.776 6.58445  -1
   5   2   2 289.776 6.58445   2
   7   1   2 115.459 1.64405   2
   8   1   2 70.7679 1.44644   2
   9   1   2 35.5076 1.41483   2
  10   1   2 19.8612 1.04102   2
  11   1   2 7.19326 0.89988   2
  12   1   2 42.2586 2.48667   2
  12   1   2 -1.8553 4.66023  -1
  12   3   1 -1.8553 4.66023   2
  13   1   2 29.9992 2.19819   2
  13   1   2 -1.6410 5.49238  -1
  13   3   1 -1.6410 5.49238   2
  14   1   2 23.2353 2.33955   2
  14   1   2 -2.2907 6.74892  -1
  14   3   1 -2.2907 6.74892   2
 -15   2   2 2.93158 3.27807  -1
 -15   1   2 2.93158 3.27807   2
 -14   2   2 4.74021 0.78775   2
 -14   2   2 3.95564 2.81219  -1
 -14   1   2 3.95564 2.81219   2
 -13   2   2 0.62994 0.61901   2
 -12   2   2 4.70009 2.39385  -1
 -12   1   2 4.70009 2.39385   2
 -11   2   2 1.14865 1.29414  -1
 -11   1   2 1.14865 1.29414   2
 -10   2   2 14.5667 1.12879  -1
 -10   1   2 14.5667 1.12879   2
  -9   2   2 58.0980 1.91467  -1
  -9   1   2 58.0980 1.91467   2
  -8   2   2 16.8549 1.85717  -1
  -8   1   2 16.8549 1.85717   2
  -7   2   2 70.5061 1.04017   2
  -7   2   2 -2.2506 2.21493  -1
  -7   1   2 -2.2506 2.21493   2
  -6   2   2 9.98707 0.36383   2
  -5   2   2 -0.5258 1.36537  -1
  -5   2   2 -0.5258 1.36537   2
  -4   2   2 232.154 4.48491  -1
  -4   2   2 232.154 4.48491   2
  -3   2   2 247.171 3.31081  -1
  -3   2   2 247.171 3.31081   2
  -2   2   2 71.6190 0.72329  -1
  -2   2   2 71.6190 0.72329   2
  -1   2   2 161.591 1.04877   2
   0   2   2 182.809 1.25200   2
   1   2   2 183.234 1.30877   2
   2   2   2 215.765 1.72448   2
   3   2   2 95.6374 1.16922   2
   6   2   2 2.37191 0.55529   2
   7   2   2 27.1690 1.04103   2
   8   2   2 79.5724 1.53798   2
   9   2   2 2.61886 0.73782   2
  10   2   2 41.5721 1.48087   2
  11   2   2 30.1881 1.33401   2
  12   2   2 3.70046 4.94472  -1
  12   4   1 3.70046 4.94472   2
  13   2   2 -2.4733 5.80334  -1
  13   4   1 -2.4733 5.80334   2
  14   2   2 -7.7313 7.57194  -1
  14   4   1 -7.7313 7.57194   2
 -16   3   2 9.54310 2.96053  -1
 -16   2   2 9.54310 2.96053   2
 -15   3   2 5.62309 2.36156  -1
 -15   2   2 5.62309 2.36156   2
 -14   3   2 11.3107 0.88095   2
 -12   3   2 10.5727 1.63387  -1
 -12   2   2 10.5727 1.63387   2
 -11   3   2 31.2172 1.18654  -1
 -11   2   2 31.2172 1.18654   2
 -10   3   2 9.78796 0.90280  -1
 -10   2   2 9.78796 0.90280   2
  -9   3   2 7.62542 0.71769  -1
  -9   2   2 7.62542 0.71769   2
  -8   3   2 8.04107 1.11050  -1
  -8   2   2 8.04107 1.11050   2
  -6   3   2 0.29665 0.28903   2
  -5   3   2 19.7000 2.04496  -1
  -5   3   2 19.7000 2.04496   2
  -4   3   2 11.1459 1.36344  -1
  -4   3   2 11.1459 1.36344   2
  -3   3   2 93.5749 2.01003  -1
  -3   3   2 93.5749 2.01003   2
  -2   3   2 35.9802 2.04907  -1
  -2   3   2 35.9802 2.04907   2
  -1   3   2 92.4927 0.78190   2
   0   3   2 18.2864 0.49206   2
   1   3   2 70.8886 0.82008   2
   2   3   2 197.593 1.67810   2
   3   3   2 30.3336 0.81374   2
   4   3   2 90.3861 1.38450   2
   5   3   2 65.5784 1.24192   2
   6   3   2 -0.3441 0.53432   2
   7   3   2 56.2857 1.33616   2
   8   3   2 80.6327 1.57682   2
   9   3   2 2.11825 0.73032   2
  10   3   2 14.3636 1.02558   2
  11   3   2 45.3157 2.12215   2
  13   3   2 3.26840 6.62076  -1
  13   5   1 3.26840 6.62076   2
  14   3   2 1.51146 2.70354   2
 -16   4   2 -3.9071 4.29916  -1
 -16   2   2 -3.9071 4.29916   2
 -16   4   2 3.36436 3.67062  -1
 -16   3   2 3.36436 3.67062   2
 -15   4   2 7.93875 3.15633  -1
 -15   3   2 7.93875 3.15633   2
 -14   4   2 9.91253 0.88291   2
 -13   4   2 -6.0832 2.89411  -1
 -13   3   2 -6.0832 2.89411   2
 -12   4   2 -0.9543 1.22541  -1
 -12   3   2 -0.9543 1.22541   2
 -11   4   2 -2.5157 1.49676  -1
 -11   3   2 -2.5157 1.49676   2
 -10   4   2 13.0216 1.00684  -1
 -10   3   2 13.0216 1.00684   2
  -9   4   2 27.7596 1.03997  -1
  -9   3   2 27.7596 1.03997   2
  -8   4   2 9.01590 1.31515  -1
  -8   3   2 9.01590 1.31515   2
  -7   4   2 63.4481 1.75415  -1
  -7   3   2 63.4481 1.75415   2
  -6   4   2 1.62497 0.32755   2
  -5   4   2 12.2385 0.46908   2
  -4   4   2 61.4409 0.81332   2
  -3   4   2 99.6380 3.27610  -1
  -3   4   2 99.6380 3.27610   2
  -2   4   2 181.885 1.29678   2
  -1   4   2 26.6997 0.52872   2
   0   4   2 70.3595 0.81626   2
   1   4   2 3.22981 0.31456   2
   2   4   2 177.439 1.44134   2
   3   4   2 79.6691 1.30514   2
   4   4   2 27.5952 0.99547   2
   5   4   2 43.0487 1.17215   2
   6   4   2 71.2550 1.44958   2
   7   4   2 92.6727 1.68721   2
   8   4   2 1.66405 0.69179   2
   9   4   2 0.57208 0.73105   2
  10   4   2 2.79351 1.03740   2
  11   4   2 23.4654 1.67150   2
 -16   5   2 1.29903 4.03426  -1
 -16   4   2 1.29903 4.03426   2
 -14   5   2 5.03788 0.86453   2
 -13   5   2 12.7380 3.36481  -1
 -13   4   2 12.7380 3.36481   2
 -12   5   2 10.5909 1.59354  -1
 -12   4   2 10.5909 1.59354   2
 -11   5   2 3.05264 1.23980  -1
 -11   4   2 3.05264 1.23980   2
 -10   5   2 1.06818 1.09592  -1
 -10   4   2 1.06818 1.09592   2
  -9   5   2 1.13674 1.09241  -1
  -9   4   2 1.13674 1.09241   2
  -8   5   2 5.13764 1.19600  -1
  -8   4   2 5.13764 1.19600   2
  -7   5   2 -2.0025 2.40535  -1
  -7   4   2 -2.0025 2.40535   2
  -6   5   2 14.0076 0.58820   2
  -5   5   2 3.09308 0.41367   2
  -4   5   2 4.11573 0.38413   2
  -3   5   2 12.1092 0.44247   2
  -2   5   2 44.2003 0.72558   2
  -1   5   2 20.5181 0.51751   2
   0   5   2 118.162 0.99458   2
   1   5   2 15.1427 0.50209   2
   2   5   2 157.984 1.51718   2
   3   5   2 40.3360 1.09056   2
   4   5   2 11.3898 0.67551   2
   5   5   2 23.9535 0.87732   2
   7   5   2 27.2120 1.04386   2
   8   5   2 9.06513 0.88464   2
   9   5   2 10.2752 1.20939   2
  10   5   2 6.98612 1.27482   2
  11   5   2 6.49153 1.37068   2
 -16   6   2 -3.5294 4.52956  -1
 -16   4   2 -3.5294 4.52956   2
 -16   6   2 -1.9381 2.37696   2
 -15   6   2 1.44672 3.66264  -1
 -15   4   2 1.44672 3.66264   2
 -14   6   2 7.56387 0.93410   2
 -13   6   2 47.8640 2.78742  -1
 -13   5   2 47.8640 2.78742   2
 -12   6   2 4.73589 1.75099  -1
 -12   5   2 4.73589 1.75099   2
 -11   6   2 14.2760 1.73652  -1
 -11   5   2 14.2760 1.73652   2
 -10   6   2 -2.4445 1.32480  -1
 -10   5   2 -2.4445 1.32480   2
  -9   6   2 49.2007 2.02808  -1
  -9   5   2 49.2007 2.02808   2
  -8   6   2 4.89585 2.05107  -1
  -8   5   2 4.89585 2.05107   2
  -7   6   2 1.37837 0.51569   2
  -7   6   2 21.7198 2.90858  -1
  -7   5   2 21.7198 2.90858   2
  -6   6   2 -0.5067 0.46109   2
  -5   6   2 10.4785 0.60114   2
  -4   6   2 78.8270 0.99805   2
  -3   6   2 3.87494 0.35706   2
  -2   6   2 59.7453 0.82325   2
  -1   6   2 43.8402 0.72907   2
   0   6   2 8.61740 0.39317   2
   1   6   2 0.20472 0.34486   2
   2   6   2 4.45462 0.50773   2
   3   6   2 0.15054 0.42781   2
   4   6   2 8.30970 0.70276   2
   5   6   2 58.6527 1.33895   2
   6   6   2 11.2930 0.83462   2
   7   6   2 14.0789 1.26510   2
   8   6   2 2.69988 1.18963   2
   9   6   2 27.7606 1.75543   2
  10   6   2 12.7281 1.47490   2
  11   6   2 3.54368 1.64962   2
  12   6   2 5.32724 3.01718   2
 -16   7   2 5.45985 4.86492  -1
 -16   5   2 5.45985 4.86492   2
 -15   7   2 4.42123 3.10580  -1
 -15   5   2 4.42123 3.10580   2
 -15   7   2 21.2826 1.94100   2
 -14   7   2 12.9632 1.07862   2
 -13   7   2 26.4158 3.99916  -1
 -13   6   2 26.4158 3.99916   2
 -13   7   2 6.27883 0.89705   2
 -12   7   2 11.8701 1.12512   2
 -12   7   2 1.09265 2.37930  -1
 -12   6   2 1.09265 2.37930   2
 -11   7   2 27.7699 2.47318  -1
 -11   6   2 27.7699 2.47318   2
 -11   7   2 86.9769 1.85394   2
 -10   7   2 83.2946 1.81359   2
 -10   7   2 18.5835 2.15235  -1
 -10   6   2 18.5835 2.15235   2
  -9   7   2 21.0294 0.89217   2
  -9   7   2 62.1338 3.02009  -1
  -9   6   2 62.1338 3.02009   2
  -8   7   2 11.6562 0.75072   2
  -8   7   2 0.87137 3.36299  -1
  -8   6   2 0.87137 3.36299   2
  -7   7   2 29.3563 1.05843   2
  -5   7   2 39.8742 3.67494  -1
  -6   7   2 39.8742 3.67494   2
  -4   7   2 7.10159 1.66231  -1
  -5   7   2 7.10159 1.66231   2
  -3   7   2 32.5353 2.33879  -1
  -4   7   2 32.5353 2.33879   2
  -2   7   2 -0.0093 0.36945   2
  -2   7   2 113.802 4.62992  -1
  -3   7   2 113.802 4.62992   2
  -1   7   2 16.6138 0.52940   2
   0   7   2 10.0607 0.49363   2
   1   7   2 17.7273 0.60337   2
   2   7   2 5.52123 0.58233   2
   3   7   2 1.82880 0.61870   2
   4   7   2 -0.5191 0.61951   2
   5   7   2 9.86029 1.01988   2
   6   7   2 4.21218 1.08674   2
   7   7   2 2.77070 1.09251   2
   8   7   2 15.8186 1.59140   2
   9   7   2 6.59173 1.50366   2
  10   7   2 0.74569 1.21617   2
  11   7   2 1.08309 2.67893   2
  12   7   2 4.39449 6.41798  -1
  11   9   1 4.39449 6.41798   2
  12   7   2 5.75094 3.33565   2
 -16   8   2 10.0621 2.05861   2
 -15   8   2 5.43924 3.35167  -1
 -15   6   2 5.43924 3.35167   2
 -15   8   2 24.3510 2.14005   2
  -8   8   2 52.4169 1.35330   2
  -6   8   2 83.7983 4.91651  -1
  -7   8   2 83.7983 4.91651   2
  -5   8   2 23.8672 2.24144  -1
  -6   8   2 23.8672 2.24144   2
  -4   8   2 0.06876 1.71409  -1
  -5   8   2 0.06876 1.71409   2
  -3   8   2 -0.5732 1.40716  -1
  -4   8   2 -0.5732 1.40716   2
  -2   8   2 5.64017 0.50670   2
  -2   8   2 16.8074 3.05267  -1
  -3   8   2 16.8074 3.05267   2
  -1   8   2 27.4812 0.85910   2
   0   8   2 52.2183 1.10734   2
   1   8   2 0.57764 0.43017   2
   2   8   2 1.03053 0.67251   2
   3   8   2 3.65993 0.89931   2
   4   8   2 -0.2845 0.98673   2
   5   8   2 5.26821 1.12058   2
   6   8   2 39.5067 2.02314   2
   7   8   2 9.01195 1.26916   2
   8   8   2 9.50236 2.07047   2
   9   8   2 2.64524 1.95511   2
  10   8   2 1.33501 2.32660   2
  11   8   2 1.63688 2.90520   2
 -16   9   2 16.5337 2.38175   2
 -16   9   2 14.5351 6.71654  -1
 -16   7   2 14.5351 6.71654   2
 -13   9   2 14.6936 4.78861  -1
 -14   8   2 14.6936 4.78861   2
 -12   9   2 -1.4596 3.91533  -1
 -13   8   2 -1.4596 3.91533   2
 -11   9   2 6.99073 2.67441  -1
 -12   8   2 6.99073 2.67441   2
 -10   9   2 24.2136 2.57014  -1
 -11   8   2 24.2136 2.57014   2
  -9   9   2 23.8337 2.48540  -1
 -10   8   2 23.8337 2.48540   2
  -8   9   2 20.4452 4.45130  -1
  -9   8   2 20.4452 4.45130   2
  -8   9   2 42.0966 1.48714   2
  -6   9   2 2.58956 3.04111  -1
  -7   9   2 2.58956 3.04111   2
  -5   9   2 -4.0043 2.40191  -1
  -6   9   2 -4.0043 2.40191   2
  -4   9   2 -0.2756 1.62662  -1
  -5   9   2 -0.2756 1.62662   2
  -3   9   2 -0.0126 1.51893  -1
  -4   9   2 -0.0126 1.51893   2
  -2   9   2 48.9742 2.53680  -1
  -3   9   2 48.9742 2.53680   2
  -2   9   2 17.8566 0.86257   2
  -1   9   2 17.5958 0.88949   2
   0   9   2 28.2596 1.52136   2
   1   9   2 10.3390 1.48239   2
   2   9   2 7.33837 1.40169   2
   3   9   2 1.10102 1.00412   2
   4   9   2 0.63101 1.28143   2
   5   9   2 13.2465 1.68662   2
   6   9   2 0.86869 1.41535   2
   7   9   2 0.08683 1.45592   2
   8   9   2 0.71382 1.92801   2
   9   9   2 0.88907 5.76184   2
 -14  10   2 24.1021 6.64799  -1
 -15   9   2 24.1021 6.64799   2
 -13  10   2 1.49914 3.38874  -1
 -14   9   2 1.49914 3.38874   2
 -12  10   2 -4.5592 2.84886  -1
 -13   9   2 -4.5592 2.84886   2
 -11  10   2 13.2180 2.70856  -1
 -12   9   2 13.2180 2.70856   2
 -10  10   2 15.9082 2.42660  -1
 -11   9   2 15.9082 2.42660   2
  -9  10   2 15.5766 2.66739  -1
 -10   9   2 15.5766 2.66739   2
  -8  10   2 80.6642 5.11421  -1
  -9   9   2 80.6642 5.11421   2
  -8  10   2 80.1931 1.89595   2
  -7  10   2 84.8866 1.91062   2
  -5  10   2 100.659 5.76916  -1
  -6  10   2 100.659 5.76916   2
  -4  10   2 105.077 4.08720  -1
  -5  10   2 105.077 4.08720   2
  -3  10   2 57.9762 1.67296   2
  -3  10   2 152.464 4.07118  -1
  -4  10   2 152.464 4.07118   2
  -2  10   2 3.51549 1.24547   2
  -1  10   2 4.15595 1.95953   2
   0  10   2 2.42196 1.94119   2
   1  10   2 -0.9289 1.87276   2
   2  10   2 0.69718 1.99167   2
   3  10   2 0.80429 2.08920   2
   4  10   2 -1.3311 2.10112   2
   5  10   2 -0.1764 2.34952   2
   6  10   2 -0.1713 2.48449   2
   6  10   2 68.7817 7.70244  -1
   5  11   1 68.7817 7.70244   2
   7  10   2 1.96647 2.57508   2
   8  10   2 0.43599 5.77546   2
   9  10   2 1.73170 6.55100   2
 -14  11   2 1.17590 6.82987  -1
 -15  10   2 1.17590 6.82987   2
 -13  11   2 3.44291 3.55022  -1
 -14  10   2 3.44291 3.55022   2
 -12  11   2 11.3395 3.08223  -1
 -13  10   2 11.3395 3.08223   2
 -11  11   2 47.5633 2.82133  -1
 -12  10   2 47.5633 2.82133   2
 -10  11   2 20.5787 2.55102  -1
 -11  10   2 20.5787 2.55102   2
  -9  11   2 25.8028 2.89526  -1
 -10  10   2 25.8028 2.89526   2
  -8  11   2 107.926 5.79045  -1
  -9  10   2 107.926 5.79045   2
  -8  11   2 42.2272 2.15326   2
  -7  11   2 48.3143 2.17890   2
  -6  11   2 34.6166 2.26375   2
  -5  11   2 3.96359 1.62743   2
  -4  11   2 58.9232 3.90774   2
  -3  11   2 0.05456 1.99408   2
  -2  11   2 8.11253 2.33135   2
  -1  11   2 0.49386 2.05411   2
   0  11   2 10.7604 2.52236   2
   1  11   2 6.69074 2.47688   2
   2  11   2 5.61231 2.57455   2
   3  11   2 9.11403 2.83479   2
   4  11   2 53.8134 7.64241  -1
   3  12   1 53.8134 7.64241   2
   4  11   2 4.88922 2.63558   2
   5  11   2 6.25956 2.87652   2
   5  11   2 55.8522 5.85820  -1
   4  12   1 55.8522 5.85820   2
   6  11   2 0.61992 2.69152   2
   6  11   2 24.6583 5.56563  -1
   5  12   1 24.6583 5.56563   2
   7  11   2 2.53360 6.06319   2
   7  11   2 23.0911 10.5937  -1
   6  12   1 23.0911 10.5937   2
   8  11   2 -0.5277 6.54014   2
   9  11   2 -4.0383 6.96734   2
 -14  12   2 11.1517 7.19015  -1
 -15  11   2 11.1517 7.19015   2
 -13  12   2 30.4164 5.95887  -1
 -14  11   2 30.4164 5.95887   2
 -12  12   2 58.6002 4.53116  -1
 -13  11   2 58.6002 4.53116   2
 -11  12   2 42.3296 3.80005  -1
 -12  11   2 42.3296 3.80005   2
 -10  12   2 22.0719 2.61303   2
 -10  12   2 14.6725 3.45431  -1
 -11  11   2 14.6725 3.45431   2
  -9  12   2 10.0355 2.24638   2
  -9  12   2 23.6423 3.99714  -1
 -10  11   2 23.6423 3.99714   2
  -8  12   2 5.90025 2.06337   2
  -8  12   2 52.9376 5.22256  -1
  -9  11   2 52.9376 5.22256   2
  -7  12   2 7.57008 2.02540   2
  -6  12   2 20.0199 2.22102   2
  -5  12   2 54.9600 3.11654   2
  -4  12   2 72.0014 4.54245   2
  -3  12   2 10.1013 2.68958   2
  -2  12   2 7.91989 2.59902   2
  -1  12   2 1.03340 2.42622   2
   0  12   2 -1.5577 2.44794   2
   1  12   2 0.06639 2.58238   2
   3  12   2 18.5839 8.70947  -1
   2  13   1 18.5839 8.70947   2
   4  12   2 17.6563 6.41257  -1
   3  13   1 17.6563 6.41257   2
   5  12   2 8.34141 6.24684  -1
   4  13   1 8.34141 6.24684   2
   6  12   2 5.42116 6.42540  -1
   5  13   1 5.42116 6.42540   2
   6  12   2 -0.0614 3.11137   2
   7  12   2 2.00392 7.50381   2
   7  12   2 10.5302 12.2589  -1
   6  13   1 10.5302 12.2589   2
   8  12   2 -0.2074 7.39501   2
 -13  13   2 66.5821 7.36243  -1
 -14  12   2 66.5821 7.36243   2
 -12  13   2 82.5824 5.23586  -1
 -13  12   2 82.5824 5.23586   2
 -11  13   2 20.5661 6.53154  -1
 -12  12   2 20.5661 6.53154   2
 -10  13   2 2.22916 2.39332   2
 -10  13   2 14.2927 6.31501  -1
 -11  12   2 14.2927 6.31501   2
  -9  13   2 8.15671 2.47488   2
  -8  13   2 19.1004 2.68860   2
  -7  13   2 25.6366 2.69047   2
  -6  13   2 65.2968 3.64968   2
  -5  13   2 153.568 4.59778   2
  -4  13   2 30.4224 3.83368   2
  -3  13   2 13.1490 3.26593   2
  -2  13   2 8.96620 3.19591   2
  -1  13   2 15.8577 3.53224   2
   0  13   2 16.7646 3.67012   2
   3  13   2 15.4526 7.45465  -1
   2  14   1 15.4526 7.45465   2
   4  13   2 16.0941 7.14538  -1
   3  14   1 16.0941 7.14538   2
   5  13   2 8.15672 6.97875  -1
   4  14   1 8.15672 6.97875   2
   6  13   2 7.66986 7.24586  -1
   5  14   1 7.66986 7.24586   2
   6  13   2 2.37743 3.76795   2
   7  13   2 2.38864 7.61492   2
   7  13   2 -4.8847 12.8649  -1
   6  14   1 -4.8847 12.8649   2
 -13  14   2 42.9418 11.8236  -1
 -14  13   2 42.9418 11.8236   2
 -12  14   2 5.97877 4.08668   2
 -12  14   2 10.2906 10.0954  -1
 -13  13   2 10.2906 10.0954   2
 -11  14   2 13.4331 3.98939   2
 -11  14   2 4.43615 7.10603  -1
 -12  13   2 4.43615 7.10603   2
 -10  14   2 13.9767 2.96932   2
 -10  14   2 0.17544 9.09210  -1
 -11  13   2 0.17544 9.09210   2
  -9  14   2 19.9928 3.05729   2
  -8  14   2 33.0111 3.23518   2
  -7  14   2 22.6414 3.00315   2
  -6  14   2 20.4550 2.96416   2
  -5  14   2 38.4947 3.24583   2
  -4  14   2 2.31114 3.43415   2
  -3  14   2 20.7731 4.11568   2
  -3  14   2 15.0735 10.3997  -1
  -4  14   1 15.0735 10.3997   2
  -2  14   2 21.4171 4.18929   2
  -2  14   2 40.6407 10.9379  -1
  -3  14   1 40.6407 10.9379   2
  -1  14   2 20.0643 4.21902   2
   0  14   2 16.3327 4.23123   2
   2  14   2 3.12184 11.0263  -1
   1  15   1 3.12184 11.0263   2
   3  14   2 14.5542 8.44841  -1
   2  15   1 14.5542 8.44841   2
   4  14   2 9.03234 8.24360  -1
   3  15   1 9.03234 8.24360   2
   5  14   2 -1.0855 7.10085  -1
   4  15   1 -1.0855 7.10085   2
   6  14   2 5.36393 8.42032  -1
   5  15   1 5.36393 8.42032   2
 -12  15   2 4.23917 11.8209  -1
 -13  14   2 4.23917 11.8209   2
 -12  15   2 27.6645 4.86009   2
 -11  15   2 17.2918 4.43248   2
 -10  15   2 15.2785 3.37573   2
  -9  15   2 16.3019 3.34277   2
  -8  15   2 18.5532 3.32832   2
  -7  15   2 19.4599 3.25157   2
  -5  15   2 35.8438 13.3533  -1
  -6  15   1 35.8438 13.3533   2
  -4  15   2 13.7735 7.87880  -1
  -5  15   1 13.7735 7.87880   2
  -3  15   2 5.92595 7.38876  -1
  -4  15   1 5.92595 7.38876   2
  -2  15   2 16.2140 8.12215  -1
  -3  15   1 16.2140 8.12215   2
  -2  15   2 18.1961 4.54626   2
  -1  15   2 33.8148 11.9368  -1
  -2  15   1 33.8148 11.9368   2
  -1  15   2 11.3370 4.46285   2
   0  15   2 9.03761 4.40055   2
   3  15   2 9.61808 9.82270  -1
   2  16   1 9.61808 9.82270   2
   4  15   2 14.8012 9.67266  -1
   3  16   1 14.8012 9.67266   2
   5  15   2 5.77065 4.77050   2
 -11  16   2 6.63194 7.82425   2
 -10  16   2 9.41621 3.62599   2
  -9  16   2 8.22990 3.54638   2
  -8  16   2 4.57997 3.43257   2
  -5  16   2 15.2599 9.29539  -1
  -6  16   1 15.2599 9.29539   2
  -4  16   2 1.69845 6.60475  -1
  -5  16   1 1.69845 6.60475   2
  -3  16   2 7.85919 8.44285  -1
  -4  16   1 7.85919 8.44285   2
  -2  16   2 18.9924 5.10314   2
  -2  16   2 2.31355 9.17856  -1
  -3  16   1 2.31355 9.17856   2
  -1  16   2 6.71685 4.79790   2
  -1  16   2 18.4476 12.9113  -1
  -2  16   1 18.4476 12.9113   2
   0  16   2 8.26464 4.78673   2
  -9  17   2 3.19056 3.79650   2
  -8  17   2 3.68978 3.76131   2
  -5  17   2 13.5319 10.4254  -1
  -6  17   1 13.5319 10.4254   2
  -4  17   2 2.11873 7.45257  -1
  -5  17   1 2.11873 7.45257   2
  -3  17   2 0.60200 9.93193  -1
  -4  17   1 0.60200 9.93193   2
  -2  17   2 -0.1422 5.10197   2
  -2  17   2 9.33032 10.6523  -1
  -3  17   1 9.33032 10.6523   2
  -1  17   2 2.39190 5.04360   2
   0  17   2 2.29638 5.16674   2
   2 -18   3 10.1575 5.60631   2
  -2 -17   3 6.52247 5.14742   2
  -2 -17   3 6.39098 15.2830  -1
  -1 -17   4 6.39098 15.2830   2
  -1 -17   3 5.16539 10.2367  -1
   0 -17   4 5.16539 10.2367   2
  -1 -17   3 9.46060 5.20292   2
   0 -17   3 11.7371 9.82565  -1
   1 -17   4 11.7371 9.82565   2
   1 -17   3 -4.0053 9.75291  -1
   2 -17   4 -4.0053 9.75291   2
   2 -17   3 -9.9363 13.3122  -1
   3 -17   4 -9.9363 13.3122   2
   5 -17   3 -1.1904 3.64538   2
   6 -17   3 4.66307 3.84768   2
   7 -17   3 21.7750 18.0883  -1
   8 -16   4 21.7750 18.0883   2
   7 -17   3 8.45582 4.03164   2
  -3 -16   3 12.3744 14.9998  -1
  -2 -16   4 12.3744 14.9998   2
  -3 -16   3 1.86805 4.47072   2
  -2 -16   3 3.21600 4.53445   2
  -2 -16   3 2.80330 13.3667  -1
  -1 -16   4 2.80330 13.3667   2
  -1 -16   3 3.65097 9.03437  -1
   0 -16   4 3.65097 9.03437   2
   0 -16   3 -0.6262 8.55119  -1
   1 -16   4 -0.6262 8.55119   2
   1 -16   3 -0.0094 13.2823  -1
   2 -16   4 -0.0094 13.2823   2
   2 -16   3 5.22536 14.0509  -1
   3 -16   4 5.22536 14.0509   2
   4 -16   3 0.39313 4.34541   2
   5 -16   3 4.18802 3.44367   2
   6 -16   3 8.88844 3.53633   2
   7 -16   3 11.9367 3.67630   2
   8 -16   3 11.7497 3.82199   2
  -6 -15   3 7.53719 14.8861  -1
  -5 -16   4 7.53719 14.8861   2
  -3 -15   3 -1.6360 3.86271   2
  -3 -15   3 29.3848 12.6912  -1
  -2 -15   4 29.3848 12.6912   2
  -2 -15   3 1.11494 3.97929   2
  -2 -15   3 30.0055 8.47052  -1
  -1 -15   4 30.0055 8.47052   2
  -1 -15   3 9.33948 7.83641  -1
   0 -15   4 9.33948 7.83641   2
   0 -15   3 -12.025 10.6380  -1
   1 -15   4 -12.025 10.6380   2
   1 -15   3 -2.0266 8.16732  -1
   2 -15   4 -2.0266 8.16732   2
   4 -15   3 -0.1002 3.89389   2
   5 -15   3 6.55285 3.11228   2
   6 -15   3 10.2210 3.24708   2
   7 -15   3 11.9304 3.34229   2
   8 -15   3 4.36059 3.36410   2
   9 -15   3 3.63377 3.30173   2
   9 -15   3 15.8729 7.32251  -1
  10 -14   3 15.8729 7.32251   2
  10 -15   3 6.56396 15.8126  -1
  11 -14   3 6.56396 15.8126   2
  10 -15   3 8.76635 3.43270   2
  -7 -14   3 12.5899 12.9869  -1
  -6 -15   4 12.5899 12.9869   2
  -6 -14   3 12.5252 10.9907  -1
  -5 -15   4 12.5252 10.9907   2
  -4 -14   3 0.49534 3.36571   2
  -3 -14   3 -0.1176 3.30329   2
  -3 -14   3 33.8996 11.2655  -1
  -2 -14   4 33.8996 11.2655   2
  -2 -14   3 17.0889 7.41271  -1
  -1 -14   4 17.0889 7.41271   2
  -2 -14   3 -0.3936 3.40589   2
  -1 -14   3 16.1637 7.02370  -1
   0 -14   4 16.1637 7.02370   2
  -1 -14   3 2.74053 3.41015   2
   0 -14   3 19.4255 4.36073  -1
   1 -14   4 19.4255 4.36073   2
   1 -14   3 59.8412 11.6590  -1
   2 -14   4 59.8412 11.6590   2
   3 -14   3 16.8225 4.00165   2
   4 -14   3 28.1620 4.43601   2
   5 -14   3 23.2207 3.12802   2
   6 -14   3 27.3884 3.23872   2
   7 -14   3 12.9861 3.03507   2
   8 -14   3 2.35730 2.91481   2
   8 -14   3 23.3009 8.08843  -1
   9 -13   3 23.3009 8.08843   2
   9 -14   3 8.41284 3.03491   2
   9 -14   3 8.22095 5.56594  -1
  10 -13   3 8.22095 5.56594   2
  10 -14   3 17.0027 8.58895  -1
  11 -13   3 17.0027 8.58895   2
  11 -14   3 5.19605 14.7065  -1
  12 -13   3 5.19605 14.7065   2
  -9 -13   3 -3.2168 8.54203  -1
  -8 -14   4 -3.2168 8.54203   2
  -8 -13   3 -2.5775 10.3835  -1
  -7 -14   4 -2.5775 10.3835   2
  -7 -13   3 13.7213 14.7922  -1
  -6 -14   4 13.7213 14.7922   2
  -6 -13   3 0.76613 8.74285  -1
  -5 -14   4 0.76613 8.74285   2
  -4 -13   3 2.18945 2.95445   2
  -3 -13   3 -0.0582 2.80785   2
  -2 -13   3 0.20875 2.85145   2
  -1 -13   3 -0.7408 1.79609   2
  -1 -13   3 38.1603 9.21785  -1
   0 -13   4 38.1603 9.21785   2
   0 -13   3 6.34545 1.87069   2
   0 -13   3 13.8261 8.85350  -1
   1 -13   4 13.8261 8.85350   2
   1 -13   3 4.89231 1.72910   2
   2 -13   3 -1.4088 1.48948   2
   3 -13   3 11.8588 3.32746   2
   4 -13   3 14.4097 3.40778   2
   5 -13   3 0.44354 2.24042   2
   6 -13   3 1.82964 2.30973   2
   7 -13   3 17.9182 6.52915  -1
   8 -12   3 17.9182 6.52915   2
   7 -13   3 -2.2733 2.33701   2
   8 -13   3 6.32644 2.60615   2
   8 -13   3 9.61210 4.40397  -1
   9 -12   3 9.61210 4.40397   2
   9 -13   3 5.82479 4.61056  -1
  10 -12   3 5.82479 4.61056   2
  10 -13   3 15.1830 7.13171  -1
  11 -12   3 15.1830 7.13171   2
  11 -13   3 11.1120 13.4922  -1
  12 -12   3 11.1120 13.4922   2
  -9 -12   3 2.85945 9.32705  -1
  -8 -13   4 2.85945 9.32705   2
  -8 -12   3 19.8441 9.22883  -1
  -7 -13   4 19.8441 9.22883   2
  -7 -12   3 24.6971 10.2552  -1
  -6 -13   4 24.6971 10.2552   2
  -4 -12   3 3.18071 2.59675   2
  -3 -12   3 4.11998 1.82638   2
  -2 -12   3 -0.3357 1.59169   2
  -1 -12   3 10.5324 1.85508   2
   0 -12   3 2.70303 1.54055   2
   1 -12   3 0.59949 1.48427   2
   2 -12   3 -0.0672 1.39920   2
   3 -12   3 2.76205 1.46262   2
   4 -12   3 -0.0336 2.33355   2
   5 -12   3 9.48285 2.05025   2
   6 -12   3 0.17267 1.90755   2
   6 -12   3 13.6688 4.92892  -1
   7 -11   3 13.6688 4.92892   2
   7 -12   3 1.80022 1.99686   2
   7 -12   3 10.6559 4.41961  -1
   8 -11   3 10.6559 4.41961   2
   8 -12   3 11.3082 4.23073  -1
   9 -11   3 11.3082 4.23073   2
   9 -12   3 19.9119 4.57233  -1
  10 -11   3 19.9119 4.57233   2
  10 -12   3 10.3503 7.41716  -1
  11 -11   3 10.3503 7.41716   2
  13 -12   3 8.12797 5.61625   2
  -9 -11   3 -2.0570 8.44896  -1
  -8 -12   4 -2.0570 8.44896   2
  -8 -11   3 7.82543 8.84563  -1
  -7 -12   4 7.82543 8.84563   2
  -7 -11   3 7.49750 6.23861  -1
  -6 -12   4 7.49750 6.23861   2
  -3 -11   3 0.42095 1.50775   2
  -2 -11   3 2.87330 1.51205   2
  -1 -11   3 0.04666 1.37245   2
   0 -11   3 14.7864 1.81062   2
   1 -11   3 -0.0977 1.33970   2
   2 -11   3 -0.7560 1.31191   2
   3 -11   3 -0.2258 1.28651   2
   4 -11   3 5.84209 1.21343   2
   5 -11   3 18.1904 2.00896   2
   6 -11   3 1.43805 1.62804   2
   6 -11   3 12.0833 4.42058  -1
   7 -10   3 12.0833 4.42058   2
   7 -11   3 2.79927 3.12600  -1
   8 -10   3 2.79927 3.12600   2
   8 -11   3 6.64393 3.41695  -1
   9 -10   3 6.64393 3.41695   2
   9 -11   3 7.59439 3.69296  -1
  10 -10   3 7.59439 3.69296   2
  10 -11   3 16.7941 9.12811  -1
  11 -10   3 16.7941 9.12811   2
  12 -11   3 12.9052 4.72998   2
 -11 -10   3 2.73772 5.90435  -1
 -10 -11   4 2.73772 5.90435   2
 -10 -10   3 -2.8558 4.35849  -1
  -9 -11   4 -2.8558 4.35849   2
  -9 -10   3 4.45483 3.50349  -1
  -8 -11   4 4.45483 3.50349   2
  -8 -10   3 0.29102 1.62595   2
  -8 -10   3 14.0200 3.77190  -1
  -7 -11   4 14.0200 3.77190   2
  -7 -10   3 7.97894 3.61884  -1
  -6 -11   4 7.97894 3.61884   2
  -7 -10   3 -3.3698 1.44367   2
  -6 -10   3 -0.3362 1.22320   2
  -6 -10   3 -7.6423 4.44393  -1
  -5 -11   4 -7.6423 4.44393   2
  -5 -10   3 10.0509 1.06576   2
  -4 -10   3 6.96748 1.01314   2
  -3 -10   3 1.63363 0.89467   2
  -2 -10   3 -1.3543 0.80134   2
  -1 -10   3 7.01362 0.96566   2
   0 -10   3 -0.4274 0.94169   2
   1 -10   3 -0.7878 0.94167   2
   2 -10   3 4.40887 1.37090   2
   3 -10   3 -0.1092 1.19027   2
   4 -10   3 2.14243 1.06427   2
   5 -10   3 -5.3011 4.40165  -1
   6  -9   3 -5.3011 4.40165   2
   5 -10   3 7.87060 1.17890   2
   6 -10   3 0.29602 2.30580  -1
   7  -9   3 0.29602 2.30580   2
   6 -10   3 3.16248 1.50362   2
   7 -10   3 2.67647 2.21160  -1
   8  -9   3 2.67647 2.21160   2
   8 -10   3 0.52823 2.41476  -1
   9  -9   3 0.52823 2.41476   2
   9 -10   3 7.35712 3.20320  -1
  10  -9   3 7.35712 3.20320   2
  10 -10   3 13.5217 4.26367  -1
  11  -9   3 13.5217 4.26367   2
  12 -10   3 0.44860 5.16864   2
  12 -10   3 -4.6170 5.86560  -1
  13  -8   3 -4.6170 5.86560   2
  13 -10   3 1.92398 6.86425  -1
  14  -8   3 1.92398 6.86425   2
 -12  -9   3 5.71829 2.99112   2
 -12  -9   3 8.26274 6.79540  -1
 -11 -10   4 8.26274 6.79540   2
 -11  -9   3 1.66227 2.42728   2
 -11  -9   3 2.31184 5.27247  -1
 -10 -10   4 2.31184 5.27247   2
 -10  -9   3 7.67508 2.19349   2
 -10  -9   3 -0.0138 4.05222  -1
  -9 -10   4 -0.0138 4.05222   2
  -9  -9   3 3.84012 1.92742   2
  -8  -9   3 9.74721 1.72939   2
  -7  -9   3 -0.2038 1.30156   2
  -6  -9   3 0.52892 0.99904   2
  -5  -9   3 4.70522 0.91198   2
  -4  -9   3 15.8064 0.98508   2
  -3  -9   3 12.4553 0.84046   2
  -3  -9   3 3.82683 3.94081  -1
  -2  -9   3 3.82683 3.94081   2
  -1  -9   3 -0.0796 0.63623   2
  -1  -9   3 -3.1207 2.71485  -1
   0  -9   3 -3.1207 2.71485   2
   0  -9   3 11.9650 2.25714  -1
   1  -9   3 11.9650 2.25714   2
   2  -9   3 -0.2563 0.67663   2
   3  -9   3 -0.6148 0.67649   2
   4  -9   3 1.91687 0.69675   2
   5  -9   3 -1.7922 2.99793  -1
   6  -8   3 -1.7922 2.99793   2
   5  -9   3 2.01571 0.61406   2
   6  -9   3 -3.0310 2.31104  -1
   7  -8   3 -3.0310 2.31104   2
   7  -9   3 -1.4682 2.03142  -1
   8  -8   3 -1.4682 2.03142   2
   8  -9   3 3.33222 2.06507  -1
   9  -8   3 3.33222 2.06507   2
   9  -9   3 2.52815 2.72457  -1
  10  -8   3 2.52815 2.72457   2
  10  -9   3 -2.3301 3.33246  -1
  11  -8   3 -2.3301 3.33246   2
  12  -9   3 3.88139 2.17965   2
 -13  -8   3 10.3477 7.77477  -1
 -12 -10   4 10.3477 7.77477   2
 -13  -8   3 10.0974 2.14728   2
 -12  -8   3 0.85586 1.64635   2
 -12  -8   3 3.22708 5.73514  -1
 -11  -9   4 3.22708 5.73514   2
 -11  -8   3 4.69666 1.48898   2
 -10  -8   3 14.6968 1.59497   2
  -9  -8   3 14.8636 2.20998   2
  -7  -8   3 -0.2852 0.64278   2
  -6  -8   3 5.02151 0.73554   2
  -5  -8   3 3.38593 0.62978   2
  -4  -8   3 58.4572 1.24578   2
  -3  -8   3 63.0125 1.23168   2
  -3  -8   3 0.59655 2.78743  -1
  -2  -8   3 0.59655 2.78743   2
  -2  -8   3 2.98741 3.67074  -1
  -1  -8   3 2.98741 3.67074   2
  -1  -8   3 25.8360 1.56620  -1
   0  -8   3 25.8360 1.56620   2
   0  -8   3 48.0774 1.62909  -1
   1  -8   3 48.0774 1.62909   2
   1  -8   3 0.02593 1.79579  -1
   2  -8   3 0.02593 1.79579   2
   2  -8   3 -2.1048 3.61857  -1
   3  -8   3 -2.1048 3.61857   2
   4  -8   3 3.60999 0.67956   2
   5  -8   3 -0.0965 0.57059   2
   5  -8   3 -1.2877 4.01066  -1
   6  -7   3 -1.2877 4.01066   2
   6  -8   3 2.94515 2.99131  -1
   7  -7   3 2.94515 2.99131   2
   7  -8   3 -0.5930 2.94886  -1
   8  -7   3 -0.5930 2.94886   2
   8  -8   3 -4.3471 2.88670  -1
   9  -7   3 -4.3471 2.88670   2
   9  -8   3 -2.8824 3.13660  -1
  10  -7   3 -2.8824 3.13660   2
  12  -8   3 -0.7662 1.79623   2
  14  -8   3 7.76441 6.76704  -1
  14  -6   3 7.76441 6.76704   2
 -14  -7   3 11.1706 3.40790   2
 -13  -7   3 7.87234 1.87849   2
 -12  -7   3 9.79992 1.64091   2
 -11  -7   3 20.4828 1.18583   2
 -10  -7   3 55.4227 1.68987   2
  -9  -7   3 34.0214 5.88121  -1
  -8  -8   3 34.0214 5.88121   2
  -9  -7   3 49.0985 1.58766   2
  -8  -7   3 22.6971 0.92375   2
  -7  -7   3 0.54267 0.61305   2
  -6  -7   3 16.0076 0.84243   2
  -5  -7   3 5.26464 0.60728   2
  -4  -7   3 60.3091 1.15367   2
  -3  -7   3 72.5657 1.20076   2
  -3  -7   3 89.1423 3.81236  -1
  -2  -7   3 89.1423 3.81236   2
  -2  -7   3 103.246 2.29851  -1
  -1  -7   3 103.246 2.29851   2
  -1  -7   3 110.577 2.31002  -1
   0  -7   3 110.577 2.31002   2
   0  -7   3 21.0044 2.07000  -1
   1  -7   3 21.0044 2.07000   2
   1  -7   3 7.65706 2.15438  -1
   2  -7   3 7.65706 2.15438   2
   3  -7   3 10.9969 0.60563   2
   4  -7   3 -0.9282 0.57504   2
   5  -7   3 5.32302 0.79220   2
   8  -7   3 -0.2811 4.60513  -1
   8  -6   3 -0.2811 4.60513   2
  11  -7   3 1.71364 1.28795   2
  12  -7   3 -0.2187 1.30301   2
  13  -7   3 0.85631 2.20801   2
  13  -7   3 -2.8105 4.11646  -1
  13  -6   3 -2.8105 4.11646   2
  14  -7   3 -1.5311 6.31930  -1
  14  -5   3 -1.5311 6.31930   2
  14  -7   3 1.26864 2.77884   2
 -14  -6   3 19.4187 1.57996   2
 -13  -6   3 3.92708 0.96689   2
 -12  -6   3 9.73132 0.98540   2
 -11  -6   3 31.5518 1.38588   2
 -10  -6   3 70.7548 1.69183   2
  -9  -6   3 88.7893 1.52387   2
  -8  -6   3 2.07183 0.59819   2
  -7  -6   3 6.73230 0.59683   2
  -6  -6   3 8.71313 0.66074   2
  -5  -6   3 100.473 1.32437   2
  -4  -6   3 92.3250 1.24704   2
  -3  -6   3 138.799 1.63201   2
  -2  -6   3 127.547 1.42231   2
  -2  -6   3 174.562 3.50682  -1
  -1  -6   3 174.562 3.50682   2
  -1  -6   3 0.32519 2.54447  -1
   0  -6   3 0.32519 2.54447   2
   1  -6   3 101.168 4.01436  -1
   2  -6   3 101.168 4.01436   2
   1  -6   3 42.8658 0.84993   2
   3  -6   3 73.1669 1.12601   2
   4  -6   3 3.99769 0.57629   2
   5  -6   3 3.24449 1.85312  -1
   5  -5   3 3.24449 1.85312   2
   5  -6   3 -0.4465 0.47168   2
   6  -6   3 1.71517 0.65365   2
   6  -6   3 3.50235 1.63623  -1
   6  -5   3 3.50235 1.63623   2
   7  -6   3 6.02743 0.75222   2
   7  -6   3 2.19899 1.54377  -1
   7  -5   3 2.19899 1.54377   2
   8  -6   3 1.44550 1.89826  -1
   8  -5   3 1.44550 1.89826   2
   9  -6   3 1.14352 1.00815   2
   9  -6   3 -2.3124 2.65980  -1
   9  -5   3 -2.3124 2.65980   2
  10  -6   3 -0.7297 1.09572   2
  10  -6   3 -1.4583 5.75392  -1
  10  -5   3 -1.4583 5.75392   2
  11  -6   3 0.64430 1.20605   2
  12  -6   3 -3.1320 3.81798  -1
  12  -5   3 -3.1320 3.81798   2
  12  -6   3 0.80801 1.36150   2
  13  -6   3 -0.8489 3.97662  -1
  13  -5   3 -0.8489 3.97662   2
  14  -6   3 11.5071 5.24348  -1
  14  -5   3 11.5071 5.24348   2
  14  -6   3 -13.018 6.02022  -1
  14  -4   3 -13.018 6.02022   2
 -15  -5   3 2.05100 1.93980   2
 -14  -5   3 20.4201 1.28840   2
 -13  -5   3 7.29895 0.93225   2
 -12  -5   3 15.9034 1.00233   2
 -11  -5   3 29.7683 1.25957   2
 -10  -5   3 78.2696 1.52272   2
  -9  -5   3 109.526 1.55486   2
  -8  -5   3 39.0995 1.01865   2
  -7  -5   3 111.920 1.36285   2
  -6  -5   3 69.5879 1.08032   2
  -5  -5   3 199.682 1.97908   2
  -4  -5   3 91.5480 1.15585   2
  -3  -5   3 28.3973 0.82756   2
  -2  -5   3 45.9712 0.84115   2
  -1  -5   3 188.589 1.50565   2
   0  -5   3 50.5131 0.85844   2
   1  -5   3 428.047 2.85751   2
   2  -5   3 604.913 4.08469   2
   3  -5   3 17.2716 0.58736   2
   4  -5   3 129.532 1.62360   2
   4  -5   3 2.57420 2.99471  -1
   4  -4   3 2.57420 2.99471   2
   5  -5   3 54.6200 2.00400  -1
   5  -4   3 54.6200 2.00400   2
   6  -5   3 2.40498 1.33266  -1
   6  -4   3 2.40498 1.33266   2
   7  -5   3 4.91847 1.38430  -1
   7  -4   3 4.91847 1.38430   2
   8  -5   3 1.88925 1.59424  -1
   8  -4   3 1.88925 1.59424   2
   9  -5   3 6.59818 3.36633  -1
   9  -4   3 6.59818 3.36633   2
  10  -5   3 0.68578 5.31915  -1
  10  -4   3 0.68578 5.31915   2
  11  -5   3 0.55417 1.19415   2
  11  -5   3 2.54585 3.83312  -1
  11  -4   3 2.54585 3.83312   2
  12  -5   3 0.82728 3.88404  -1
  12  -4   3 0.82728 3.88404   2
  13  -5   3 -5.2603 4.83478  -1
  13  -3   3 -5.2603 4.83478   2
  13  -5   3 -4.0393 3.67800  -1
  13  -4   3 -4.0393 3.67800   2
  14  -5   3 -2.5089 4.48006  -1
  14  -4   3 -2.5089 4.48006   2
  14  -5   3 4.17642 6.12713  -1
  14  -3   3 4.17642 6.12713   2
  15  -5   3 5.90273 5.26113  -1
  15  -4   3 5.90273 5.26113   2
  15  -5   3 1.53338 3.30737   2
 -15  -4   3 18.0340 1.48803   2
 -14  -4   3 13.1447 1.05883   2
 -13  -4   3 22.9333 0.96365   2
 -12  -4   3 33.5274 1.11022   2
 -11  -4   3 26.4053 0.95447   2
  -9  -4   3 48.8854 0.97900   2
  -8  -4   3 22.9195 0.80668   2
  -7  -4   3 27.9585 0.75997   2
  -6  -4   3 42.8655 0.81932   2
  -5  -4   3 5.60085 0.39043   2
  -4  -4   3 155.268 1.41922   2
  -3  -4   3 234.885 2.02705   2
  -2  -4   3 157.677 1.55664   2
  -1  -4   3 70.9737 0.92895   2
   0  -4   3 172.315 1.61681   2
   1  -4   3 694.786 4.23082   2
   2  -4   3 1221.45 6.95402   2
   3  -4   3 605.794 3.96273   2
   5  -4   3 25.5025 1.41873  -1
   5  -3   3 25.5025 1.41873   2
   6  -4   3 14.8181 1.23121  -1
   6  -3   3 14.8181 1.23121   2
   7  -4   3 93.2804 2.20624  -1
   7  -3   3 93.2804 2.20624   2
   8  -4   3 97.9287 2.44294  -1
   8  -3   3 97.9287 2.44294   2
   9  -4   3 11.6978 3.30070  -1
   9  -3   3 11.6978 3.30070   2
  10  -4   3 15.3923 5.36574  -1
  10  -3   3 15.3923 5.36574   2
  11  -4   3 -2.7400 3.69088  -1
  11  -3   3 -2.7400 3.69088   2
  12  -4   3 2.84110 3.62246  -1
  12  -3   3 2.84110 3.62246   2
  13  -4   3 9.40040 5.28914  -1
  13  -2   3 9.40040 5.28914   2
  13  -4   3 -3.6563 3.86041  -1
  13  -3   3 -3.6563 3.86041   2
  14  -4   3 -3.4978 6.32279  -1
  14  -2   3 -3.4978 6.32279   2
  14  -4   3 1.13850 4.55032  -1
  14  -3   3 1.13850 4.55032   2
  15  -4   3 3.85323 5.50891  -1
  15  -3   3 3.85323 5.50891   2
 -14  -3   3 16.0822 1.02800   2
 -13  -3   3 51.4028 1.37471   2
 -12  -3   3 30.1241 1.00013   2
 -11  -3   3 15.1855 0.75817   2
 -11  -3   3 1.10662 2.72596  -1
 -11  -4   4 1.10662 2.72596   2
 -10  -3   3 4.37850 0.59283   2
  -9  -3   3 44.8334 0.93175   2
  -8  -3   3 131.988 1.35122   2
  -7  -3   3 163.823 1.38906   2
  -6  -3   3 499.501 3.20031   2
  -5  -3   3 0.33593 0.27488   2
  -4  -3   3 117.118 1.08220   2
  -3  -3   3 57.2642 2.49593  -1
  -3  -3   3 57.2642 2.49593   2
  -2  -3   3 33.9024 0.82923   2
  -1  -3   3 368.461 2.70258   2
   0  -3   3 35.5850 0.68782   2
   1  -3   3 1182.79 6.79894   2
   2  -3   3 1363.83 7.65527   2
   3  -3   3 964.426 5.92061   2
   4  -3   3 55.9840 1.05891   2
   4  -3   3 86.5650 3.70565  -1
   4  -2   3 86.5650 3.70565   2
   5  -3   3 38.8236 1.84284  -1
   5  -2   3 38.8236 1.84284   2
   6  -3   3 46.7858 1.53406  -1
   6  -2   3 46.7858 1.53406   2
   7  -3   3 27.2053 1.65426  -1
   7  -2   3 27.2053 1.65426   2
   8  -3   3 19.1532 2.20430  -1
   8  -2   3 19.1532 2.20430   2
   9  -3   3 5.74654 3.27499  -1
   9  -2   3 5.74654 3.27499   2
  10  -3   3 19.5254 5.50043  -1
  10  -2   3 19.5254 5.50043   2
  12  -3   3 1.69101 4.55950  -1
  12  -1   3 1.69101 4.55950   2
  12  -3   3 2.26344 3.85272  -1
  12  -2   3 2.26344 3.85272   2
  13  -3   3 7.76319 5.44144  -1
  13  -1   3 7.76319 5.44144   2
  13  -3   3 9.27605 4.20454  -1
  13  -2   3 9.27605 4.20454   2
  14  -3   3 0.62045 6.74970  -1
  14  -1   3 0.62045 6.74970   2
 -14  -2   3 16.0779 0.93818   2
 -13  -2   3 11.8408 0.79201   2
 -12  -2   3 -0.5533 0.51594   2
 -11  -2   3 10.7461 0.61589   2
 -10  -2   3 11.8141 0.61480   2
  -9  -2   3 164.222 1.72733   2
  -8  -2   3 260.287 2.32022   2
  -7  -2   3 197.154 1.81730   2
  -6  -2   3 33.9162 0.68643   2
  -5  -2   3 45.7748 0.61251   2
  -4  -2   3 43.6276 1.55578  -1
  -4  -2   3 43.6276 1.55578   2
  -3  -2   3 897.627 15.1324  -1
  -3  -2   3 897.627 15.1324   2
  -2  -2   3 578.389 5.79644  -1
  -2  -2   3 578.389 5.79644   2
  -1  -2   3 362.905 6.70848  -1
  -1  -2   3 362.905 6.70848   2
   0  -2   3 195.005 1.41328   2
   1  -2   3 2682.53 13.8183   2
   2  -2   3 1198.41 6.73560   2
   3  -2   3 608.583 3.67993   2
   4  -2   3 266.713 6.39089  -1
   4  -1   3 266.713 6.39089   2
   5  -2   3 131.805 2.20185  -1
   5  -1   3 131.805 2.20185   2
   6  -2   3 259.473 3.36777  -1
   6  -1   3 259.473 3.36777   2
   7  -2   3 76.3602 1.82900  -1
   7  -1   3 76.3602 1.82900   2
   8  -2   3 90.6764 3.59940  -1
   8  -1   3 90.6764 3.59940   2
  11  -2   3 -2.0256 1.06871   2
 -14  -1   3 23.9268 1.53379   2
 -13  -1   3 22.7544 0.98202   2
 -12  -1   3 40.8437 1.36869   2
 -11  -1   3 179.365 2.89125   2
 -10  -1   3 193.630 4.25071   2
  -9  -1   3 293.005 7.08831   2
  -8  -1   3 300.362 4.92521   2
  -7  -1   3 326.710 5.03353   2
  -6  -1   3 38.4632 2.29764   2
  -5  -1   3 492.703 9.36689   2
  -4  -1   3 387.790 4.32758   2
  -3  -1   3 45.2911 2.26320  -1
  -3  -1   3 45.2911 2.26320   2
  -2  -1   3 168.324 1.82410  -1
  -2  -1   3 168.324 1.82410   2
  -1  -1   3 4.93748 0.98482  -1
  -1  -1   3 4.93748 0.98482   2
   0  -1   3 0.58860 0.25758   2
   1  -1   3 195.638 1.43895   2
   2  -1   3 445.412 2.81788   2
   3  -1   3 62.7346 0.95881   2
   5  -1   3 138.812 2.19158  -1
   5   0   3 138.812 2.19158   2
   6  -1   3 177.049 2.78227  -1
   6   0   3 177.049 2.78227   2
   7  -1   3 123.745 3.05238  -1
   7   0   3 123.745 3.05238   2
   9  -1   3 57.0452 1.44755   2
  10  -1   3 6.67302 0.85956   2
  11  -1   3 1.53207 1.14299   2
 -16   0   3 9.25747 2.14585   2
 -16   0   3 -0.1740 4.78458  -1
 -16  -2   4 -0.1740 4.78458   2
 -15   0   3 4.97066 1.22675   2
 -15   0   3 2.99905 3.56711  -1
 -15  -2   4 2.99905 3.56711   2
 -14   0   3 31.5413 1.48907   2
 -13   0   3 36.9039 1.88552   2
 -12   0   3 120.020 5.36153   2
 -11   0   3 183.213 4.12627   2
 -10   0   3 253.569 4.80695   2
  -9   0   3 262.600 4.48365   2
  -8   0   3 255.900 3.57645   2
  -7   0   3 201.660 4.88157   2
  -6   0   3 44.8264 2.21467   2
  -5   0   3 157.588 3.82086   2
  -3   0   3 954.529 11.6310  -1
  -3   0   3 954.529 11.6310   2
  -2   0   3 541.990 3.78064  -1
  -2   0   3 541.990 3.78064   2
  -1   0   3 2.02277 0.72780  -1
  -1   0   3 2.02277 0.72780   2
   0   0   3 733.169 4.24884   2
   1   0   3 208.416 1.41222   2
   2   0   3 170.960 1.35860   2
   3   0   3 14.0423 0.53308   2
   4   0   3 172.400 2.01707   2
   4   0   3 91.5815 3.30031  -1
   4   1   3 91.5815 3.30031   2
   5   0   3 303.183 4.84944  -1
   5   1   3 303.183 4.84944   2
   6   0   3 105.028 3.24718  -1
   6   1   3 105.028 3.24718   2
   8   0   3 91.1595 1.66436   2
   9   0   3 52.7562 1.53152   2
  10   0   3 -0.5625 0.73938   2
  11   0   3 -0.0815 1.07452   2
  12   0   3 13.4692 1.71647   2
  12   0   3 47.3309 5.30276  -1
  12   2   2 47.3309 5.30276   2
  13   0   3 19.9208 2.11885   2
  13   0   3 16.9758 5.90086  -1
  13   2   2 16.9758 5.90086   2
  14   0   3 8.90286 2.18166   2
  14   0   3 14.1296 7.30821  -1
  14   2   2 14.1296 7.30821   2
 -16   1   3 10.8452 1.50949   2
 -16   1   3 8.18287 3.92271  -1
 -16  -1   4 8.18287 3.92271   2
 -15   1   3 10.5239 1.24184   2
 -14   1   3 18.8883 1.32189   2
 -13   1   3 32.4946 1.60163   2
 -12   1   3 113.424 5.19217   2
  -7   1   3 0.81506 0.74942   2
  -6   1   3 120.724 2.42693   2
  -5   1   3 142.600 3.60903  -1
  -5   1   3 142.600 3.60903   2
  -4   1   3 126.978 2.62049  -1
  -4   1   3 126.978 2.62049   2
  -3   1   3 1815.97 14.8595  -1
  -3   1   3 1815.97 14.8595   2
  -2   1   3 1877.26 10.0390  -1
  -2   1   3 1877.26 10.0390   2
  -1   1   3 419.773 4.10361  -1
  -1   1   3 419.773 4.10361   2
   0   1   3 614.375 3.63582   2
   1   1   3 4.14915 0.29675   2
   2   1   3 357.506 2.50562   2
   3   1   3 466.546 3.73163   2
   4   1   3 4.26075 1.80584  -1
   4   2   3 4.26075 1.80584   2
   5   1   3 74.7367 3.96418  -1
   5   2   3 74.7367 3.96418   2
   7   1   3 186.953 2.24451   2
   8   1   3 79.4689 1.59030   2
   9   1   3 43.5462 1.54822   2
  10   1   3 0.56212 0.76023   2
  11   1   3 1.88393 1.15435   2
  12   1   3 15.8048 1.83489   2
  12   1   3 27.6759 5.29606  -1
  12   3   2 27.6759 5.29606   2
  13   1   3 6.05540 1.82296   2
  13   1   3 9.78056 5.95233  -1
  13   3   2 9.78056 5.95233   2
  14   1   3 5.17146 2.15798   2
 -15   2   3 6.62861 0.96211   2
 -14   2   3 2.78623 0.74594   2
 -11   2   3 127.596 5.94452  -1
 -11   1   3 127.596 5.94452   2
 -10   2   3 133.447 5.83774  -1
 -10   1   3 133.447 5.83774   2
  -9   2   3 132.420 4.62751  -1
  -9   1   3 132.420 4.62751   2
  -8   2   3 103.504 3.91771  -1
  -8   1   3 103.504 3.91771   2
  -7   2   3 199.180 2.51900   2
  -6   2   3 924.451 5.99335   2
  -5   2   3 503.682 8.82647  -1
  -5   2   3 503.682 8.82647   2
  -4   2   3 181.561 2.37622  -1
  -4   2   3 181.561 2.37622   2
  -3   2   3 523.988 3.76449  -1
  -3   2   3 523.988 3.76449   2
  -2   2   3 1290.39 7.06226  -1
  -2   2   3 1290.39 7.06226   2
  -1   2   3 30.8666 0.56651   2
   0   2   3 139.927 1.13196   2
   1   2   3 212.902 1.63093   2
   2   2   3 181.206 1.48091   2
   3   2   3 571.094 4.47452   2
   6   2   3 27.5047 1.19822   2
   7   2   3 163.054 2.11254   2
   8   2   3 93.3557 1.72986   2
   9   2   3 31.4687 1.30675   2
  10   2   3 0.98138 0.99860   2
  11   2   3 2.23335 1.17041   2
  12   2   3 2.08246 5.37179  -1
  12   4   2 2.08246 5.37179   2
  13   2   3 -0.5467 6.52756  -1
  13   4   2 -0.5467 6.52756   2
 -16   3   3 2.57502 3.53173  -1
 -16   2   3 2.57502 3.53173   2
 -15   3   3 0.26055 0.76769   2
 -14   3   3 1.40775 0.67063   2
 -13   3   3 20.9383 2.12720  -1
 -13   2   3 20.9383 2.12720   2
 -12   3   3 58.6805 1.68017  -1
 -12   2   3 58.6805 1.68017   2
 -11   3   3 93.4583 5.20768  -1
 -11   2   3 93.4583 5.20768   2
 -10   3   3 74.4495 4.54557  -1
 -10   2   3 74.4495 4.54557   2
  -9   3   3 216.924 6.71107  -1
  -9   2   3 216.924 6.71107   2
  -8   3   3 244.081 3.55855  -1
  -8   2   3 244.081 3.55855   2
  -6   3   3 482.138 3.01573   2
  -5   3   3 284.158 5.67279  -1
  -5   3   3 284.158 5.67279   2
  -4   3   3 458.112 8.39640  -1
  -4   3   3 458.112 8.39640   2
  -3   3   3 39.3218 0.98112  -1
  -3   3   3 39.3218 0.98112   2
  -2   3   3 390.631 7.25164  -1
  -2   3   3 390.631 7.25164   2
  -1   3   3 1646.57 8.53538   2
   0   3   3 123.609 1.10512   2
   1   3   3 137.276 1.26884   2
   2   3   3 401.309 2.94109   2
   3   3   3 740.678 5.45291   2
   4   3   3 138.886 2.01192   2
   5   3   3 26.5392 0.98878   2
   6   3   3 45.5305 1.38798   2
   7   3   3 59.4860 1.46352   2
   8   3   3 66.5995 1.58330   2
   9   3   3 5.78235 1.07689   2
  10   3   3 4.92526 1.10808   2
  12   3   3 -1.7122 5.39964  -1
  12   5   2 -1.7122 5.39964   2
  13   3   3 15.7404 7.53454  -1
  13   5   2 15.7404 7.53454   2
 -17   4   3 4.11120 2.40124   2
 -16   4   3 -0.3538 3.39625  -1
 -16   3   3 -0.3538 3.39625   2
 -15   4   3 2.64520 0.82757   2
 -13   4   3 13.3075 1.44515  -1
 -13   3   3 13.3075 1.44515   2
 -12   4   3 38.9317 1.16018  -1
 -12   3   3 38.9317 1.16018   2
 -11   4   3 52.4447 1.16240  -1
 -11   3   3 52.4447 1.16240   2
 -10   4   3 106.921 1.43984  -1
 -10   3   3 106.921 1.43984   2
  -9   4   3 235.201 2.44946  -1
  -9   3   3 235.201 2.44946   2
  -8   4   3 216.156 3.22130  -1
  -8   3   3 216.156 3.22130   2
  -7   4   3 458.261 8.33700  -1
  -7   3   3 458.261 8.33700   2
  -6   4   3 256.273 1.92157   2
  -5   4   3 270.712 5.75829  -1
  -5   4   3 270.712 5.75829   2
  -4   4   3 516.601 6.73905  -1
  -4   4   3 516.601 6.73905   2
  -3   4   3 49.3053 2.64000  -1
  -3   4   3 49.3053 2.64000   2
  -2   4   3 128.923 1.08387   2
  -1   4   3 590.084 3.56179   2
   0   4   3 288.423 1.90681   2
   1   4   3 231.313 1.64898   2
   2   4   3 1006.34 6.20536   2
   3   4   3 321.218 3.08424   2
   4   4   3 65.9188 1.35747   2
   5   4   3 7.91421 0.74498   2
   6   4   3 63.4740 1.50595   2
   6   4   3 32.5571 4.46540  -1
   6   5   2 32.5571 4.46540   2
   7   4   3 64.0443 1.52513   2
   8   4   3 48.5659 1.57850   2
   9   4   3 12.3427 1.31875   2
  10   4   3 18.2028 1.54687   2
 -17   5   3 2.28293 1.76383   2
 -14   5   3 13.9768 3.16428  -1
 -14   4   3 13.9768 3.16428   2
 -13   5   3 10.9684 1.57956  -1
 -13   4   3 10.9684 1.57956   2
 -12   5   3 13.6529 1.20207  -1
 -12   4   3 13.6529 1.20207   2
 -11   5   3 0.70367 1.01940  -1
 -11   4   3 0.70367 1.01940   2
 -10   5   3 134.249 1.82283  -1
 -10   4   3 134.249 1.82283   2
  -9   5   3 102.867 1.39873  -1
  -9   4   3 102.867 1.39873   2
  -8   5   3 100.224 3.45445  -1
  -8   4   3 100.224 3.45445   2
  -7   5   3 374.489 7.38408  -1
  -7   4   3 374.489 7.38408   2
  -7   5   3 220.268 2.04832   2
  -6   5   3 287.254 2.45194   2
  -5   5   3 526.173 3.64616   2
  -4   5   3 216.625 1.45591   2
  -3   5   3 117.999 1.11065   2
  -2   5   3 275.574 1.86128   2
  -1   5   3 57.4838 0.75485   2
   0   5   3 80.9296 0.93665   2
   1   5   3 151.178 1.39836   2
   2   5   3 286.296 2.15762   2
   3   5   3 63.9651 1.35314   2
   4   5   3 133.877 1.93691   2
   5   5   3 127.129 1.97647   2
   6   5   3 79.7381 1.90009   2
   7   5   3 88.9785 2.03774   2
   8   5   3 11.5635 1.12927   2
   9   5   3 41.4568 2.08628   2
  10   5   3 37.7398 2.09441   2
  11   5   3 19.8894 2.09098   2
 -16   6   3 -2.5555 2.83980  -1
 -16   4   3 -2.5555 2.83980   2
 -15   6   3 12.5491 1.06098   2
 -14   6   3 -0.9494 0.78092   2
 -14   6   3 -4.6294 3.33016  -1
 -14   5   3 -4.6294 3.33016   2
 -13   6   3 0.17475 1.73597  -1
 -13   5   3 0.17475 1.73597   2
 -12   6   3 10.7324 1.54749  -1
 -12   5   3 10.7324 1.54749   2
 -11   6   3 5.90888 1.28895  -1
 -11   5   3 5.90888 1.28895   2
 -10   6   3 123.705 1.86049  -1
 -10   5   3 123.705 1.86049   2
  -9   6   3 29.7233 1.99614  -1
  -9   5   3 29.7233 1.99614   2
  -8   6   3 100.781 1.46537   2
  -8   6   3 98.4465 3.87500  -1
  -8   5   3 98.4465 3.87500   2
  -7   6   3 159.127 1.79198   2
  -6   6   3 206.417 2.06944   2
  -5   6   3 482.911 3.77222   2
  -4   6   3 0.39760 0.32813   2
  -3   6   3 21.5600 0.62866   2
  -2   6   3 1.02687 0.36172   2
  -1   6   3 0.32237 0.30337   2
   0   6   3 44.8735 0.81329   2
   1   6   3 340.988 2.48227   2
   2   6   3 161.992 1.92767   2
   3   6   3 202.834 2.47543   2
   4   6   3 242.029 2.58439   2
   5   6   3 120.798 2.00118   2
   7   6   3 120.194 2.73015   2
   8   6   3 27.3642 1.64966   2
   9   6   3 69.0606 2.48724   2
  10   6   3 21.0674 2.87428   2
  11   6   3 10.0347 2.89628   2
  12   6   3 4.92993 3.23290   2
 -16   7   3 9.60998 3.31661  -1
 -16   5   3 9.60998 3.31661   2
 -15   7   3 -1.1896 1.10984   2
 -15   7   3 10.1818 4.10397  -1
 -15   5   3 10.1818 4.10397   2
 -14   7   3 -0.6643 0.96453   2
 -13   7   3 0.23059 0.88567   2
 -13   7   3 5.50206 2.44780  -1
 -13   6   3 5.50206 2.44780   2
 -12   7   3 34.3788 3.34158  -1
 -12   6   3 34.3788 3.34158   2
 -11   7   3 31.0437 1.27160   2
 -11   7   3 29.7566 3.37213  -1
 -11   6   3 29.7566 3.37213   2
 -10   7   3 35.0480 1.42463   2
 -10   7   3 38.8782 2.92740  -1
 -10   6   3 38.8782 2.92740   2
  -9   7   3 13.6881 0.79382   2
  -9   7   3 -0.3864 3.32642  -1
  -9   6   3 -0.3864 3.32642   2
  -8   7   3 55.3116 1.26963   2
  -7   7   3 74.1655 1.37224   2
  -5   7   3 140.858 4.92116  -1
  -6   7   3 140.858 4.92116   2
  -4   7   3 157.136 5.00390  -1
  -5   7   3 157.136 5.00390   2
  -3   7   3 49.9099 0.90473   2
  -3   7   3 16.9668 3.35696  -1
  -4   7   3 16.9668 3.35696   2
  -2   7   3 91.7879 1.16032   2
  -1   7   3 352.144 2.32550   2
   0   7   3 69.0395 1.02913   2
   1   7   3 126.758 1.62542   2
   2   7   3 15.4960 0.80923   2
   3   7   3 155.091 2.23883   2
   4   7   3 187.342 3.28539   2
   5   7   3 48.4251 2.02574   2
   6   7   3 58.4394 2.14170   2
   7   7   3 48.7651 2.11036   2
   8   7   3 28.4902 2.10248   2
   9   7   3 20.9195 2.66254   2
  10   7   3 5.27706 2.37905   2
  11   7   3 5.18542 3.06681   2
 -16   8   3 29.0479 5.26376  -1
 -16   6   3 29.0479 5.26376   2
 -16   8   3 0.56978 1.78512   2
 -12   8   3 2.93863 3.58789  -1
 -12   7   3 2.93863 3.58789   2
  -9   8   3 8.60569 0.79309   2
  -8   8   3 -1.0915 0.64174   2
  -6   8   3 18.6049 2.35922  -1
  -7   8   3 18.6049 2.35922   2
  -5   8   3 125.310 3.05847  -1
  -6   8   3 125.310 3.05847   2
  -4   8   3 89.6102 1.92841  -1
  -5   8   3 89.6102 1.92841   2
  -3   8   3 64.0643 5.80889  -1
  -4   8   3 64.0643 5.80889   2
  -2   8   3 10.5726 0.59393   2
  -2   8   3 124.048 7.22263  -1
  -3   8   3 124.048 7.22263   2
  -1   8   3 84.6598 1.23014   2
   0   8   3 71.2409 1.47486   2
   1   8   3 85.4030 2.25329   2
   2   8   3 63.6880 2.08805   2
   3   8   3 52.1969 2.04794   2
   4   8   3 31.1716 1.76065   2
   5   8   3 13.7597 1.34653   2
   6   8   3 78.2923 3.04404   2
   7   8   3 10.9320 1.77022   2
   8   8   3 48.6874 3.50028   2
   9   8   3 18.8222 6.55208   2
 -16   9   3 7.73490 6.42269  -1
 -16   7   3 7.73490 6.42269   2
 -14   9   3 4.81286 5.64715  -1
 -15   8   3 4.81286 5.64715   2
 -13   9   3 14.2534 4.65128  -1
 -14   8   3 14.2534 4.65128   2
 -12   9   3 -0.0813 3.72317  -1
 -13   8   3 -0.0813 3.72317   2
 -11   9   3 7.97667 2.73854  -1
 -12   8   3 7.97667 2.73854   2
 -10   9   3 51.2241 3.14595  -1
 -11   8   3 51.2241 3.14595   2
  -9   9   3 21.9775 1.13151   2
  -9   9   3 65.7230 4.73658  -1
 -10   8   3 65.7230 4.73658   2
  -7   9   3 23.1096 4.73151  -1
  -8   9   3 23.1096 4.73151   2
  -6   9   3 95.6358 3.08302  -1
  -7   9   3 95.6358 3.08302   2
  -5   9   3 156.779 3.90271  -1
  -6   9   3 156.779 3.90271   2
  -4   9   3 76.5037 1.75628  -1
  -5   9   3 76.5037 1.75628   2
  -3   9   3 89.8264 2.32925  -1
  -4   9   3 89.8264 2.32925   2
  -2   9   3 73.5498 1.50169   2
  -2   9   3 227.975 10.0388  -1
  -3   9   3 227.975 10.0388   2
  -1   9   3 68.3887 2.03475   2
   0   9   3 37.7990 3.13151   2
   1   9   3 0.01545 1.77482   2
   2   9   3 7.77346 2.22288   2
   3   9   3 27.2938 2.97075   2
   4   9   3 3.30619 2.06904   2
   5   9   3 48.3107 3.81009   2
   6   9   3 77.2244 4.49757   2
   7   9   3 10.1281 2.86011   2
   8   9   3 33.5557 7.06589   2
   9   9   3 12.0381 7.27158   2
 -15  10   3 -4.8838 7.21497  -1
 -16   9   3 -4.8838 7.21497   2
 -14  10   3 -0.9118 3.91536  -1
 -15   9   3 -0.9118 3.91536   2
 -13  10   3 -5.3115 3.16329  -1
 -14   9   3 -5.3115 3.16329   2
 -12  10   3 -5.4406 2.78686  -1
 -13   9   3 -5.4406 2.78686   2
 -11  10   3 4.37985 2.64269  -1
 -12   9   3 4.37985 2.64269   2
 -10  10   3 27.6681 2.72345  -1
 -11   9   3 27.6681 2.72345   2
  -9  10   3 -0.0538 0.81540   2
  -9  10   3 21.5455 4.39975  -1
 -10   9   3 21.5455 4.39975   2
  -8  10   3 -0.1341 0.79732   2
  -6  10   3 -0.4609 4.48721  -1
  -7  10   3 -0.4609 4.48721   2
  -5  10   3 9.05906 2.14829  -1
  -6  10   3 9.05906 2.14829   2
  -4  10   3 70.5717 3.22449  -1
  -5  10   3 70.5717 3.22449   2
  -3  10   3 115.259 2.95538  -1
  -4  10   3 115.259 2.95538   2
  -3  10   3 102.582 2.43297   2
  -2  10   3 22.5812 2.73484   2
  -1  10   3 4.21743 2.06990   2
   0  10   3 8.68157 2.29255   2
   1  10   3 3.56575 2.16647   2
   2  10   3 24.2922 3.00149   2
   3  10   3 14.2633 2.69410   2
   4  10   3 38.4249 3.77927   2
   5  10   3 82.0778 4.91619   2
   6  10   3 15.0067 3.12301   2
   7  10   3 15.9217 3.24631   2
   8  10   3 12.9471 6.93689   2
 -14  11   3 -0.3100 4.16799  -1
 -15  10   3 -0.3100 4.16799   2
 -13  11   3 -1.3400 3.34916  -1
 -14  10   3 -1.3400 3.34916   2
 -12  11   3 -3.6484 2.71826  -1
 -13  10   3 -3.6484 2.71826   2
 -11  11   3 1.53665 2.66507  -1
 -12  10   3 1.53665 2.66507   2
 -10  11   3 6.47154 2.58294  -1
 -11  10   3 6.47154 2.58294   2
  -9  11   3 25.3447 1.54138   2
  -9  11   3 -1.0383 4.32867  -1
 -10  10   3 -1.0383 4.32867   2
  -8  11   3 13.9843 1.32514   2
  -7  11   3 18.3008 1.38301   2
  -6  11   3 49.2565 2.70385   2
  -5  11   3 37.5830 2.43580   2
  -4  11   3 18.5789 2.80901   2
  -3  11   3 -1.8207 2.05866   2
  -2  11   3 0.90447 2.09534   2
  -1  11   3 25.2151 3.09522   2
   0  11   3 29.4114 3.28969   2
   1  11   3 30.4980 3.39629   2
   2  11   3 14.2766 3.06021   2
   3  11   3 5.44420 2.76605   2
   3  11   3 -3.2046 7.20957  -1
   2  12   2 -3.2046 7.20957   2
   4  11   3 6.44694 2.89515   2
   4  11   3 12.4114 7.05374  -1
   3  12   2 12.4114 7.05374   2
   5  11   3 1.07539 5.74206  -1
   4  12   2 1.07539 5.74206   2
   5  11   3 12.0733 3.37454   2
   6  11   3 4.26712 3.06544   2
   6  11   3 4.91948 6.37546  -1
   5  12   2 4.91948 6.37546   2
   7  11   3 19.6269 7.15527   2
   8  11   3 11.0667 7.64940   2
 -14  12   3 -3.6914 6.78771  -1
 -15  11   3 -3.6914 6.78771   2
 -13  12   3 5.12127 3.49538  -1
 -14  11   3 5.12127 3.49538   2
 -12  12   3 4.41280 2.80598  -1
 -13  11   3 4.41280 2.80598   2
 -11  12   3 0.74641 3.36873  -1
 -12  11   3 0.74641 3.36873   2
 -10  12   3 2.20134 3.41856  -1
 -11  11   3 2.20134 3.41856   2
 -10  12   3 3.07092 2.11413   2
  -9  12   3 3.92393 3.91936  -1
 -10  11   3 3.92393 3.91936   2
  -9  12   3 -0.3548 1.95295   2
  -8  12   3 11.3523 2.18941   2
  -7  12   3 3.97597 1.90439   2
  -6  12   3 13.0015 2.06503   2
  -5  12   3 9.65123 2.02571   2
  -4  12   3 35.6762 3.80961   2
  -3  12   3 10.1444 2.84060   2
  -2  12   3 39.8306 4.03046   2
  -1  12   3 52.5499 4.44372   2
   0  12   3 40.0720 3.97083   2
   1  12   3 25.2014 3.73686   2
   2  12   3 18.5502 9.47040  -1
   1  13   2 18.5502 9.47040   2
   3  12   3 -1.2797 6.51242  -1
   2  13   2 -1.2797 6.51242   2
   4  12   3 2.90890 6.34897  -1
   3  13   2 2.90890 6.34897   2
   5  12   3 -2.6088 6.70102  -1
   4  13   2 -2.6088 6.70102   2
   5  12   3 2.72740 3.52557   2
   6  12   3 2.48946 3.54911   2
   6  12   3 2.28342 7.31760  -1
   5  13   2 2.28342 7.31760   2
   7  12   3 -1.2861 7.27030   2
   8  12   3 -2.3386 7.91966   2
 -13  13   3 -1.9690 5.59740  -1
 -14  12   3 -1.9690 5.59740   2
 -12  13   3 9.53219 4.23989  -1
 -13  12   3 9.53219 4.23989   2
 -11  13   3 0.26416 3.34268   2
 -11  13   3 3.69717 3.60642  -1
 -12  12   3 3.69717 3.60642   2
 -10  13   3 0.82137 2.35990   2
 -10  13   3 3.77384 8.26058  -1
 -11  12   3 3.77384 8.26058   2
  -9  13   3 9.44191 2.47014   2
  -8  13   3 2.84388 2.22527   2
  -7  13   3 2.60347 2.09704   2
  -6  13   3 6.47979 2.26900   2
  -5  13   3 8.09543 2.30016   2
  -4  13   3 11.6538 3.28189   2
  -3  13   3 -1.8837 2.89088   2
  -2  13   3 -3.1608 3.03233   2
  -1  13   3 4.55757 3.31306   2
   0  13   3 7.70020 3.56076   2
   2  13   3 1.69234 10.6533  -1
   1  14   2 1.69234 10.6533   2
   3  13   3 9.34477 7.49422  -1
   2  14   2 9.34477 7.49422   2
   4  13   3 0.38279 7.27703  -1
   3  14   2 0.38279 7.27703   2
   5  13   3 5.28051 7.40692  -1
   4  14   2 5.28051 7.40692   2
   6  13   3 0.08752 8.12956  -1
   5  14   2 0.08752 8.12956   2
   6  13   3 4.46902 4.12522   2
   7  13   3 2.00911 8.26194   2
   7  13   3 5.73879 14.7417  -1
   6  14   2 5.73879 14.7417   2
 -13  14   3 -1.9565 10.4328  -1
 -14  13   3 -1.9565 10.4328   2
 -12  14   3 5.04571 3.99676   2
 -12  14   3 -3.0869 7.75344  -1
 -13  13   3 -3.0869 7.75344   2
 -11  14   3 2.64112 3.77169   2
 -11  14   3 -1.2590 7.13579  -1
 -12  13   3 -1.2590 7.13579   2
 -10  14   3 6.48321 2.75252   2
  -9  14   3 1.75587 2.56490   2
  -8  14   3 0.18172 2.50747   2
  -7  14   3 -0.7689 2.46280   2
  -6  14   3 2.56223 2.53986   2
  -5  14   3 2.34151 2.58787   2
  -4  14   3 8.06337 3.87111   2
  -3  14   3 0.52957 3.60748   2
  -2  14   3 1.95416 3.70253   2
  -1  14   3 0.94385 3.68024   2
   2  14   3 3.89609 8.63299  -1
   1  15   2 3.89609 8.63299   2
   3  14   3 5.63983 8.48575  -1
   2  15   2 5.63983 8.48575   2
   4  14   3 5.37681 8.32565  -1
   3  15   2 5.37681 8.32565   2
   5  14   3 -0.9489 8.21513  -1
   4  15   2 -0.9489 8.21513   2
 -12  15   3 4.11187 4.33276   2
 -12  15   3 -5.3435 11.3932  -1
 -13  14   3 -5.3435 11.3932   2
 -11  15   3 0.42032 4.04217   2
 -10  15   3 -1.2478 2.94220   2
  -9  15   3 0.02389 2.96253   2
  -8  15   3 -2.9497 2.85678   2
  -5  15   3 16.2240 7.87017  -1
  -6  15   2 16.2240 7.87017   2
  -4  15   3 2.70322 7.57988  -1
  -5  15   2 2.70322 7.57988   2
  -3  15   3 9.42002 7.88405  -1
  -4  15   2 9.42002 7.88405   2
  -3  15   3 -1.4317 4.09099   2
  -2  15   3 28.4812 8.68047  -1
  -3  15   2 28.4812 8.68047   2
  -2  15   3 0.07730 4.09005   2
  -1  15   3 2.11753 4.26519   2
   2  15   3 5.40298 9.83713  -1
   1  16   2 5.40298 9.83713   2
   3  15   3 10.1666 9.62791  -1
   2  16   2 10.1666 9.62791   2
   4  15   3 3.69990 9.50494  -1
   3  16   2 3.69990 9.50494   2
 -11  16   3 0.46272 7.52591   2
 -10  16   3 -0.4643 3.38807   2
  -9  16   3 0.63866 3.35636   2
  -8  16   3 5.25310 3.41556   2
  -6  16   3 21.9314 9.16648  -1
  -7  16   2 21.9314 9.16648   2
  -5  16   3 5.46099 8.84315  -1
  -6  16   2 5.46099 8.84315   2
  -4  16   3 -2.5602 6.37759  -1
  -5  16   2 -2.5602 6.37759   2
  -3  16   3 5.81501 9.00943  -1
  -4  16   2 5.81501 9.00943   2
  -3  16   3 -0.8022 4.60265   2
  -2  16   3 2.17751 4.69100   2
  -2  16   3 36.0670 10.0211  -1
  -3  16   2 36.0670 10.0211   2
  -1  16   3 -0.3299 4.68233   2
   2  16   3 -1.4176 16.1459  -1
   1  17   2 -1.4176 16.1459   2
  -9  17   3 1.94204 8.28607   2
  -6  17   3 19.7932 10.3537  -1
  -7  17   2 19.7932 10.3537   2
  -5  17   3 8.93494 7.41225  -1
  -6  17   2 8.93494 7.41225   2
  -4  17   3 -4.7085 7.17616  -1
  -5  17   2 -4.7085 7.17616   2
  -3  17   3 3.00715 10.3123  -1
  -4  17   2 3.00715 10.3123   2
  -3  17   3 -0.7899 5.05721   2
  -2  17   3 -2.4856 5.02827   2
  -2  17   3 12.4147 15.5035  -1
  -3  17   2 12.4147 15.5035   2
  -1  17   3 -1.0981 5.26535   2
  -2 -17   4 2.43724 15.3082  -1
  -1 -17   5 2.43724 15.3082   2
  -2 -17   4 12.3626 5.34682   2
  -1 -17   4 -6.9254 10.3564  -1
   0 -17   5 -6.9254 10.3564   2
   0 -17   4 2.88899 9.90080  -1
   1 -17   5 2.88899 9.90080   2
   1 -17   4 -1.7624 14.1582  -1
   2 -17   5 -1.7624 14.1582   2
   4 -17   4 0.50858 3.65779   2
   5 -17   4 4.08169 3.87668   2
   6 -17   4 0.36510 17.8587  -1
   7 -16   5 0.36510 17.8587   2
   6 -17   4 0.21374 3.85870   2
  -4 -16   4 5.94371 4.56718   2
  -3 -16   4 0.16349 14.2402  -1
  -2 -16   5 0.16349 14.2402   2
  -3 -16   4 12.7108 4.80983   2
  -2 -16   4 1.72546 9.23135  -1
  -1 -16   5 1.72546 9.23135   2
  -1 -16   4 3.90534 9.05490  -1
   0 -16   5 3.90534 9.05490   2
   0 -16   4 -2.4732 9.03167  -1
   1 -16   5 -2.4732 9.03167   2
   1 -16   4 -0.7395 9.43970  -1
   2 -16   5 -0.7395 9.43970   2
   4 -16   4 2.66588 3.35549   2
   5 -16   4 1.70814 3.42593   2
   6 -16   4 4.55160 3.65503   2
   7 -16   4 10.7387 3.77009   2
  -4 -15   4 11.4917 4.29523   2
  -3 -15   4 19.2882 4.50475   2
  -3 -15   4 9.43624 8.82417  -1
  -2 -15   5 9.43624 8.82417   2
  -2 -15   4 11.6830 8.44403  -1
  -1 -15   5 11.6830 8.44403   2
  -1 -15   4 1.42160 8.10765  -1
   0 -15   5 1.42160 8.10765   2
   0 -15   4 -0.7318 8.32012  -1
   1 -15   5 -0.7318 8.32012   2
   1 -15   4 -2.3942 12.8157  -1
   2 -15   5 -2.3942 12.8157   2
   3 -15   4 13.4013 4.33037   2
   4 -15   4 9.01876 3.20245   2
   5 -15   4 14.0271 3.29876   2
   6 -15   4 12.3010 3.37491   2
   7 -15   4 13.0107 3.52588   2
   8 -15   4 2.95802 3.23733   2
   9 -15   4 8.22065 3.58767   2
   9 -15   4 2.43461 11.3481  -1
  10 -14   4 2.43461 11.3481   2
  10 -15   4 4.87076 4.64636   2
  -4 -14   4 8.90862 11.9771  -1
  -3 -14   5 8.90862 11.9771   2
  -4 -14   4 13.4704 3.84176   2
  -3 -14   4 15.8833 3.89404   2
  -3 -14   4 20.8285 7.61438  -1
  -2 -14   5 20.8285 7.61438   2
  -2 -14   4 15.3548 7.13523  -1
  -1 -14   5 15.3548 7.13523   2
  -1 -14   4 5.63615 7.23970  -1
   0 -14   5 5.63615 7.23970   2
   0 -14   4 -3.5252 4.54523  -1
   1 -14   5 -3.5252 4.54523   2
   3 -14   4 72.3694 5.82951   2
   4 -14   4 57.9945 3.77805   2
   5 -14   4 34.3741 3.37151   2
   6 -14   4 19.1004 3.16836   2
   7 -14   4 9.59571 2.94969   2
   8 -14   4 4.24583 2.88252   2
   8 -14   4 31.2303 8.46010  -1
   9 -13   4 31.2303 8.46010   2
   9 -14   4 11.3698 3.18420   2
   9 -14   4 18.3973 5.98606  -1
  10 -13   4 18.3973 5.98606   2
  10 -14   4 20.7789 15.1760  -1
  11 -13   4 20.7789 15.1760   2
  11 -14   4 7.15198 5.17458   2
  -9 -13   4 -0.8598 10.1841  -1
  -8 -14   5 -0.8598 10.1841   2
  -8 -13   4 -5.0053 10.7150  -1
  -7 -14   5 -5.0053 10.7150   2
  -5 -13   4 25.7327 3.70471   2
  -4 -13   4 13.3325 3.33322   2
  -3 -13   4 21.8633 3.58355   2
  -3 -13   4 11.7856 8.79250  -1
  -2 -13   5 11.7856 8.79250   2
  -2 -13   4 51.2114 4.62867   2
  -2 -13   4 -6.3324 4.13943  -1
  -1 -13   5 -6.3324 4.13943   2
  -1 -13   4 35.4597 2.68512   2
  -1 -13   4 1.81677 4.55077  -1
   0 -13   5 1.81677 4.55077   2
   2 -13   4 30.2669 2.45798   2
   3 -13   4 25.1816 3.90937   2
   4 -13   4 2.32652 2.29330   2
   5 -13   4 15.0527 2.62493   2
   6 -13   4 21.2454 6.43267  -1
   7 -12   4 21.2454 6.43267   2
   6 -13   4 7.66536 2.55973   2
   7 -13   4 10.9530 2.67076   2
   7 -13   4 29.8145 6.45232  -1
   8 -12   4 29.8145 6.45232   2
   8 -13   4 13.9069 2.74708   2
   8 -13   4 24.1073 4.88220  -1
   9 -12   4 24.1073 4.88220   2
   9 -13   4 48.1502 5.69793  -1
  10 -12   4 48.1502 5.69793   2
  10 -13   4 34.3232 9.10034  -1
  11 -12   4 34.3232 9.10034   2
  -9 -12   4 5.66013 9.58415  -1
  -8 -13   5 5.66013 9.58415   2
  -8 -12   4 27.0750 10.4033  -1
  -7 -13   5 27.0750 10.4033   2
  -5 -12   4 7.92025 2.81880   2
  -4 -12   4 2.21784 2.61651   2
  -3 -12   4 31.0727 3.51869   2
  -2 -12   4 70.5107 3.21290   2
  -1 -12   4 65.8364 3.07594   2
   0 -12   4 33.3285 2.54446   2
   1 -12   4 9.65409 1.69178   2
   2 -12   4 22.6216 2.09044   2
   3 -12   4 78.9405 3.08825   2
   4 -12   4 17.7469 2.25198   2
   5 -12   4 42.3733 2.78139   2
   5 -12   4 18.6706 4.78917  -1
   6 -11   4 18.6706 4.78917   2
   6 -12   4 16.9901 2.41000   2
   6 -12   4 37.0860 5.11396  -1
   7 -11   4 37.0860 5.11396   2
   7 -12   4 97.4605 5.05949  -1
   8 -11   4 97.4605 5.05949   2
   8 -12   4 82.0609 5.01244  -1
   9 -11   4 82.0609 5.01244   2
   9 -12   4 82.7162 5.39769  -1
  10 -11   4 82.7162 5.39769   2
 -11 -11   4 5.19506 3.26863   2
  -9 -11   4 5.39705 8.89366  -1
  -8 -12   5 5.39705 8.89366   2
  -7 -11   4 1.73213 6.44948  -1
  -6 -12   5 1.73213 6.44948   2
  -4 -11   4 0.28170 1.16439   2
  -3 -11   4 25.7191 2.17169   2
  -2 -11   4 24.2853 2.13634   2
  -1 -11   4 23.6028 2.08172   2
   0 -11   4 29.6224 2.13388   2
   1 -11   4 25.8747 2.06035   2
   2 -11   4 28.5669 2.07490   2
   3 -11   4 79.8409 2.93091   2
   4 -11   4 46.5872 2.11293   2
   5 -11   4 26.1726 4.28385  -1
   6 -10   4 26.1726 4.28385   2
   5 -11   4 26.3715 2.17404   2
   6 -11   4 27.5694 3.23603  -1
   7 -10   4 27.5694 3.23603   2
   7 -11   4 65.4234 4.12115  -1
   8 -10   4 65.4234 4.12115   2
   8 -11   4 77.4863 4.16006  -1
   9 -10   4 77.4863 4.16006   2
   9 -11   4 56.8349 4.23224  -1
  10 -10   4 56.8349 4.23224   2
  11 -11   4 13.4642 4.44602   2
  12 -11   4 8.06847 6.57094   2
 -12 -10   4 8.00124 7.22915  -1
 -11 -11   5 8.00124 7.22915   2
 -10 -10   4 5.66246 4.04380  -1
  -9 -11   5 5.66246 4.04380   2
  -9 -10   4 22.8491 3.67869  -1
  -8 -11   5 22.8491 3.67869   2
  -8 -10   4 16.9021 2.02836   2
  -8 -10   4 18.9076 4.63090  -1
  -7 -11   5 18.9076 4.63090   2
  -7 -10   4 5.82639 4.74318  -1
  -6 -11   5 5.82639 4.74318   2
  -7 -10   4 7.35022 1.72293   2
  -6 -10   4 0.28692 1.24135   2
  -6 -10   4 -1.2220 4.46724  -1
  -5 -11   5 -1.2220 4.46724   2
  -5 -10   4 0.54270 0.83341   2
  -4 -10   4 24.9571 1.34938   2
  -3 -10   4 45.2782 1.68423   2
  -2 -10   4 34.5465 1.88474   2
  -1 -10   4 53.2563 2.07468   2
   0 -10   4 95.1686 3.02560   2
   1 -10   4 147.357 3.62524   2
   2 -10   4 62.8694 2.57122   2
   3 -10   4 25.3838 1.88733   2
   4 -10   4 77.2938 2.25526   2
   5 -10   4 35.1250 2.46428   2
   5 -10   4 32.5037 3.63466  -1
   6  -9   4 32.5037 3.63466   2
   6 -10   4 22.1695 2.96555  -1
   7  -9   4 22.1695 2.96555   2
   7 -10   4 23.0074 3.13100  -1
   8  -9   4 23.0074 3.13100   2
   8 -10   4 73.3577 3.93174  -1
   9  -9   4 73.3577 3.93174   2
   9 -10   4 62.6249 5.81464  -1
  10  -9   4 62.6249 5.81464   2
  11 -10   4 11.7209 3.44231   2
  12 -10   4 2.44717 5.82322   2
 -12  -9   4 -0.3766 6.20468  -1
 -11 -10   5 -0.3766 6.20468   2
 -12  -9   4 2.50180 2.79428   2
 -11  -9   4 3.16279 4.74338  -1
 -10 -10   5 3.16279 4.74338   2
 -10  -9   4 8.96612 4.07577  -1
  -9 -10   5 8.96612 4.07577   2
 -10  -9   4 0.34498 1.89549   2
  -9  -9   4 8.13590 2.01347   2
  -8  -9   4 11.8244 1.73770   2
  -7  -9   4 16.1951 1.79429   2
  -7  -9   4 11.0680 4.55242  -1
  -6 -10   5 11.0680 4.55242   2
  -6  -9   4 -0.0500 0.99802   2
  -5  -9   4 18.3155 1.15514   2
  -4  -9   4 45.1695 1.61851   2
  -3  -9   4 6.38554 0.80457   2
  -3  -9   4 19.6570 4.28812  -1
  -2  -9   4 19.6570 4.28812   2
  -2  -9   4 57.8366 6.37239  -1
  -1  -9   4 57.8366 6.37239   2
  -1  -9   4 115.537 4.10688  -1
   0  -9   4 115.537 4.10688   2
   1  -9   4 153.055 2.46856   2
   2  -9   4 96.2287 2.30097   2
   3  -9   4 14.1383 1.64625   2
   4  -9   4 72.6945 2.29244   2
   5  -9   4 29.1219 2.79053  -1
   6  -8   4 29.1219 2.79053   2
   5  -9   4 63.1765 2.95899   2
   6  -9   4 20.1479 2.11253  -1
   7  -8   4 20.1479 2.11253   2
   7  -9   4 16.5155 2.08892  -1
   8  -8   4 16.5155 2.08892   2
   8  -9   4 69.2814 4.26207  -1
   9  -8   4 69.2814 4.26207   2
   9  -9   4 40.5956 5.48876  -1
  10  -8   4 40.5956 5.48876   2
  11  -9   4 -1.6738 5.33625   2
  12  -9   4 -0.5451 5.89184   2
 -13  -8   4 -0.0045 2.86996   2
 -12  -8   4 0.94777 2.35460   2
 -11  -8   4 4.38059 2.04088   2
 -10  -8   4 4.34187 1.82176   2
  -9  -8   4 11.3294 1.16096   2
  -8  -8   4 3.12843 0.86866   2
  -7  -8   4 27.9921 1.11562   2
  -6  -8   4 0.90995 0.65654   2
  -5  -8   4 25.9543 0.92127   2
  -4  -8   4 2.27911 0.59363   2
  -3  -8   4 2.45798 0.57341   2
  -3  -8   4 5.47697 3.09179  -1
  -2  -8   4 5.47697 3.09179   2
  -2  -8   4 95.5922 2.18842  -1
  -1  -8   4 95.5922 2.18842   2
  -1  -8   4 208.011 2.66748  -1
   0  -8   4 208.011 2.66748   2
   0  -8   4 156.967 2.57043  -1
   1  -8   4 156.967 2.57043   2
   1  -8   4 138.972 5.41755  -1
   2  -8   4 138.972 5.41755   2
   3  -8   4 56.8389 1.77244   2
   4  -8   4 98.6106 2.22526   2
   4  -8   4 43.5289 4.64408  -1
   5  -7   4 43.5289 4.64408   2
   5  -8   4 70.1299 2.36801   2
   5  -8   4 46.9731 3.34852  -1
   6  -7   4 46.9731 3.34852   2
   6  -8   4 23.4959 2.73974  -1
   7  -7   4 23.4959 2.73974   2
   7  -8   4 18.3491 2.83675  -1
   8  -7   4 18.3491 2.83675   2
   8  -8   4 31.4996 3.44623  -1
   9  -7   4 31.4996 3.44623   2
   9  -8   4 11.3749 3.34672  -1
  10  -7   4 11.3749 3.34672   2
  11  -8   4 6.58184 2.35897   2
  12  -8   4 -1.3104 5.47066   2
  13  -8   4 43.8720 6.82158  -1
  13  -6   4 43.8720 6.82158   2
  14  -8   4 19.1285 8.02460  -1
  14  -6   4 19.1285 8.02460   2
 -14  -7   4 8.40641 7.59141  -1
 -13  -9   5 8.40641 7.59141   2
 -14  -7   4 1.67751 2.96387   2
 -13  -7   4 -1.2580 2.47309   2
 -12  -7   4 0.56762 0.93444   2
 -11  -7   4 -0.0029 0.89290   2
 -10  -7   4 9.02600 1.06757   2
  -9  -7   4 3.27865 0.85269   2
  -8  -7   4 0.53475 0.65849   2
  -7  -7   4 16.5780 0.84715   2
  -6  -7   4 2.09557 0.62468   2
  -5  -7   4 25.7368 0.88617   2
  -4  -7   4 72.1938 4.26171  -1
  -3  -7   4 72.1938 4.26171   2
  -4  -7   4 2.04531 0.52058   2
  -3  -7   4 189.549 3.60075  -1
  -2  -7   4 189.549 3.60075   2
  -2  -7   4 55.0313 2.00336  -1
  -1  -7   4 55.0313 2.00336   2
  -1  -7   4 275.715 4.33166  -1
   0  -7   4 275.715 4.33166   2
   0  -7   4 60.5523 2.70443  -1
   1  -7   4 60.5523 2.70443   2
   1  -7   4 17.0892 3.23389  -1
   2  -7   4 17.0892 3.23389   2
   3  -7   4 6.08682 0.57305   2
   4  -7   4 147.324 1.99903   2
  11  -7   4 3.92826 2.01984   2
  12  -7   4 9.96817 2.49125   2
  13  -7   4 50.4666 4.83415   2
  13  -7   4 2.83899 5.85950  -1
  13  -5   4 2.83899 5.85950   2
  14  -7   4 10.2833 7.22249  -1
  14  -5   4 10.2833 7.22249   2
  14  -7   4 24.1816 3.85964   2
 -14  -6   4 -0.9819 1.05725   2
 -13  -6   4 0.48285 0.85819   2
 -12  -6   4 0.71861 0.74932   2
 -11  -6   4 2.69115 0.76393   2
 -10  -6   4 5.37969 0.76442   2
  -9  -6   4 -0.5222 0.70999   2
  -8  -6   4 4.85018 0.68439   2
  -7  -6   4 -0.1431 0.54242   2
  -6  -6   4 24.7257 0.92483   2
  -5  -6   4 73.2180 1.16230   2
  -4  -6   4 46.6720 0.96681   2
  -3  -6   4 25.1202 1.71485  -1
  -2  -6   4 25.1202 1.71485   2
  -3  -6   4 48.1994 1.05559   2
  -2  -6   4 8.75738 1.44666  -1
  -1  -6   4 8.75738 1.44666   2
  -1  -6   4 34.9247 3.05975  -1
   0  -6   4 34.9247 3.05975   2
   1  -6   4 1.31250 0.42542   2
   2  -6   4 0.75462 0.40954   2
   3  -6   4 27.7642 0.94045   2
   4  -6   4 475.757 4.03179   2
   5  -6   4 126.563 2.02222   2
   5  -6   4 124.036 3.60883  -1
   5  -5   4 124.036 3.60883   2
   6  -6   4 129.323 1.94231   2
   6  -6   4 108.258 2.38246  -1
   6  -5   4 108.258 2.38246   2
   7  -6   4 62.9236 2.34909  -1
   7  -5   4 62.9236 2.34909   2
   7  -6   4 25.8108 1.35477   2
   8  -6   4 6.88949 1.18605   2
   8  -6   4 11.3071 3.16849  -1
   8  -5   4 11.3071 3.16849   2
   9  -6   4 11.7267 1.38832   2
   9  -6   4 34.8353 5.34346  -1
   9  -5   4 34.8353 5.34346   2
  10  -6   4 3.11336 1.29232   2
  11  -6   4 26.4083 2.09496   2
  11  -6   4 69.0386 5.02177  -1
  11  -5   4 69.0386 5.02177   2
  12  -6   4 30.0177 4.62834  -1
  12  -5   4 30.0177 4.62834   2
  13  -6   4 -2.4586 5.67414  -1
  13  -4   4 -2.4586 5.67414   2
  14  -6   4 -4.9031 6.98057  -1
  14  -4   4 -4.9031 6.98057   2
 -15  -5   4 0.82211 1.26845   2
 -15  -5   4 7.82858 4.95516  -1
 -14  -7   5 7.82858 4.95516   2
 -14  -5   4 0.54614 0.91932   2
 -13  -5   4 0.08302 0.74924   2
 -12  -5   4 0.46743 0.70623   2
 -11  -5   4 5.68484 0.71491   2
 -10  -5   4 -0.6924 0.59839   2
  -8  -5   4 5.27728 0.56450   2
  -7  -5   4 12.0421 0.65886   2
  -6  -5   4 26.0655 0.89794   2
  -5  -5   4 7.13932 0.49410   2
  -4  -5   4 17.9945 0.61219   2
  -3  -5   4 32.9911 0.95075   2
  -2  -5   4 12.7654 0.55705   2
  -1  -5   4 122.446 1.30143   2
   0  -5   4 1.28323 0.37346   2
   1  -5   4 12.6344 0.50368   2
   2  -5   4 283.167 2.11481   2
   3  -5   4 422.373 3.05545   2
   4  -5   4 293.873 2.76848   2
   4  -5   4 17.5958 1.62878  -1
   4  -4   4 17.5958 1.62878   2
   5  -5   4 78.2478 2.17690  -1
   5  -4   4 78.2478 2.17690   2
   6  -5   4 98.0977 2.02549  -1
   6  -4   4 98.0977 2.02549   2
   7  -5   4 141.952 2.91066  -1
   7  -4   4 141.952 2.91066   2
   8  -5   4 17.7994 2.76383  -1
   8  -4   4 17.7994 2.76383   2
   9  -5   4 8.06019 3.10378  -1
   9  -4   4 8.06019 3.10378   2
  10  -5   4 25.3067 1.94987   2
  10  -5   4 17.1283 4.14704  -1
  10  -4   4 17.1283 4.14704   2
  11  -5   4 50.2849 4.79754  -1
  11  -4   4 50.2849 4.79754   2
  12  -5   4 8.60867 3.90155  -1
  12  -4   4 8.60867 3.90155   2
  12  -5   4 -0.4994 4.40319  -1
  12  -3   4 -0.4994 4.40319   2
  13  -5   4 0.19017 4.11874  -1
  13  -4   4 0.19017 4.11874   2
  13  -5   4 3.44499 5.65583  -1
  13  -3   4 3.44499 5.65583   2
  14  -5   4 -2.6654 6.91973  -1
  14  -3   4 -2.6654 6.91973   2
 -15  -4   4 2.03942 1.11565   2
 -14  -4   4 1.04089 0.81809   2
 -13  -4   4 0.82558 0.69990   2
 -12  -4   4 2.60467 0.67094   2
 -10  -4   4 4.68646 0.60156   2
 -10  -4   4 -3.2795 2.86210  -1
  -9  -5   4 -3.2795 2.86210   2
  -9  -4   4 2.21902 0.50797   2
  -8  -4   4 2.31879 0.46328   2
  -7  -4   4 0.14139 0.39354   2
  -6  -4   4 6.39814 0.48935   2
  -5  -4   4 7.89071 0.42470   2
  -4  -4   4 20.0684 0.66167   2
  -3  -4   4 8.69858 0.52579   2
  -2  -4   4 3.99386 0.40456   2
  -1  -4   4 133.069 1.40200   2
   0  -4   4 1.49555 0.33973   2
   1  -4   4 33.3823 0.75847   2
   2  -4   4 418.546 2.75771   2
   3  -4   4 279.247 2.19687   2
   3  -4   4 26.0026 2.65217  -1
   3  -3   4 26.0026 2.65217   2
   4  -4   4 4.25389 1.70369  -1
   4  -3   4 4.25389 1.70369   2
   5  -4   4 91.7679 2.02592  -1
   5  -3   4 91.7679 2.02592   2
   6  -4   4 11.1753 1.63566  -1
   6  -3   4 11.1753 1.63566   2
   7  -4   4 21.3277 2.30076  -1
   7  -3   4 21.3277 2.30076   2
   8  -4   4 21.3779 2.71666  -1
   8  -3   4 21.3779 2.71666   2
   9  -4   4 4.27742 3.48822  -1
   9  -3   4 4.27742 3.48822   2
  10  -4   4 40.6308 4.47780  -1
  10  -3   4 40.6308 4.47780   2
  11  -4   4 51.0456 7.49532  -1
  11  -2   4 51.0456 7.49532   2
  11  -4   4 33.3238 4.43241  -1
  11  -3   4 33.3238 4.43241   2
  12  -4   4 -4.1979 4.64016  -1
  12  -2   4 -4.1979 4.64016   2
  12  -4   4 -0.8874 3.90018  -1
  12  -3   4 -0.8874 3.90018   2
  13  -4   4 2.73133 4.17486  -1
  13  -3   4 2.73133 4.17486   2
  13  -4   4 5.31846 5.67165  -1
  13  -2   4 5.31846 5.67165   2
  14  -4   4 2.66293 4.90661  -1
  14  -2   4 2.66293 4.90661   2
 -15  -3   4 3.73031 1.39283   2
 -14  -3   4 3.65755 0.85261   2
 -13  -3   4 9.82882 0.73782   2
 -12  -3   4 2.66726 0.56162   2
 -12  -3   4 14.9266 2.88692  -1
 -12  -4   5 14.9266 2.88692   2
 -11  -3   4 1.27297 0.50507   2
 -10  -3   4 11.5232 0.63422   2
  -9  -3   4 11.7376 0.54212   2
  -8  -3   4 10.8006 0.48618   2
  -7  -3   4 -0.1273 0.34390   2
  -6  -3   4 -1.2295 0.33441   2
  -5  -3   4 0.32190 0.28019   2
  -4  -3   4 86.0656 1.02375   2
  -3  -3   4 247.426 5.19181  -1
  -3  -3   4 247.426 5.19181   2
  -2  -3   4 98.7495 3.29507  -1
  -2  -3   4 98.7495 3.29507   2
  -1  -3   4 9.65746 0.44862   2
   0  -3   4 159.030 1.35485   2
   1  -3   4 172.496 1.45092   2
   2  -3   4 147.012 1.28748   2
   3  -3   4 32.6124 2.93631  -1
   3  -2   4 32.6124 2.93631   2
   4  -3   4 29.2331 2.99081  -1
   4  -2   4 29.2331 2.99081   2
   5  -3   4 16.2258 1.44562  -1
   5  -2   4 16.2258 1.44562   2
   6  -3   4 19.0387 1.49959  -1
   6  -2   4 19.0387 1.49959   2
   7  -3   4 34.7386 1.82164  -1
   7  -2   4 34.7386 1.82164   2
   8  -3   4 141.712 4.45705  -1
   8  -2   4 141.712 4.45705   2
   9  -3   4 -1.7651 5.68849  -1
   9  -2   4 -1.7651 5.68849   2
  11  -3   4 7.07088 4.63144  -1
  11  -1   4 7.07088 4.63144   2
  11  -3   4 20.4153 4.17255  -1
  11  -2   4 20.4153 4.17255   2
  12  -3   4 4.87523 4.81611  -1
  12  -1   4 4.87523 4.81611   2
  12  -3   4 -0.9303 3.91853  -1
  12  -2   4 -0.9303 3.91853   2
  13  -3   4 12.4021 5.94523  -1
  13  -1   4 12.4021 5.94523   2
 -14  -2   4 2.70480 1.00724   2
 -12  -2   4 4.05129 1.46181   2
 -11  -2   4 21.3143 2.43486  -1
 -11  -3   5 21.3143 2.43486   2
 -11  -2   4 3.64476 1.95085   2
 -10  -2   4 12.5840 2.19111   2
  -9  -2   4 24.4862 2.46012   2
  -8  -2   4 24.3438 1.18566   2
  -7  -2   4 11.0063 0.47114   2
  -6  -2   4 0.46018 0.32538   2
  -5  -2   4 3.35200 0.33518   2
  -4  -2   4 23.4535 1.54706  -1
  -4  -2   4 23.4535 1.54706   2
  -3  -2   4 110.131 2.13231  -1
  -3  -2   4 110.131 2.13231   2
  -2  -2   4 323.964 4.41387  -1
  -2  -2   4 323.964 4.41387   2
  -1  -2   4 100.851 3.19786  -1
  -1  -2   4 100.851 3.19786   2
   0  -2   4 179.806 1.42767   2
   1  -2   4 197.238 1.40025   2
   2  -2   4 2.75431 0.34747   2
   3  -2   4 6.59235 2.54746  -1
   3  -1   4 6.59235 2.54746   2
   4  -2   4 26.5377 1.74780  -1
   4  -1   4 26.5377 1.74780   2
   5  -2   4 12.0180 1.29016  -1
   5  -1   4 12.0180 1.29016   2
   6  -2   4 57.3203 1.85508  -1
   6  -1   4 57.3203 1.85508   2
   7  -2   4 24.2408 2.36822  -1
   7  -1   4 24.2408 2.36822   2
   8  -2   4 14.7684 4.69559  -1
   8  -1   4 14.7684 4.69559   2
  10  -2   4 69.2076 2.81089   2
  11  -2   4 4.99508 4.71932  -1
  11   0   4 4.99508 4.71932   2
  12  -2   4 -1.5789 5.01380  -1
  12   0   4 -1.5789 5.01380   2
 -12  -1   4 21.0270 1.86062   2
 -11  -1   4 96.9597 3.19208   2
 -10  -1   4 79.7101 3.87213   2
  -9  -1   4 46.7965 3.08743   2
  -8  -1   4 8.37123 1.67746   2
  -7  -1   4 33.6678 2.45650   2
  -6  -1   4 2.63574 1.25806   2
  -5  -1   4 3.70678 1.47604  -1
  -5  -1   4 3.70678 1.47604   2
  -4  -1   4 23.4960 1.35793  -1
  -4  -1   4 23.4960 1.35793   2
  -3  -1   4 125.575 1.57578  -1
  -3  -1   4 125.575 1.57578   2
  -2  -1   4 9.67189 1.01733  -1
  -2  -1   4 9.67189 1.01733   2
  -1  -1   4 1004.14 12.0024  -1
  -1  -1   4 1004.14 12.0024   2
   0  -1   4 15.4498 0.45371   2
   1  -1   4 6.05858 0.37152   2
   2  -1   4 111.016 1.11175   2
   4  -1   4 13.8938 1.47141  -1
   4   0   4 13.8938 1.47141   2
   5  -1   4 37.8453 1.40901  -1
   5   0   4 37.8453 1.40901   2
   6  -1   4 71.9175 1.89924  -1
   6   0   4 71.9175 1.89924   2
   7  -1   4 -2.4133 3.87764  -1
   7   0   4 -2.4133 3.87764   2
   9  -1   4 13.2215 1.13351   2
  10  -1   4 13.0225 1.64910   2
 -13   0   4 7.02019 2.37488   2
 -12   0   4 34.5337 2.33559   2
 -11   0   4 9.43734 1.43834   2
 -10   0   4 35.5076 2.15225   2
  -9   0   4 81.8334 2.59726   2
  -8   0   4 37.3944 2.47724   2
  -7   0   4 157.402 4.19896   2
  -6   0   4 29.1614 2.00402   2
  -5   0   4 99.2032 1.34912   2
  -4   0   4 7.11079 0.79849  -1
  -4   0   4 7.11079 0.79849   2
  -3   0   4 39.3892 0.83821  -1
  -3   0   4 39.3892 0.83821   2
  -2   0   4 385.998 3.76753  -1
  -2   0   4 385.998 3.76753   2
  -1   0   4 4.64237 1.35013  -1
  -1   0   4 4.64237 1.35013   2
   0   0   4 336.086 2.22926   2
   1   0   4 347.222 2.19441   2
   2   0   4 54.9855 0.86971   2
   3   0   4 108.581 1.29582   2
   4   0   4 31.8809 2.92302  -1
   4   1   4 31.8809 2.92302   2
   5   0   4 8.21835 1.79929  -1
   5   1   4 8.21835 1.79929   2
   8   0   4 -0.4201 0.69285   2
   9   0   4 16.7970 1.10240   2
  10   0   4 5.32273 1.19034   2
  12   0   4 13.8078 5.51596  -1
  12   2   3 13.8078 5.51596   2
  13   0   4 7.38468 6.39859  -1
  13   2   3 7.38468 6.39859   2
  13   0   4 4.46897 1.86953   2
  14   0   4 12.2213 8.24567  -1
  14   2   3 12.2213 8.24567   2
  14   0   4 2.36557 3.27259   2
 -13   1   4 17.4672 2.80030   2
 -12   1   4 32.2975 3.37275   2
  -8   1   4 5.72765 1.01428   2
  -7   1   4 -0.7616 0.74690   2
  -6   1   4 28.5940 2.49447  -1
  -6   1   4 28.5940 2.49447   2
  -5   1   4 96.2920 2.30874  -1
  -5   1   4 96.2920 2.30874   2
  -4   1   4 296.481 3.11466  -1
  -4   1   4 296.481 3.11466   2
  -3   1   4 -0.0328 0.57762  -1
  -3   1   4 -0.0328 0.57762   2
  -2   1   4 4.52598 0.82481  -1
  -2   1   4 4.52598 0.82481   2
  -1   1   4 89.7823 2.08286  -1
  -1   1   4 89.7823 2.08286   2
   0   1   4 30.1497 0.68809   2
   1   1   4 20.9774 0.55784   2
   2   1   4 58.0843 0.87787   2
   3   1   4 9.68661 0.58747   2
   3   1   4 -0.8889 2.66735  -1
   3   2   4 -0.8889 2.66735   2
   4   1   4 3.52613 2.00860  -1
   4   2   4 3.52613 2.00860   2
   6   1   4 8.71033 0.72340   2
   7   1   4 11.0791 0.86229   2
   8   1   4 5.55465 0.79769   2
   9   1   4 14.7450 1.35432   2
  10   1   4 4.77039 1.16856   2
  11   1   4 3.82261 1.29250   2
  11   1   4 12.4519 3.62517  -1
  11   3   3 12.4519 3.62517   2
  12   1   4 17.7901 2.01515   2
  12   1   4 9.53617 5.57063  -1
  12   3   3 9.53617 5.57063   2
  13   1   4 3.89325 6.90677  -1
  13   3   3 3.89325 6.90677   2
  13   1   4 4.05692 2.85631   2
 -16   2   4 -0.0828 1.64142   2
 -11   2   4 12.3085 3.36200  -1
 -11   1   4 12.3085 3.36200   2
 -10   2   4 33.7336 3.63312  -1
 -10   1   4 33.7336 3.63312   2
  -9   2   4 117.217 4.50697  -1
  -9   1   4 117.217 4.50697   2
  -7   2   4 122.387 1.39395   2
  -6   2   4 440.796 7.87321  -1
  -6   2   4 440.796 7.87321   2
  -5   2   4 113.936 2.02502  -1
  -5   2   4 113.936 2.02502   2
  -4   2   4 313.455 3.00393  -1
  -4   2   4 313.455 3.00393   2
  -3   2   4 147.854 1.26388  -1
  -3   2   4 147.854 1.26388   2
  -2   2   4 138.532 1.73055  -1
  -2   2   4 138.532 1.73055   2
  -1   2   4 198.377 1.55871   2
   0   2   4 37.1622 0.71015   2
   1   2   4 88.4937 0.95381   2
   2   2   4 0.60519 0.34062   2
   4   2   4 0.82741 2.69231  -1
   4   3   4 0.82741 2.69231   2
   5   2   4 0.44176 0.58106   2
   6   2   4 4.23114 0.60634   2
   7   2   4 0.10248 0.67944   2
   8   2   4 19.3066 1.13010   2
   9   2   4 -0.1860 0.99262   2
  10   2   4 -0.4657 1.07736   2
  11   2   4 17.9742 3.75445  -1
  11   4   3 17.9742 3.75445   2
  12   2   4 9.22964 5.85806  -1
  12   4   3 9.22964 5.85806   2
  13   2   4 2.09416 7.47693  -1
  13   4   3 2.09416 7.47693   2
 -16   3   4 9.09114 1.79790   2
 -15   3   4 23.3334 1.97759   2
 -14   3   4 16.6906 1.64204   2
 -13   3   4 24.3875 4.39514  -1
 -13   2   4 24.3875 4.39514   2
 -12   3   4 34.4092 4.26912  -1
 -12   2   4 34.4092 4.26912   2
 -11   3   4 37.5368 4.17775  -1
 -11   2   4 37.5368 4.17775   2
 -10   3   4 33.4668 2.43964  -1
 -10   2   4 33.4668 2.43964   2
  -9   3   4 55.7724 2.57746  -1
  -9   2   4 55.7724 2.57746   2
  -8   3   4 124.420 2.84051  -1
  -8   2   4 124.420 2.84051   2
  -7   3   4 110.841 1.03199   2
  -6   3   4 213.964 1.84710   2
  -5   3   4 42.2512 1.49493  -1
  -5   3   4 42.2512 1.49493   2
  -4   3   4 301.937 2.29279  -1
  -4   3   4 301.937 2.29279   2
  -3   3   4 304.787 2.91702  -1
  -3   3   4 304.787 2.91702   2
  -2   3   4 9.47769 2.24289  -1
  -2   3   4 9.47769 2.24289   2
  -1   3   4 66.7129 0.88886   2
   0   3   4 0.65543 0.30882   2
   1   3   4 99.2045 1.11750   2
   2   3   4 5.59514 0.42500   2
   3   3   4 0.27919 0.47481   2
   5   3   4 3.10961 0.65504   2
   6   3   4 -0.7295 0.55440   2
   7   3   4 3.44790 0.76052   2
   8   3   4 1.57796 0.90931   2
   9   3   4 4.07266 1.12077   2
  12   3   4 8.42025 6.50383  -1
  12   5   3 8.42025 6.50383   2
 -17   4   4 15.8991 2.41686   2
 -16   4   4 11.0494 1.43317   2
 -15   4   4 21.4956 1.20848   2
 -13   4   4 17.2658 4.89154  -1
 -13   3   4 17.2658 4.89154   2
 -12   4   4 37.8305 4.28927  -1
 -12   3   4 37.8305 4.28927   2
 -11   4   4 24.2145 1.49819  -1
 -11   3   4 24.2145 1.49819   2
 -10   4   4 62.5625 1.62661  -1
 -10   3   4 62.5625 1.62661   2
  -9   4   4 9.99169 0.99771  -1
  -9   3   4 9.99169 0.99771   2
  -8   4   4 309.766 4.37320  -1
  -8   3   4 309.766 4.37320   2
  -7   4   4 73.8179 1.00176   2
  -6   4   4 79.4881 3.18984  -1
  -6   4   4 79.4881 3.18984   2
  -5   4   4 323.349 3.82517  -1
  -5   4   4 323.349 3.82517   2
  -4   4   4 214.688 2.50155  -1
  -4   4   4 214.688 2.50155   2
  -3   4   4 359.356 5.01007  -1
  -3   4   4 359.356 5.01007   2
  -2   4   4 109.956 1.03609   2
  -1   4   4 26.5063 0.66155   2
   0   4   4 3.97375 0.35415   2
   1   4   4 1.72332 0.41529   2
   2   4   4 45.6155 0.93490   2
   3   4   4 72.5918 1.44212   2
   4   4   4 48.5215 1.22158   2
   5   4   4 16.9062 0.86131   2
   6   4   4 0.05364 0.57868   2
   7   4   4 0.01205 0.87742   2
   8   4   4 5.37467 1.03541   2
   9   4   4 1.12206 1.08461   2
 -17   5   4 8.34676 2.41428   2
 -15   5   4 42.5146 1.37345   2
 -14   5   4 22.9437 3.03835  -1
 -14   4   4 22.9437 3.03835   2
 -13   5   4 47.3356 1.32242  -1
 -13   4   4 47.3356 1.32242   2
 -12   5   4 68.8810 1.35577  -1
 -12   4   4 68.8810 1.35577   2
 -11   5   4 -0.0461 0.96091  -1
 -11   4   4 -0.0461 0.96091   2
 -10   5   4 103.982 1.86382  -1
 -10   4   4 103.982 1.86382   2
  -9   5   4 52.9108 1.55851  -1
  -9   4   4 52.9108 1.55851   2
  -8   5   4 144.384 4.16087  -1
  -8   4   4 144.384 4.16087   2
  -7   5   4 79.6602 1.19442   2
  -6   5   4 155.178 4.50300  -1
  -6   5   4 155.178 4.50300   2
  -5   5   4 575.578 6.27645  -1
  -5   5   4 575.578 6.27645   2
  -4   5   4 28.3863 0.73393   2
  -3   5   4 3.60249 0.37760   2
  -2   5   4 33.1045 0.78594   2
  -1   5   4 4.04160 0.39036   2
   0   5   4 46.3024 0.80157   2
   1   5   4 32.6246 0.87562   2
   2   5   4 141.748 1.53387   2
   3   5   4 32.3899 1.38115   2
   4   5   4 21.4375 1.02945   2
   5   5   4 2.25191 0.88404   2
   6   5   4 1.83358 0.93177   2
   6   5   4 29.9367 4.86168  -1
   6   6   3 29.9367 4.86168   2
   7   5   4 12.3664 1.15192   2
   8   5   4 4.45900 1.05760   2
   9   5   4 1.56817 1.15681   2
  10   5   4 2.51891 2.00663   2
 -15   6   4 47.5707 1.80516   2
 -14   6   4 71.6689 2.33490  -1
 -14   5   4 71.6689 2.33490   2
 -13   6   4 65.7567 1.89613  -1
 -13   5   4 65.7567 1.89613   2
 -12   6   4 22.2848 1.48545  -1
 -12   5   4 22.2848 1.48545   2
 -11   6   4 16.4108 1.46947  -1
 -11   5   4 16.4108 1.46947   2
 -10   6   4 153.643 3.16694  -1
 -10   5   4 153.643 3.16694   2
  -9   6   4 122.516 1.61166   2
  -9   6   4 201.679 4.27098  -1
  -9   5   4 201.679 4.27098   2
  -8   6   4 12.0424 0.70392   2
  -8   6   4 16.0677 3.21796  -1
  -8   5   4 16.0677 3.21796   2
  -7   6   4 97.6123 1.43148   2
  -6   6   4 127.763 1.59718   2
  -5   6   4 146.106 4.70006  -1
  -5   6   4 146.106 4.70006   2
  -4   6   4 10.5200 0.45341   2
  -3   6   4 119.931 1.25077   2
  -2   6   4 113.897 1.23987   2
  -1   6   4 207.598 1.67376   2
   0   6   4 89.9391 1.11223   2
   1   6   4 46.6537 1.10766   2
   2   6   4 4.79308 0.65462   2
   3   6   4 3.25663 0.57930   2
   4   6   4 6.82469 1.12376   2
   6   6   4 9.14894 1.27903   2
   7   6   4 12.7488 1.20007   2
   8   6   4 -1.1732 1.79391   2
   9   6   4 3.26756 2.12967   2
  10   6   4 3.14711 2.13264   2
 -16   7   4 21.5148 2.60901  -1
 -16   5   4 21.5148 2.60901   2
 -15   7   4 19.9750 1.39828   2
 -14   7   4 96.1508 4.82136  -1
 -14   6   4 96.1508 4.82136   2
 -14   7   4 32.9075 1.71455   2
 -13   7   4 33.8530 2.48487  -1
 -13   6   4 33.8530 2.48487   2
 -12   7   4 4.09863 2.99621  -1
 -12   6   4 4.09863 2.99621   2
 -11   7   4 87.4985 3.95765  -1
 -11   6   4 87.4985 3.95765   2
 -10   7   4 85.9331 1.80893   2
 -10   7   4 109.345 4.56275  -1
 -10   6   4 109.345 4.56275   2
  -9   7   4 51.3658 1.28815   2
  -8   7   4 112.942 1.65232   2
  -7   7   4 89.7935 1.50680   2
  -6   7   4 166.693 5.48516  -1
  -6   7   4 166.693 5.48516   2
  -5   7   4 163.116 5.21041  -1
  -6   7   4 163.116 5.21041   2
  -4   7   4 148.272 1.45167   2
  -4   7   4 109.251 4.47579  -1
  -5   7   4 109.251 4.47579   2
  -3   7   4 154.621 1.51809   2
  -2   7   4 180.009 1.59161   2
  -1   7   4 110.456 1.26233   2
   0   7   4 26.0939 0.85081   2
   1   7   4 56.0872 1.36135   2
   2   7   4 17.6802 1.10355   2
   3   7   4 24.2870 1.48462   2
   4   7   4 8.23715 1.20245   2
   5   7   4 10.7029 1.27564   2
   6   7   4 33.0307 2.36079   2
   7   7   4 3.27020 1.59889   2
   8   7   4 6.53227 2.19293   2
   9   7   4 2.47643 6.06179   2
 -16   8   4 17.0894 2.06638   2
 -16   8   4 38.1766 3.79029  -1
 -16   6   4 38.1766 3.79029   2
 -13   8   4 9.39939 3.85485  -1
 -13   7   4 9.39939 3.85485   2
 -12   8   4 8.77958 3.57093  -1
 -12   7   4 8.77958 3.57093   2
 -11   8   4 109.370 4.71682  -1
 -11   7   4 109.370 4.71682   2
 -10   8   4 107.045 2.07361   2
  -9   8   4 87.7472 1.61221   2
  -8   8   4 242.146 2.58341   2
  -6   8   4 122.601 3.13837  -1
  -7   8   4 122.601 3.13837   2
  -5   8   4 157.843 2.52613  -1
  -6   8   4 157.843 2.52613   2
  -4   8   4 138.788 2.66403  -1
  -5   8   4 138.788 2.66403   2
  -3   8   4 212.983 2.05061   2
  -3   8   4 122.037 7.25878  -1
  -4   8   4 122.037 7.25878   2
  -2   8   4 247.519 2.26678   2
  -1   8   4 129.909 1.87748   2
   0   8   4 29.4179 1.58605   2
   1   8   4 24.0452 1.44388   2
   2   8   4 2.06528 1.23956   2
   3   8   4 5.68345 1.48361   2
   4   8   4 -1.5375 1.26112   2
   5   8   4 -0.2550 2.10377   2
   6   8   4 24.8681 3.16222   2
   7   8   4 0.90354 2.53702   2
   8   8   4 7.89944 6.42362   2
   9   8   4 3.23349 6.89635   2
  10   8   4 -1.3469 14.2751  -1
   9  10   3 -1.3469 14.2751   2
 -16   9   4 39.7106 6.36225  -1
 -16   7   4 39.7106 6.36225   2
 -14   9   4 26.1005 5.43908  -1
 -15   8   4 26.1005 5.43908   2
 -13   9   4 10.0675 4.29418  -1
 -14   8   4 10.0675 4.29418   2
 -12   9   4 14.7478 3.85056  -1
 -13   8   4 14.7478 3.85056   2
 -11   9   4 47.8192 3.07784  -1
 -12   8   4 47.8192 3.07784   2
 -10   9   4 124.573 5.41530  -1
 -11   8   4 124.573 5.41530   2
 -10   9   4 119.172 2.59770   2
  -9   9   4 127.587 2.12638   2
  -7   9   4 163.676 4.57657  -1
  -8   9   4 163.676 4.57657   2
  -6   9   4 90.8659 3.82544  -1
  -7   9   4 90.8659 3.82544   2
  -5   9   4 119.915 2.76858  -1
  -6   9   4 119.915 2.76858   2
  -4   9   4 132.489 2.63193  -1
  -5   9   4 132.489 2.63193   2
  -3   9   4 187.291 2.30163   2
  -3   9   4 126.769 7.92441  -1
  -4   9   4 126.769 7.92441   2
  -2   9   4 75.0639 2.16417   2
  -1   9   4 31.9539 3.04394   2
   0   9   4 30.4711 3.06090   2
   1   9   4 8.15664 2.31100   2
   2   9   4 0.84171 1.99516   2
   3   9   4 5.91774 2.37538   2
   4   9   4 8.48279 2.60382   2
   5   9   4 10.0379 2.74260   2
   6   9   4 16.3314 3.22090   2
   7   9   4 1.74364 2.73587   2
   8   9   4 -2.1198 7.21960   2
  10   9   4 9.85914 15.2916  -1
   9  11   3 9.85914 15.2916   2
 -15  10   4 9.68301 4.51069  -1
 -16   9   4 9.68301 4.51069   2
 -14  10   4 24.3129 3.87609  -1
 -15   9   4 24.3129 3.87609   2
 -13  10   4 -3.8250 4.15204  -1
 -14   9   4 -3.8250 4.15204   2
 -12  10   4 21.5816 3.06445  -1
 -13   9   4 21.5816 3.06445   2
 -11  10   4 85.5824 3.66057  -1
 -12   9   4 85.5824 3.66057   2
 -10  10   4 2.92149 1.16812   2
 -10  10   4 166.116 4.46946  -1
 -11   9   4 166.116 4.46946   2
  -9  10   4 23.1836 1.22322   2
  -7  10   4 7.25190 3.28814  -1
  -8  10   4 7.25190 3.28814   2
  -6  10   4 17.4195 2.54193  -1
  -7  10   4 17.4195 2.54193   2
  -5  10   4 41.6057 2.86739  -1
  -6  10   4 41.6057 2.86739   2
  -4  10   4 158.180 3.60558   2
  -4  10   4 70.8091 4.45182  -1
  -5  10   4 70.8091 4.45182   2
  -3  10   4 160.217 5.52012   2
  -2  10   4 34.3566 3.32807   2
  -1  10   4 31.5080 3.13829   2
   0  10   4 73.3719 4.24678   2
   1  10   4 56.0099 4.04590   2
   2  10   4 37.3596 3.67174   2
   3  10   4 26.2005 3.42494   2
   4  10   4 34.9210 3.82204   2
   5  10   4 13.9171 3.25406   2
   6  10   4 -0.3535 2.80692   2
   7  10   4 2.88399 2.96017   2
 -15  11   4 15.8375 4.99434  -1
 -16  10   4 15.8375 4.99434   2
 -14  11   4 24.4746 4.20024  -1
 -15  10   4 24.4746 4.20024   2
 -13  11   4 6.84009 3.24912  -1
 -14  10   4 6.84009 3.24912   2
 -12  11   4 63.6489 3.34641  -1
 -13  10   4 63.6489 3.34641   2
 -11  11   4 72.2059 3.39992  -1
 -12  10   4 72.2059 3.39992   2
 -10  11   4 2.60173 1.27608   2
 -10  11   4 59.3016 3.66503  -1
 -11  10   4 59.3016 3.66503   2
  -9  11   4 31.4690 1.98679   2
  -8  11   4 28.9397 1.58543   2
  -6  11   4 82.3502 3.11216   2
  -6  11   4 45.6777 5.69388  -1
  -7  11   4 45.6777 5.69388   2
  -5  11   4 103.758 3.43351   2
  -4  11   4 278.594 7.75945   2
  -3  11   4 46.7946 3.89592   2
  -2  11   4 14.0467 2.74934   2
  -1  11   4 15.7404 2.89380   2
   0  11   4 69.8092 4.60486   2
   1  11   4 70.9768 4.75593   2
   2  11   4 34.2434 3.87374   2
   3  11   4 10.4948 3.29109   2
   3  11   4 7.18745 7.87872  -1
   2  12   3 7.18745 7.87872   2
   4  11   4 7.79699 3.36881   2
   4  11   4 1.99755 6.07576  -1
   3  12   3 1.99755 6.07576   2
   5  11   4 8.67183 6.79970  -1
   4  12   3 8.67183 6.79970   2
   5  11   4 12.3383 3.58798   2
   6  11   4 4.37322 3.33748   2
   7  11   4 5.23082 7.60354   2
 -14  12   4 21.5359 4.52546  -1
 -15  11   4 21.5359 4.52546   2
 -13  12   4 25.2075 3.54173  -1
 -14  11   4 25.2075 3.54173   2
 -12  12   4 48.2379 3.37042  -1
 -13  11   4 48.2379 3.37042   2
 -11  12   4 15.3363 2.88875  -1
 -12  11   4 15.3363 2.88875   2
 -11  12   4 2.08474 3.00194   2
 -10  12   4 11.5264 2.37855   2
 -10  12   4 8.13658 4.04771  -1
 -11  11   4 8.13658 4.04771   2
  -9  12   4 16.1773 2.41262   2
  -8  12   4 29.3773 2.57630   2
  -7  12   4 55.0797 2.97355   2
  -6  12   4 73.2432 3.41215   2
  -5  12   4 89.8198 3.54091   2
  -4  12   4 148.191 6.06265   2
  -3  12   4 4.57714 2.68868   2
  -2  12   4 14.9853 3.19366   2
  -1  12   4 29.7433 3.81323   2
   0  12   4 57.5803 5.04914   2
   1  12   4 63.8924 5.30026   2
   2  12   4 26.4374 9.73031  -1
   1  13   3 26.4374 9.73031   2
   3  12   4 1.89204 6.51824  -1
   2  13   3 1.89204 6.51824   2
   4  12   4 4.54998 6.84074  -1
   3  13   3 4.54998 6.84074   2
   4  12   4 11.3361 3.99138   2
   5  12   4 13.7294 7.56345  -1
   4  13   3 13.7294 7.56345   2
   5  12   4 8.27254 3.97716   2
   6  12   4 3.14749 3.81241   2
   6  12   4 6.65099 13.8555  -1
   5  13   3 6.65099 13.8555   2
   7  12   4 11.4268 8.40053   2
 -14  13   4 9.59705 7.10118  -1
 -15  12   4 9.59705 7.10118   2
 -13  13   4 13.9590 4.77484  -1
 -14  12   4 13.9590 4.77484   2
 -12  13   4 -2.5346 4.30277  -1
 -13  12   4 -2.5346 4.30277   2
 -11  13   4 0.28592 4.21794  -1
 -12  12   4 0.28592 4.21794   2
 -11  13   4 24.8644 3.75769   2
 -10  13   4 39.5390 3.16696   2
  -9  13   4 11.8284 2.54253   2
  -8  13   4 18.5381 2.64100   2
  -7  13   4 19.1061 2.59129   2
  -6  13   4 24.8916 2.73415   2
  -5  13   4 39.4721 3.02267   2
  -4  13   4 16.9471 3.66072   2
  -3  13   4 3.83996 3.20125   2
  -2  13   4 23.5600 3.99962   2
  -1  13   4 38.5390 4.60711   2
   1  13   4 19.1554 11.5268  -1
   0  14   3 19.1554 11.5268   2
   2  13   4 14.0687 7.86563  -1
   1  14   3 14.0687 7.86563   2
   3  13   4 4.25513 9.61702  -1
   2  14   3 4.25513 9.61702   2
   4  13   4 -3.4680 7.37425  -1
   3  14   3 -3.4680 7.37425   2
   5  13   4 -1.4293 8.32532  -1
   4  14   3 -1.4293 8.32532   2
   5  13   4 5.52167 4.21684   2
   6  13   4 4.78653 4.36596   2
   6  13   4 4.87296 15.4197  -1
   5  14   3 4.87296 15.4197   2
 -13  14   4 9.80463 9.68319  -1
 -14  13   4 9.80463 9.68319   2
 -13  14   4 13.5789 5.62544   2
 -12  14   4 5.03377 3.90736   2
 -12  14   4 17.8737 7.50477  -1
 -13  13   4 17.8737 7.50477   2
 -11  14   4 11.9464 3.89523   2
 -11  14   4 23.2854 10.0106  -1
 -12  13   4 23.2854 10.0106   2
 -10  14   4 26.4977 3.22498   2
  -9  14   4 15.6841 2.98202   2
  -8  14   4 5.71975 2.75108   2
  -7  14   4 2.55201 2.66545   2
  -6  14   4 16.8095 2.99175   2
  -5  14   4 37.1341 3.31747   2
  -4  14   4 10.4553 4.02625   2
  -3  14   4 20.9056 4.38484   2
  -2  14   4 28.1655 4.67474   2
  -1  14   4 22.9419 4.64404   2
   1  14   4 0.29588 12.7323  -1
   0  15   3 0.29588 12.7323   2
   2  14   4 0.31478 8.78706  -1
   1  15   3 0.31478 8.78706   2
   3  14   4 1.93727 6.86075  -1
   2  15   3 1.93727 6.86075   2
   4  14   4 2.33581 12.4384  -1
   3  15   3 2.33581 12.4384   2
   5  14   4 -1.2806 9.43445  -1
   4  15   3 -1.2806 9.43445   2
   5  14   4 2.37773 4.62482   2
 -12  15   4 4.82848 4.28948   2
 -11  15   4 14.7046 4.31747   2
 -10  15   4 22.6796 3.60249   2
  -9  15   4 16.0986 3.39782   2
  -6  15   4 -0.7479 7.89834  -1
  -7  15   3 -0.7479 7.89834   2
  -5  15   4 7.69348 7.61436  -1
  -6  15   3 7.69348 7.61436   2
  -4  15   4 11.0274 4.49868   2
  -4  15   4 -4.7046 5.92616  -1
  -5  15   3 -4.7046 5.92616   2
  -3  15   4 -7.4818 12.8913  -1
  -4  15   3 -7.4818 12.8913   2
  -3  15   4 12.0792 4.60110   2
  -2  15   4 18.8581 4.89353   2
  -1  15   4 8.68577 4.71602   2
   1  15   4 2.61069 9.89470  -1
   0  16   3 2.61069 9.89470   2
   2  15   4 4.74597 9.77150  -1
   1  16   3 4.74597 9.77150   2
   3  15   4 -5.9401 9.41055  -1
   2  16   3 -5.9401 9.41055   2
 -10  16   4 9.19731 3.70110   2
  -9  16   4 5.37022 3.56820   2
  -6  16   4 8.42412 9.04644  -1
  -7  16   3 8.42412 9.04644   2
  -5  16   4 -3.1552 8.01165  -1
  -6  16   3 -3.1552 8.01165   2
  -4  16   4 -7.2104 6.72248  -1
  -5  16   3 -7.2104 6.72248   2
  -4  16   4 10.3898 4.97782   2
  -3  16   4 10.0324 5.14285   2
  -3  16   4 4.58400 9.83687  -1
  -4  16   3 4.58400 9.83687   2
  -2  16   4 8.99009 5.26523   2
  -1  16   4 1.39470 5.01334   2
   1  16   4 -0.8842 11.2434  -1
   0  17   3 -0.8842 11.2434   2
  -7  17   4 9.66353 10.6259  -1
  -8  17   3 9.66353 10.6259   2
  -6  17   4 -2.3699 7.58932  -1
  -7  17   3 -2.3699 7.58932   2
  -5  17   4 1.59985 7.28043  -1
  -6  17   3 1.59985 7.28043   2
  -4  17   4 -4.5713 7.54703  -1
  -5  17   3 -4.5713 7.54703   2
  -4  17   4 7.62492 5.44961   2
  -3  17   4 12.0866 5.70471   2
  -3  17   4 -9.4746 14.5623  -1
  -4  17   3 -9.4746 14.5623   2
  -2  17   4 5.12107 5.60995   2
  -1  17   4 9.53469 5.67319   2
  -2 -17   5 3.25333 5.17280   2
  -2 -17   5 1.30050 14.7503  -1
  -1 -17   6 1.30050 14.7503   2
  -1 -17   5 18.6529 10.4493  -1
   0 -17   6 18.6529 10.4493   2
   0 -17   5 4.10807 14.8219  -1
   1 -17   6 4.10807 14.8219   2
   3 -17   5 -0.1145 5.02444   2
   4 -17   5 -0.8811 3.67299   2
   5 -17   5 -0.1384 3.68913   2
   5 -17   5 20.8768 17.8171  -1
   6 -16   6 20.8768 17.8171   2
  -5 -16   5 -1.0908 7.35635   2
  -4 -16   5 0.31880 4.47164   2
  -3 -16   5 -4.6552 9.66180  -1
  -2 -16   6 -4.6552 9.66180   2
  -3 -16   5 4.64947 4.69085   2
  -2 -16   5 7.90203 9.37134  -1
  -1 -16   6 7.90203 9.37134   2
  -1 -16   5 10.8148 7.40440  -1
   0 -16   6 10.8148 7.40440   2
   0 -16   5 20.0325 9.34631  -1
   1 -16   6 20.0325 9.34631   2
   1 -16   5 8.75062 15.3277  -1
   2 -16   6 8.75062 15.3277   2
   3 -16   5 -1.2275 4.58400   2
   4 -16   5 1.34657 3.42085   2
   5 -16   5 4.16289 3.41733   2
   6 -16   5 4.45625 3.47170   2
   8 -16   5 -2.3740 8.54258   2
  -6 -15   5 1.29937 6.88560   2
  -5 -15   5 3.61998 4.04772   2
  -4 -15   5 -4.0053 13.1829  -1
  -3 -15   6 -4.0053 13.1829   2
  -4 -15   5 4.66338 4.19161   2
  -3 -15   5 1.61029 4.05632   2
  -3 -15   5 0.85416 8.45617  -1
  -2 -15   6 0.85416 8.45617   2
  -2 -15   5 2.18548 8.25511  -1
  -1 -15   6 2.18548 8.25511   2
  -1 -15   5 8.60460 8.47454  -1
   0 -15   6 8.60460 8.47454   2
   0 -15   5 19.4137 8.79841  -1
   1 -15   6 19.4137 8.79841   2
   3 -15   5 0.63393 4.10548   2
   4 -15   5 -1.6246 2.98802   2
   5 -15   5 -1.6021 3.10032   2
   6 -15   5 0.85195 3.05574   2
   7 -15   5 -1.1459 3.10030   2
   8 -15   5 -0.9857 3.19421   2
   9 -15   5 -0.3363 4.73614   2
   9 -15   5 -2.8967 12.1010  -1
  10 -14   5 -2.8967 12.1010   2
  -6 -14   5 8.12748 6.99524   2
  -5 -14   5 -0.1915 3.47801   2
  -4 -14   5 5.74757 3.57184   2
  -4 -14   5 -7.8090 7.58860  -1
  -3 -14   6 -7.8090 7.58860   2
  -3 -14   5 -0.7840 7.25211  -1
  -2 -14   6 -0.7840 7.25211   2
  -2 -14   5 3.89367 7.49227  -1
  -1 -14   6 3.89367 7.49227   2
  -1 -14   5 6.58317 7.56221  -1
   0 -14   6 6.58317 7.56221   2
   2 -14   5 10.9259 3.95331   2
   3 -14   5 19.9321 4.45980   2
   4 -14   5 2.73754 2.68789   2
   5 -14   5 5.58417 2.83664   2
   6 -14   5 -0.3498 2.65188   2
   7 -14   5 1.36910 2.77716   2
   8 -14   5 -2.4559 2.87039   2
   8 -14   5 1.44838 9.67842  -1
   9 -13   5 1.44838 9.67842   2
   9 -14   5 2.38215 10.2703  -1
  10 -13   5 2.38215 10.2703   2
   9 -14   5 0.08892 4.31742   2
  -8 -13   5 8.32379 12.1346  -1
  -7 -14   6 8.32379 12.1346   2
  -6 -13   5 14.3791 5.71512   2
  -5 -13   5 7.80991 3.08367   2
  -4 -13   5 -9.4094 6.35936  -1
  -3 -13   6 -9.4094 6.35936   2
  -4 -13   5 7.11829 3.08657   2
  -3 -13   5 -2.4800 6.26938  -1
  -2 -13   6 -2.4800 6.26938   2
  -3 -13   5 13.9711 3.37433   2
  -2 -13   5 1.26700 6.44824  -1
  -1 -13   6 1.26700 6.44824   2
  -1 -13   5 2.93575 5.54952  -1
   0 -13   6 2.93575 5.54952   2
   1 -13   5 5.36863 1.91796   2
   2 -13   5 2.26264 1.73581   2
   3 -13   5 13.3158 3.73966   2
   4 -13   5 0.96155 2.37000   2
   5 -13   5 5.47600 2.51247   2
   6 -13   5 0.79480 2.32603   2
   6 -13   5 -2.8141 5.92839  -1
   7 -12   5 -2.8141 5.92839   2
   7 -13   5 -0.4328 2.42305   2
   7 -13   5 -2.9608 6.30507  -1
   8 -12   5 -2.9608 6.30507   2
   8 -13   5 -0.0292 2.53510   2
   8 -13   5 1.77582 5.40067  -1
   9 -12   5 1.77582 5.40067   2
   9 -13   5 4.96646 8.87290  -1
  10 -12   5 4.96646 8.87290   2
  -9 -12   5 3.50577 10.1181  -1
  -8 -13   6 3.50577 10.1181   2
  -7 -12   5 14.7819 5.28071   2
  -5 -12   5 -1.2971 2.50900   2
  -4 -12   5 0.79009 2.56975   2
  -3 -12   5 28.1040 3.41935   2
  -2 -12   5 7.45848 1.96850   2
  -1 -12   5 8.98828 1.94621   2
   0 -12   5 13.7959 1.97520   2
   1 -12   5 18.3746 2.06790   2
   2 -12   5 18.5785 2.04816   2
   3 -12   5 12.3524 1.90430   2
   4 -12   5 18.6290 2.38069   2
   5 -12   5 14.8079 4.54432  -1
   6 -11   5 14.8079 4.54432   2
   5 -12   5 8.90779 2.18725   2
   6 -12   5 -1.0243 3.60399  -1
   7 -11   5 -1.0243 3.60399   2
   6 -12   5 1.84045 2.16382   2
   7 -12   5 6.02037 3.85286  -1
   8 -11   5 6.02037 3.85286   2
   8 -12   5 17.9110 4.40894  -1
   9 -11   5 17.9110 4.40894   2
   9 -12   5 11.1600 6.03405  -1
  10 -11   5 11.1600 6.03405   2
  -9 -11   5 -10.539 9.04512  -1
  -8 -12   6 -10.539 9.04512   2
  -4 -11   5 0.64223 1.15742   2
  -3 -11   5 23.6427 2.18679   2
  -2 -11   5 21.6278 2.08323   2
  -1 -11   5 25.9500 2.16050   2
   0 -11   5 1.12079 1.50426   2
   1 -11   5 1.19718 1.48195   2
   2 -11   5 74.8941 2.97264   2
   3 -11   5 4.43007 1.55962   2
   4 -11   5 6.76547 3.96939  -1
   5 -10   5 6.76547 3.96939   2
   4 -11   5 20.5109 1.57514   2
   5 -11   5 1.27992 1.58456   2
   5 -11   5 7.56995 3.38324  -1
   6 -10   5 7.56995 3.38324   2
   6 -11   5 9.17977 3.11350  -1
   7 -10   5 9.17977 3.11350   2
   7 -11   5 8.49261 3.43393  -1
   8 -10   5 8.49261 3.43393   2
   8 -11   5 11.0771 3.73849  -1
   9 -10   5 11.0771 3.73849   2
   9 -11   5 15.8940 5.87713  -1
  10 -10   5 15.8940 5.87713   2
  11 -11   5 -1.0518 6.16275   2
  12 -11   5 4.08545 6.76564   2
 -12 -10   5 -4.6674 6.53463  -1
 -11 -11   6 -4.6674 6.53463   2
 -12 -10   5 10.5843 3.43472   2
 -11 -10   5 -0.2608 5.00632  -1
 -10 -11   6 -0.2608 5.00632   2
 -10 -10   5 -3.1713 3.80458  -1
  -9 -11   6 -3.1713 3.80458   2
  -9 -10   5 7.12792 4.21986  -1
  -8 -11   6 7.12792 4.21986   2
  -8 -10   5 1.91155 4.52929  -1
  -7 -11   6 1.91155 4.52929   2
  -8 -10   5 46.7132 3.01761   2
  -7 -10   5 44.6434 2.97450   2
  -5 -10   5 3.22424 0.90769   2
  -4 -10   5 20.0898 1.50664   2
  -3 -10   5 82.3653 2.16971   2
  -2 -10   5 91.0052 2.52986   2
  -1 -10   5 90.7568 3.09243   2
   0 -10   5 10.8820 1.69519   2
   1 -10   5 16.9743 1.80271   2
   2 -10   5 114.153 3.31765   2
   3 -10   5 2.39899 2.04357   2
   4 -10   5 33.8122 4.18960  -1
   5  -9   5 33.8122 4.18960   2
   4 -10   5 15.9968 2.04213   2
   5 -10   5 2.18482 2.75538  -1
   6  -9   5 2.18482 2.75538   2
   6 -10   5 5.55984 2.75142  -1
   7  -9   5 5.55984 2.75142   2
   7 -10   5 7.98744 3.17347  -1
   8  -9   5 7.98744 3.17347   2
   8 -10   5 5.95799 5.14172  -1
   9  -9   5 5.95799 5.14172   2
  11 -10   5 5.84066 6.79810   2
  12 -10   5 -1.5865 6.57293   2
 -13  -9   5 -8.6275 7.64168  -1
 -12 -10   6 -8.6275 7.64168   2
 -12  -9   5 11.9569 3.00840   2
 -12  -9   5 2.92123 5.65053  -1
 -11 -10   6 2.92123 5.65053   2
 -11  -9   5 4.65779 4.61039  -1
 -10 -10   6 4.65779 4.61039   2
 -11  -9   5 12.5137 2.58751   2
 -10  -9   5 13.5674 2.31892   2
 -10  -9   5 0.03896 3.84034  -1
  -9 -10   6 0.03896 3.84034   2
  -9  -9   5 13.8708 4.40360  -1
  -8 -10   6 13.8708 4.40360   2
  -9  -9   5 48.7776 3.47641   2
  -8  -9   5 7.29443 4.74332  -1
  -7 -10   6 7.29443 4.74332   2
  -8  -9   5 76.4825 3.17889   2
  -7  -9   5 66.2484 2.94535   2
  -6  -9   5 2.19686 0.82423   2
  -5  -9   5 12.1915 1.05400   2
  -4  -9   5 39.0265 1.57602   2
  -4  -9   5 61.7209 5.16979  -1
  -3  -9   5 61.7209 5.16979   2
  -3  -9   5 98.8039 5.34025  -1
  -2  -9   5 98.8039 5.34025   2
  -2  -9   5 95.6290 7.32446  -1
  -1  -9   5 95.6290 7.32446   2
  -1  -9   5 100.742 4.78797  -1
   0  -9   5 100.742 4.78797   2
   1  -9   5 73.4525 2.13111   2
   2  -9   5 17.2363 1.79001   2
   3  -9   5 17.6293 1.94602   2
   4  -9   5 38.4332 2.68974   2
   4  -9   5 37.5454 6.98482  -1
   5  -8   5 37.5454 6.98482   2
   5  -9   5 -2.2266 2.94692  -1
   6  -8   5 -2.2266 2.94692   2
   6  -9   5 0.07520 2.65327  -1
   7  -8   5 0.07520 2.65327   2
   7  -9   5 10.3215 2.96461  -1
   8  -8   5 10.3215 2.96461   2
   8  -9   5 6.98233 5.15526  -1
   9  -8   5 6.98233 5.15526   2
  10  -9   5 0.44456 2.49793   2
  11  -9   5 0.11647 6.20747   2
  12  -9   5 1.33002 6.76381   2
 -13  -8   5 17.3923 3.14808   2
 -13  -8   5 4.76530 6.44703  -1
 -12  -9   6 4.76530 6.44703   2
 -12  -8   5 8.52002 2.49461   2
 -11  -8   5 8.26912 2.18455   2
 -10  -8   5 17.1020 1.29914   2
  -9  -8   5 61.9894 2.10355   2
  -8  -8   5 56.3980 1.80801   2
  -7  -8   5 38.8773 1.36002   2
  -6  -8   5 5.40941 0.65138   2
  -5  -8   5 32.4513 1.16777   2
  -5  -8   5 66.7584 4.75872  -1
  -4  -8   5 66.7584 4.75872   2
  -4  -8   5 91.3591 4.99509  -1
  -3  -8   5 91.3591 4.99509   2
  -3  -8   5 205.357 5.16144  -1
  -2  -8   5 205.357 5.16144   2
  -2  -8   5 156.610 2.40619  -1
  -1  -8   5 156.610 2.40619   2
  -1  -8   5 303.606 5.45923  -1
   0  -8   5 303.606 5.45923   2
   0  -8   5 85.6936 4.84301  -1
   1  -8   5 85.6936 4.84301   2
   2  -8   5 2.35499 0.84454   2
   3  -8   5 129.360 2.46051   2
   3  -8   5 148.399 6.11000  -1
   4  -7   5 148.399 6.11000   2
   4  -8   5 156.862 3.14644   2
   4  -8   5 24.7240 4.59637  -1
   5  -7   5 24.7240 4.59637   2
   5  -8   5 18.9955 2.66421  -1
   6  -7   5 18.9955 2.66421   2
   6  -8   5 16.8465 2.17278  -1
   7  -7   5 16.8465 2.17278   2
   7  -8   5 13.6935 3.23677  -1
   8  -7   5 13.6935 3.23677   2
   8  -8   5 14.3408 4.97163  -1
   9  -7   5 14.3408 4.97163   2
  10  -8   5 2.39026 2.50191   2
  11  -8   5 -0.2176 5.72935   2
  12  -8   5 -1.7341 6.09374   2
 -13  -7   5 22.1492 1.48758   2
 -12  -7   5 12.3329 1.18984   2
 -11  -7   5 18.9157 1.27064   2
 -10  -7   5 20.8920 1.26232   2
  -9  -7   5 61.9892 1.79017   2
  -8  -7   5 91.0939 1.66534   2
  -7  -7   5 21.1941 0.91637   2
  -6  -7   5 88.2013 1.36602   2
  -5  -7   5 69.7420 1.35232   2
  -4  -7   5 112.327 1.62645   2
  -4  -7   5 105.482 2.41108  -1
  -3  -7   5 105.482 2.41108   2
  -3  -7   5 194.734 3.14866  -1
  -2  -7   5 194.734 3.14866   2
  -2  -7   5 126.714 2.26555  -1
  -1  -7   5 126.714 2.26555   2
  -1  -7   5 227.341 3.70536  -1
   0  -7   5 227.341 3.70536   2
   0  -7   5 6.52386 2.40205  -1
   1  -7   5 6.52386 2.40205   2
   1  -7   5 45.3927 3.96978  -1
   2  -7   5 45.3927 3.96978   2
   3  -7   5 168.598 2.14147   2
   5  -7   5 100.873 5.51447  -1
   6  -6   5 100.873 5.51447   2
   6  -7   5 11.0230 4.59655  -1
   7  -6   5 11.0230 4.59655   2
   7  -7   5 15.1401 4.85498  -1
   8  -6   5 15.1401 4.85498   2
  10  -7   5 3.56150 1.66905   2
  11  -7   5 -1.2609 5.25005   2
  12  -7   5 -4.2340 5.17477  -1
  12  -5   5 -4.2340 5.17477   2
  12  -7   5 1.73507 6.02461   2
  13  -7   5 -11.768 6.46058  -1
  13  -5   5 -11.768 6.46058   2
 -14  -6   5 11.6042 1.33663   2
 -13  -6   5 11.3627 1.14281   2
 -12  -6   5 25.4898 1.43702   2
 -11  -6   5 55.0639 1.77841   2
 -10  -6   5 25.0913 1.31819   2
  -9  -6   5 14.3815 0.97517   2
  -8  -6   5 68.5996 1.42122   2
  -7  -6   5 4.29243 0.61826   2
  -6  -6   5 83.3077 1.24477   2
  -5  -6   5 47.7478 1.10604   2
  -4  -6   5 45.0180 1.07285   2
  -4  -6   5 159.034 2.52618  -1
  -3  -6   5 159.034 2.52618   2
  -3  -6   5 124.648 2.05618  -1
  -2  -6   5 124.648 2.05618   2
  -2  -6   5 241.121 4.42521  -1
  -1  -6   5 241.121 4.42521   2
  -1  -6   5 94.7093 4.13989  -1
   0  -6   5 94.7093 4.13989   2
   0  -6   5 27.1354 2.40929  -1
   1  -6   5 27.1354 2.40929   2
   2  -6   5 299.985 2.54217   2
   3  -6   5 502.841 3.63955   2
   4  -6   5 467.024 7.19706  -1
   4  -5   5 467.024 7.19706   2
   4  -6   5 414.166 3.69770   2
   5  -6   5 106.794 2.15610   2
   5  -6   5 177.714 3.55190  -1
   5  -5   5 177.714 3.55190   2
   6  -6   5 81.6831 3.10385  -1
   6  -5   5 81.6831 3.10385   2
   7  -6   5 23.8241 3.51079  -1
   7  -5   5 23.8241 3.51079   2
   8  -6   5 105.406 6.83303  -1
   8  -5   5 105.406 6.83303   2
   9  -6   5 14.8778 1.55146   2
   9  -6   5 68.3757 5.20309  -1
   9  -5   5 68.3757 5.20309   2
  10  -6   5 1.87133 1.92901   2
  11  -6   5 25.5677 8.90138  -1
  11  -4   5 25.5677 8.90138   2
  11  -6   5 6.86144 2.34935   2
  12  -6   5 2.77232 5.08009  -1
  12  -4   5 2.77232 5.08009   2
  13  -6   5 3.18106 6.45345  -1
  13  -4   5 3.18106 6.45345   2
 -15  -5   5 9.87462 1.32349   2
 -14  -5   5 16.4759 1.10377   2
 -13  -5   5 14.1591 0.93987   2
 -12  -5   5 39.5893 1.48240   2
 -11  -5   5 37.6712 1.31091   2
  -8  -5   5 24.9376 0.94649   2
  -7  -5   5 65.2737 1.19413   2
  -6  -5   5 225.517 2.14450   2
  -5  -5   5 150.766 1.67331   2
  -4  -5   5 54.6089 2.36744  -1
  -3  -5   5 54.6089 2.36744   2
  -4  -5   5 6.55453 0.51740   2
  -2  -5   5 8.94349 0.56245   2
  -1  -5   5 206.695 1.99060   2
   0  -5   5 15.8907 0.63871   2
   1  -5   5 241.542 2.10593   2
   2  -5   5 412.509 2.84726   2
   3  -5   5 801.120 5.25598   2
   3  -5   5 757.529 14.2620  -1
   3  -4   5 757.529 14.2620   2
   4  -5   5 193.351 3.40154  -1
   4  -4   5 193.351 3.40154   2
   5  -5   5 123.040 3.12525  -1
   5  -4   5 123.040 3.12525   2
   6  -5   5 51.8497 2.33479  -1
   6  -4   5 51.8497 2.33479   2
   7  -5   5 11.7322 2.77604  -1
   7  -4   5 11.7322 2.77604   2
   8  -5   5 38.8043 3.59917  -1
   8  -4   5 38.8043 3.59917   2
   9  -5   5 24.6403 3.49594  -1
   9  -4   5 24.6403 3.49594   2
  10  -5   5 5.08465 1.94632   2
  10  -5   5 10.5354 4.19583  -1
  10  -4   5 10.5354 4.19583   2
  11  -5   5 -2.2613 4.67509   2
  11  -5   5 36.9290 7.57841  -1
  11  -3   5 36.9290 7.57841   2
  12  -5   5 7.29672 5.01835  -1
  12  -3   5 7.29672 5.01835   2
  13  -5   5 -3.5872 6.11865  -1
  13  -3   5 -3.5872 6.11865   2
 -15  -4   5 6.87324 1.50404   2
 -14  -4   5 6.00171 0.81264   2
 -13  -4   5 8.89541 0.76792   2
 -11  -4   5 0.88649 0.53748   2
 -11  -4   5 12.8967 3.01903  -1
 -10  -5   5 12.8967 3.01903   2
 -10  -4   5 41.9016 1.07122   2
 -10  -4   5 -0.4284 3.08683  -1
  -9  -5   5 -0.4284 3.08683   2
  -9  -4   5 41.3906 1.09368   2
  -8  -4   5 113.113 1.46933   2
  -7  -4   5 326.155 2.72394   2
  -6  -4   5 228.599 2.04083   2
  -5  -4   5 52.7256 0.94003   2
  -4  -4   5 0.34923 0.34736   2
  -3  -4   5 130.832 1.67175   2
  -2  -4   5 258.085 2.64562   2
  -1  -4   5 376.775 2.95937   2
   0  -4   5 54.2270 0.95330   2
   1  -4   5 642.102 4.08761   2
   2  -4   5 499.328 3.24906   2
   2  -4   5 363.234 7.76687  -1
   2  -3   5 363.234 7.76687   2
   3  -4   5 140.190 2.71580  -1
   3  -3   5 140.190 2.71580   2
   5  -4   5 60.3567 2.07624  -1
   5  -3   5 60.3567 2.07624   2
   6  -4   5 124.522 2.69025  -1
   6  -3   5 124.522 2.69025   2
   7  -4   5 95.8935 4.01278  -1
   7  -3   5 95.8935 4.01278   2
   8  -4   5 37.0259 4.12733  -1
   8  -3   5 37.0259 4.12733   2
   9  -4   5 70.3610 5.07477  -1
   9  -3   5 70.3610 5.07477   2
  10  -4   5 125.163 5.90552  -1
  10  -3   5 125.163 5.90552   2
  11  -4   5 29.5661 4.50396  -1
  11  -3   5 29.5661 4.50396   2
  11  -4   5 26.6547 4.06262  -1
  11  -2   5 26.6547 4.06262   2
  12  -4   5 6.03892 5.07251  -1
  12  -2   5 6.03892 5.07251   2
  13  -4   5 4.10709 6.04932  -1
  13  -2   5 4.10709 6.04932   2
 -14  -3   5 0.35099 0.96574   2
 -13  -3   5 5.10065 2.93969  -1
 -13  -4   6 5.10065 2.93969   2
 -13  -3   5 7.88213 0.91011   2
 -12  -3   5 15.2616 1.37406   2
 -10  -3   5 126.601 1.52201   2
  -9  -3   5 176.893 1.69182   2
  -8  -3   5 160.467 1.65393   2
  -7  -3   5 173.709 1.93344   2
  -6  -3   5 220.450 2.12250   2
  -5  -3   5 28.1147 0.70388   2
  -4  -3   5 141.700 2.71875  -1
  -4  -3   5 141.700 2.71875   2
  -3  -3   5 120.603 3.62556  -1
  -3  -3   5 120.603 3.62556   2
  -2  -3   5 205.364 2.18115   2
  -1  -3   5 21.7836 2.32727  -1
  -1  -3   5 21.7836 2.32727   2
   0  -3   5 128.873 1.32081   2
   1  -3   5 645.645 3.73194   2
   4  -3   5 108.988 2.26727  -1
   4  -2   5 108.988 2.26727   2
   4  -3   5 2.11567 1.42520   2
   5  -3   5 249.954 3.46646  -1
   5  -2   5 249.954 3.46646   2
   6  -3   5 317.334 4.18763  -1
   6  -2   5 317.334 4.18763   2
   7  -3   5 263.283 4.71927  -1
   7  -2   5 263.283 4.71927   2
   8  -3   5 37.9458 5.22487  -1
   8  -2   5 37.9458 5.22487   2
  10  -3   5 103.984 5.51201  -1
  10  -2   5 103.984 5.51201   2
  11  -3   5 0.58061 4.72872  -1
  11  -1   5 0.58061 4.72872   2
  12  -3   5 5.83733 5.31645  -1
  12  -1   5 5.83733 5.31645   2
  13  -3   5 11.7167 6.93130  -1
  13  -1   5 11.7167 6.93130   2
 -12  -2   5 13.0926 2.27225   2
 -11  -2   5 89.1626 4.36624   2
 -10  -2   5 86.7550 4.24708   2
  -9  -2   5 192.939 5.74593   2
  -8  -2   5 229.342 2.81748   2
  -7  -2   5 168.348 1.75313   2
  -6  -2   5 122.017 1.32976   2
  -5  -2   5 3.97147 2.08423  -1
  -5  -2   5 3.97147 2.08423   2
  -4  -2   5 49.9573 1.55769  -1
  -4  -2   5 49.9573 1.55769   2
  -3  -2   5 37.4698 1.62216  -1
  -3  -2   5 37.4698 1.62216   2
  -2  -2   5 179.495 4.35482  -1
  -2  -2   5 179.495 4.35482   2
  -1  -2   5 60.3768 2.96878  -1
  -1  -2   5 60.3768 2.96878   2
   0  -2   5 59.2035 0.90956   2
   1  -2   5 64.0935 0.91778   2
   2  -2   5 43.9724 0.89717   2
   2  -2   5 185.315 4.77094  -1
   2  -1   5 185.315 4.77094   2
   3  -2   5 6.88477 0.58702   2
   3  -2   5 143.511 3.19362  -1
   3  -1   5 143.511 3.19362   2
   4  -2   5 422.303 4.19476  -1
   4  -1   5 422.303 4.19476   2
   5  -2   5 279.643 3.46507  -1
   5  -1   5 279.643 3.46507   2
   6  -2   5 154.177 2.92694  -1
   6  -1   5 154.177 2.92694   2
   7  -2   5 100.817 4.19837  -1
   7  -1   5 100.817 4.19837   2
   9  -2   5 50.7439 2.29225   2
  11  -2   5 0.22856 4.81956  -1
  11   0   5 0.22856 4.81956   2
 -12  -1   5 -0.0462 1.23229   2
 -11  -1   5 57.5143 2.65030   2
 -10  -1   5 65.8431 3.65318   2
  -9  -1   5 113.658 4.17190   2
  -8  -1   5 132.069 4.31488   2
  -7  -1   5 232.075 5.73394   2
  -6  -1   5 43.5026 2.03727  -1
  -6  -1   5 43.5026 2.03727   2
  -5  -1   5 230.166 3.29306  -1
  -5  -1   5 230.166 3.29306   2
  -4  -1   5 301.769 3.35677  -1
  -4  -1   5 301.769 3.35677   2
  -3  -1   5 236.154 2.86351  -1
  -3  -1   5 236.154 2.86351   2
  -2  -1   5 223.466 3.41504  -1
  -2  -1   5 223.466 3.41504   2
  -1  -1   5 297.765 4.37166  -1
  -1  -1   5 297.765 4.37166   2
   0  -1   5 0.67115 0.30764   2
   1  -1   5 146.242 1.32630   2
   3  -1   5 185.901 2.94984  -1
   3   0   5 185.901 2.94984   2
   4  -1   5 301.793 5.68327  -1
   4   0   5 301.793 5.68327   2
   5  -1   5 157.820 3.23063  -1
   5   0   5 157.820 3.23063   2
   6  -1   5 147.213 3.84307  -1
   6   0   5 147.213 3.84307   2
   8  -1   5 36.4033 2.03930   2
   9  -1   5 45.7110 2.21161   2
  10  -1   5 26.2856 2.10044   2
 -13   0   5 1.63984 1.99084   2
 -12   0   5 2.89691 1.28731   2
 -11   0   5 5.39996 1.34725   2
 -10   0   5 30.0476 2.00402   2
  -9   0   5 50.0644 2.95267   2
  -8   0   5 23.5175 2.29391   2
  -7   0   5 217.921 5.27417   2
  -6   0   5 17.2034 0.79902   2
  -5   0   5 451.580 4.56319  -1
  -5   0   5 451.580 4.56319   2
  -4   0   5 327.615 3.07969  -1
  -4   0   5 327.615 3.07969   2
  -3   0   5 226.269 2.14201  -1
  -3   0   5 226.269 2.14201   2
  -2   0   5 278.034 3.98541  -1
  -2   0   5 278.034 3.98541   2
  -1   0   5 473.490 8.84045  -1
  -1   0   5 473.490 8.84045   2
   0   0   5 70.3850 0.90694   2
   1   0   5 383.569 2.45193   2
   2   0   5 192.313 1.72227   2
   3   0   5 208.945 4.02162  -1
   3   1   5 208.945 4.02162   2
   4   0   5 268.157 4.20132  -1
   4   1   5 268.157 4.20132   2
   5   0   5 132.506 2.73889  -1
   5   1   5 132.506 2.73889   2
   7   0   5 48.1503 1.53155   2
   8   0   5 92.1411 2.62950   2
   9   0   5 47.6675 2.21997   2
  10   0   5 3.56865 1.99651   2
  11   0   5 -1.9402 4.81302  -1
  11   2   4 -1.9402 4.81302   2
  12   0   5 12.9104 5.98614  -1
  12   2   4 12.9104 5.98614   2
  12   0   5 5.59649 2.60756   2
  13   0   5 -6.8036 7.10774  -1
  13   2   4 -6.8036 7.10774   2
  13   0   5 10.1849 3.49072   2
 -13   1   5 -1.1193 1.92369   2
 -12   1   5 8.45881 2.25172   2
  -8   1   5 73.7967 2.27160   2
  -7   1   5 134.092 1.77027   2
  -6   1   5 251.456 4.74061  -1
  -6   1   5 251.456 4.74061   2
  -5   1   5 536.508 7.58802  -1
  -5   1   5 536.508 7.58802   2
  -4   1   5 695.254 5.95957  -1
  -4   1   5 695.254 5.95957   2
  -3   1   5 144.968 1.44057  -1
  -3   1   5 144.968 1.44057   2
  -2   1   5 159.507 2.29290  -1
  -2   1   5 159.507 2.29290   2
  -1   1   5 30.4027 2.53815  -1
  -1   1   5 30.4027 2.53815   2
   0   1   5 378.317 2.38347   2
   1   1   5 116.925 1.15260   2
   2   1   5 88.9624 2.90635  -1
   2   2   5 88.9624 2.90635   2
   2   1   5 2.34689 0.43411   2
   3   1   5 412.182 8.96139  -1
   3   2   5 412.182 8.96139   2
   4   1   5 64.8910 3.46088  -1
   4   2   5 64.8910 3.46088   2
   6   1   5 96.0930 1.76581   2
   7   1   5 43.7930 1.79629   2
   8   1   5 77.3696 2.14760   2
   9   1   5 21.5194 1.60789   2
  10   1   5 -8.4387 5.31981  -1
  10   3   4 -8.4387 5.31981   2
  10   1   5 8.41555 1.39955   2
  11   1   5 -0.2383 1.58499   2
  11   1   5 5.54005 5.05039  -1
  11   3   4 5.54005 5.05039   2
  12   1   5 5.49354 5.88866  -1
  12   3   4 5.49354 5.88866   2
  12   1   5 23.5205 3.39852   2
  13   1   5 -2.8010 7.73072  -1
  13   3   4 -2.8010 7.73072   2
  13   1   5 7.83243 3.44569   2
 -11   2   5 -2.5731 3.42808  -1
 -11   1   5 -2.5731 3.42808   2
 -10   2   5 19.9208 3.55624  -1
 -10   1   5 19.9208 3.55624   2
  -9   2   5 57.5528 3.91200  -1
  -9   1   5 57.5528 3.91200   2
  -8   2   5 29.8666 0.88531   2
  -7   2   5 21.8738 1.74699  -1
  -7   2   5 21.8738 1.74699   2
  -6   2   5 164.365 2.60352  -1
  -6   2   5 164.365 2.60352   2
  -5   2   5 59.4070 1.23499  -1
  -5   2   5 59.4070 1.23499   2
  -4   2   5 557.766 3.99192  -1
  -4   2   5 557.766 3.99192   2
  -3   2   5 333.156 2.62878  -1
  -3   2   5 333.156 2.62878   2
  -2   2   5 193.266 2.19014  -1
  -2   2   5 193.266 2.19014   2
  -1   2   5 3.07708 0.36101   2
   0   2   5 302.138 2.16877   2
   1   2   5 94.5182 1.17230   2
   2   2   5 174.427 5.38546  -1
   2   3   5 174.427 5.38546   2
   3   2   5 49.3017 4.19131  -1
   3   3   5 49.3017 4.19131   2
   5   2   5 51.4585 1.41672   2
   6   2   5 26.0610 1.08343   2
   7   2   5 98.8712 2.32793   2
   8   2   5 85.6076 2.24854   2
   9   2   5 16.3714 1.50805   2
  10   2   5 17.2438 1.59540   2
  10   2   5 12.4563 4.94555  -1
  10   4   4 12.4563 4.94555   2
  11   2   5 10.1708 5.37048  -1
  11   4   4 10.1708 5.37048   2
  12   2   5 1.32326 6.70324  -1
  12   4   4 1.32326 6.70324   2
  13   2   5 6.72768 3.64952   2
 -13   3   5 14.6776 4.79203  -1
 -13   2   5 14.6776 4.79203   2
 -12   3   5 -2.0696 3.90515  -1
 -12   2   5 -2.0696 3.90515   2
 -11   3   5 0.16718 2.54301  -1
 -11   2   5 0.16718 2.54301   2
 -10   3   5 10.5900 2.46664  -1
 -10   2   5 10.5900 2.46664   2
  -9   3   5 5.33755 2.98265  -1
  -9   2   5 5.33755 2.98265   2
  -8   3   5 0.13405 1.89919  -1
  -8   3   5 0.13405 1.89919   2
  -7   3   5 9.32259 1.82536  -1
  -7   3   5 9.32259 1.82536   2
  -6   3   5 64.3128 1.79790  -1
  -6   3   5 64.3128 1.79790   2
  -5   3   5 22.2902 0.92645  -1
  -5   3   5 22.2902 0.92645   2
  -4   3   5 391.927 3.07395  -1
  -4   3   5 391.927 3.07395   2
  -3   3   5 369.046 3.57560  -1
  -3   3   5 369.046 3.57560   2
  -2   3   5 227.517 2.86152  -1
  -2   3   5 227.517 2.86152   2
  -1   3   5 78.1688 1.00061   2
   0   3   5 64.2944 0.91407   2
   1   3   5 23.5626 0.65175   2
   4   3   5 13.3497 0.81051   2
   5   3   5 70.3691 1.58627   2
   6   3   5 56.4317 1.89011   2
   7   3   5 119.475 2.52598   2
   8   3   5 69.8077 2.16706   2
   9   3   5 18.9973 1.59538   2
  11   3   5 5.84421 5.55235  -1
  11   5   4 5.84421 5.55235   2
 -15   4   5 1.52095 1.41866   2
 -13   4   5 6.37246 4.58136  -1
 -13   3   5 6.37246 4.58136   2
 -12   4   5 11.7888 3.59401  -1
 -12   3   5 11.7888 3.59401   2
 -11   4   5 25.9144 3.98260  -1
 -11   3   5 25.9144 3.98260   2
 -10   4   5 1.21251 1.20331  -1
 -10   3   5 1.21251 1.20331   2
  -9   4   5 31.5357 1.81882  -1
  -9   3   5 31.5357 1.81882   2
  -8   4   5 12.1787 2.38547  -1
  -8   4   5 12.1787 2.38547   2
  -7   4   5 5.97184 1.69275  -1
  -7   4   5 5.97184 1.69275   2
  -6   4   5 33.6374 1.45323  -1
  -6   4   5 33.6374 1.45323   2
  -5   4   5 61.3835 1.39910  -1
  -5   4   5 61.3835 1.39910   2
  -4   4   5 96.2287 1.90407  -1
  -4   4   5 96.2287 1.90407   2
  -3   4   5 16.3930 1.79742  -1
  -3   4   5 16.3930 1.79742   2
  -2   4   5 -0.3498 0.34269   2
  -1   4   5 7.77932 0.44538   2
   0   4   5 15.6292 0.55228   2
   1   4   5 0.28918 0.36824   2
   2   4   5 243.182 2.08092   2
   3   4   5 45.9571 1.19227   2
   4   4   5 49.5626 1.37220   2
   5   4   5 125.012 2.42207   2
   6   4   5 82.6097 2.17005   2
   7   4   5 46.7064 1.88510   2
   8   4   5 66.8798 2.17140   2
 -16   5   5 1.94105 1.31448   2
 -15   5   5 -1.0203 0.86975   2
 -14   5   5 -0.9347 2.60642  -1
 -14   4   5 -0.9347 2.60642   2
 -13   5   5 0.44244 1.42623  -1
 -13   4   5 0.44244 1.42623   2
 -12   5   5 -1.3667 1.04176  -1
 -12   4   5 -1.3667 1.04176   2
 -11   5   5 23.5669 1.32034  -1
 -11   4   5 23.5669 1.32034   2
 -10   5   5 0.06975 1.61391  -1
 -10   4   5 0.06975 1.61391   2
  -9   5   5 13.2926 2.91441  -1
  -9   4   5 13.2926 2.91441   2
  -8   5   5 2.78168 2.63227  -1
  -8   5   5 2.78168 2.63227   2
  -7   5   5 3.39189 1.89090  -1
  -7   5   5 3.39189 1.89090   2
  -6   5   5 3.39105 1.13376  -1
  -6   5   5 3.39105 1.13376   2
  -5   5   5 32.5883 1.48132  -1
  -5   5   5 32.5883 1.48132   2
  -4   5   5 15.5333 1.44161  -1
  -4   5   5 15.5333 1.44161   2
  -3   5   5 7.88456 0.45557   2
  -2   5   5 36.7093 0.85725   2
  -1   5   5 82.9119 1.07926   2
   0   5   5 209.422 1.79663   2
   1   5   5 41.4725 1.06714   2
   2   5   5 108.733 1.54121   2
   3   5   5 28.2958 1.54653   2
   4   5   5 60.2234 1.73655   2
   5   5   5 28.0912 1.48746   2
   5   5   5 11.9827 4.77670  -1
   5   6   4 11.9827 4.77670   2
   6   5   5 7.44352 1.07064   2
   7   5   5 5.46542 1.26180   2
   8   5   5 26.7161 2.40246   2
   9   5   5 18.2409 2.73358   2
  10   5   5 2.76237 5.16931   2
 -17   6   5 1.09840 2.28496   2
 -16   6   5 7.29382 1.23674   2
 -15   6   5 10.9207 1.15070   2
 -14   6   5 0.88671 1.66895  -1
 -14   5   5 0.88671 1.66895   2
 -13   6   5 31.4178 1.55693  -1
 -13   5   5 31.4178 1.55693   2
 -12   6   5 0.66689 1.35124  -1
 -12   5   5 0.66689 1.35124   2
 -11   6   5 1.09340 1.41539  -1
 -11   5   5 1.09340 1.41539   2
 -10   6   5 18.5657 2.59467  -1
 -10   5   5 18.5657 2.59467   2
  -9   6   5 3.36257 0.61927   2
  -9   6   5 -0.3982 3.48790  -1
  -9   5   5 -0.3982 3.48790   2
  -8   6   5 -1.5131 2.97414  -1
  -8   6   5 -1.5131 2.97414   2
  -7   6   5 47.1231 3.69412  -1
  -7   6   5 47.1231 3.69412   2
  -6   6   5 33.7902 2.12842  -1
  -6   6   5 33.7902 2.12842   2
  -5   6   5 1.04506 2.04672  -1
  -5   6   5 1.04506 2.04672   2
  -4   6   5 4.99164 0.45953   2
  -3   6   5 37.0844 0.83938   2
  -2   6   5 28.1379 0.88498   2
  -1   6   5 37.3786 0.85717   2
   0   6   5 78.3106 1.17350   2
   1   6   5 50.6335 1.22907   2
   2   6   5 46.8313 1.85839   2
   3   6   5 48.3503 2.32243   2
   5   6   5 0.13560 0.87997   2
   6   6   5 -1.1811 1.36592   2
   7   6   5 35.2621 2.66783   2
   8   6   5 -2.4762 5.31192   2
   9   6   5 -2.8413 5.25463   2
  10   6   5 1.55944 5.52006   2
 -17   7   5 7.81810 2.56261   2
 -16   7   5 3.54326 1.30886   2
 -15   7   5 3.74621 1.14010   2
 -14   7   5 -2.8305 2.48360  -1
 -14   6   5 -2.8305 2.48360   2
 -13   7   5 0.64611 2.14066  -1
 -13   6   5 0.64611 2.14066   2
 -12   7   5 12.6535 3.08932  -1
 -12   6   5 12.6535 3.08932   2
 -11   7   5 10.9029 3.25420  -1
 -11   6   5 10.9029 3.25420   2
 -10   7   5 2.73727 0.81031   2
 -10   7   5 35.7728 3.91517  -1
 -10   6   5 35.7728 3.91517   2
  -9   7   5 7.00733 0.73217   2
  -8   7   5 -2.6556 3.48423  -1
  -8   7   5 -2.6556 3.48423   2
  -7   7   5 -0.6066 2.29984  -1
  -7   7   5 -0.6066 2.29984   2
  -6   7   5 17.8872 2.44992  -1
  -6   7   5 17.8872 2.44992   2
  -5   7   5 41.2137 0.87224   2
  -4   7   5 1.02832 0.42275   2
  -3   7   5 20.4098 0.73729   2
  -2   7   5 17.8338 0.67493   2
  -1   7   5 19.5300 0.77111   2
   0   7   5 1.37491 0.78460   2
   1   7   5 1.29197 0.46446   2
   2   7   5 0.04703 0.96502   2
   3   7   5 -0.5789 1.23355   2
   4   7   5 5.77877 2.17277   2
   5   7   5 2.35719 2.13671   2
   6   7   5 5.30317 2.58711   2
   7   7   5 33.5755 4.50111   2
   8   7   5 -1.8587 6.05799   2
   9   7   5 -2.5728 6.34696   2
  10   7   5 2.13719 6.08634   2
  10   7   5 7.53949 14.2660  -1
   9   9   4 7.53949 14.2660   2
 -16   8   5 -0.2188 1.38244   2
 -15   8   5 0.90445 1.22073   2
 -14   8   5 0.43748 4.18506  -1
 -14   7   5 0.43748 4.18506   2
 -13   8   5 0.10333 3.69098  -1
 -13   7   5 0.10333 3.69098   2
 -12   8   5 11.4110 3.56692  -1
 -12   7   5 11.4110 3.56692   2
 -11   8   5 14.3387 1.06404   2
 -11   8   5 23.3056 3.91330  -1
 -11   7   5 23.3056 3.91330   2
 -10   8   5 20.0646 1.13602   2
  -9   8   5 3.93013 0.73524   2
  -8   8   5 10.1545 3.97475  -1
  -8   8   5 10.1545 3.97475   2
  -7   8   5 5.35436 2.95039  -1
  -8   8   5 5.35436 2.95039   2
  -7   8   5 2.67005 2.02346  -1
  -7   8   5 2.67005 2.02346   2
  -6   8   5 8.59956 2.70217  -1
  -7   8   5 8.59956 2.70217   2
  -6   8   5 14.0410 2.71872  -1
  -6   8   5 14.0410 2.71872   2
  -5   8   5 14.4481 2.48522  -1
  -6   8   5 14.4481 2.48522   2
  -4   8   5 -0.4132 0.46553   2
  -4   8   5 6.90385 5.01693  -1
  -5   8   5 6.90385 5.01693   2
  -3   8   5 0.40253 0.70130   2
  -2   8   5 10.8578 1.01721   2
  -1   8   5 2.36224 1.27864   2
   0   8   5 0.86219 1.82587   2
   1   8   5 9.44489 2.34610   2
   2   8   5 21.7246 2.81951   2
   3   8   5 37.7153 3.50106   2
   4   8   5 11.5351 2.62148   2
   5   8   5 18.0384 3.08047   2
   6   8   5 9.44338 2.97217   2
   7   8   5 1.51659 2.72912   2
   8   8   5 -2.5992 6.99117   2
   9   8   5 -1.2326 7.22765   2
   9   8   5 9.92319 15.1512  -1
   8  10   4 9.92319 15.1512   2
  10   8   5 24.6624 14.3166  -1
   9  10   4 24.6624 14.3166   2
 -13   9   5 5.09618 4.25767  -1
 -14   8   5 5.09618 4.25767   2
 -12   9   5 23.4656 4.07011  -1
 -13   8   5 23.4656 4.07011   2
 -11   9   5 50.5712 4.45938  -1
 -12   8   5 50.5712 4.45938   2
 -10   9   5 23.8354 1.47739   2
  -9   9   5 2.47341 4.02071  -1
  -9   9   5 2.47341 4.02071   2
  -8   9   5 4.99875 4.13793  -1
  -9   9   5 4.99875 4.13793   2
  -8   9   5 4.87814 4.25796  -1
  -8   9   5 4.87814 4.25796   2
  -7   9   5 4.72727 4.04598  -1
  -8   9   5 4.72727 4.04598   2
  -7   9   5 6.99458 4.32958  -1
  -7   9   5 6.99458 4.32958   2
  -6   9   5 1.55132 2.18290  -1
  -7   9   5 1.55132 2.18290   2
  -5   9   5 -2.0071 1.88244  -1
  -6   9   5 -2.0071 1.88244   2
  -4   9   5 -0.3690 0.65013   2
  -4   9   5 -3.5532 2.08028  -1
  -5   9   5 -3.5532 2.08028   2
  -3   9   5 18.1391 1.77490   2
  -2   9   5 0.12661 1.91808   2
  -1   9   5 -0.5283 1.94614   2
   0   9   5 7.73144 2.31190   2
   1   9   5 1.93997 2.21049   2
   2   9   5 -1.5476 2.26580   2
   3   9   5 6.05304 2.60092   2
   4   9   5 5.57691 2.68034   2
   5   9   5 2.65557 2.60604   2
   6   9   5 4.04803 3.02776   2
   7   9   5 -0.2543 3.03464   2
   8   9   5 6.40929 7.76513   2
 -15  10   5 10.7845 7.04448  -1
 -16   9   5 10.7845 7.04448   2
 -14  10   5 5.04211 3.63709  -1
 -15   9   5 5.04211 3.63709   2
 -13  10   5 0.57080 4.73467  -1
 -14   9   5 0.57080 4.73467   2
 -12  10   5 33.2859 3.24835  -1
 -13   9   5 33.2859 3.24835   2
 -11  10   5 46.2948 3.33447  -1
 -12   9   5 46.2948 3.33447   2
 -10  10   5 35.3982 4.86668  -1
 -11   9   5 35.3982 4.86668   2
 -10  10   5 3.03421 4.39723  -1
 -10  10   5 3.03421 4.39723   2
  -9  10   5 5.70849 4.54038  -1
  -9  10   5 5.70849 4.54038   2
  -8  10   5 3.15680 4.39815  -1
  -9  10   5 3.15680 4.39815   2
  -8  10   5 -6.5800 4.43879  -1
  -8  10   5 -6.5800 4.43879   2
  -7  10   5 -3.7645 2.75948  -1
  -8  10   5 -3.7645 2.75948   2
  -7  10   5 17.8040 4.81922  -1
  -7  10   5 17.8040 4.81922   2
  -6  10   5 11.6066 2.90927  -1
  -7  10   5 11.6066 2.90927   2
  -5  10   5 0.43083 1.43164   2
  -5  10   5 24.3145 3.23439  -1
  -6  10   5 24.3145 3.23439   2
  -4  10   5 2.38142 1.20130   2
  -3  10   5 -1.9367 2.05154   2
  -2  10   5 -2.2172 1.99480   2
  -1  10   5 0.09260 2.11552   2
   0  10   5 1.28705 2.30073   2
   1  10   5 -0.3647 2.39977   2
   2  10   5 1.07033 2.66076   2
   3  10   5 4.12709 2.94818   2
   4  10   5 5.11220 3.11427   2
   5  10   5 -0.7827 3.01554   2
   6  10   5 -0.8716 3.33820   2
 -15  11   5 3.70405 4.77622  -1
 -16  10   5 3.70405 4.77622   2
 -14  11   5 2.82645 3.82646  -1
 -15  10   5 2.82645 3.82646   2
 -13  11   5 11.8187 3.43035  -1
 -14  10   5 11.8187 3.43035   2
 -12  11   5 35.1186 3.11041  -1
 -13  10   5 35.1186 3.11041   2
 -11  11   5 32.1478 3.54624  -1
 -12  10   5 32.1478 3.54624   2
 -11  11   5 10.3475 5.03869  -1
 -11  11   5 10.3475 5.03869   2
 -10  11   5 5.38644 4.97303  -1
 -10  11   5 5.38644 4.97303   2
 -10  11   5 22.1501 5.20700  -1
 -11  10   5 22.1501 5.20700   2
  -9  11   5 41.4311 5.41432  -1
  -9  11   5 41.4311 5.41432   2
  -8  11   5 48.9164 5.61675  -1
  -8  11   5 48.9164 5.61675   2
  -7  11   5 26.4300 2.23361   2
  -7  11   5 49.7093 6.24188  -1
  -8  11   5 49.7093 6.24188   2
  -6  11   5 5.97497 1.73323   2
  -5  11   5 -1.7032 1.52599   2
  -4  11   5 22.1456 3.14731   2
  -3  11   5 0.45361 2.36566   2
  -2  11   5 8.38941 2.76788   2
  -1  11   5 -0.0604 2.56004   2
   0  11   5 6.44067 2.92159   2
   1  11   5 0.85392 2.95307   2
   2  11   5 -1.0437 3.21207   2
   3  11   5 -2.4193 3.21573   2
   3  11   5 36.1539 8.87267  -1
   2  12   4 36.1539 8.87267   2
   4  11   5 4.19413 3.48936   2
   4  11   5 15.7708 7.17142  -1
   3  12   4 15.7708 7.17142   2
   5  11   5 1.23684 3.63334   2
   6  11   5 0.21394 3.79204   2
 -14  12   5 7.72178 4.10995  -1
 -15  11   5 7.72178 4.10995   2
 -13  12   5 13.8111 3.56408  -1
 -14  11   5 13.8111 3.56408   2
 -12  12   5 5.78660 5.46967  -1
 -12  12   5 5.78660 5.46967   2
 -12  12   5 3.60508 3.35881  -1
 -13  11   5 3.60508 3.35881   2
 -11  12   5 5.49929 4.33887  -1
 -12  11   5 5.49929 4.33887   2
 -11  12   5 7.25464 5.50463  -1
 -11  12   5 7.25464 5.50463   2
 -10  12   5 28.5233 3.41933   2
  -9  12   5 40.5206 2.90304   2
  -8  12   5 8.35192 2.19782   2
  -7  12   5 2.02617 1.98713   2
  -6  12   5 8.63411 2.08387   2
  -5  12   5 22.7226 2.41299   2
  -4  12   5 11.7560 3.06182   2
  -3  12   5 6.24480 3.00424   2
  -2  12   5 2.47188 3.10587   2
  -1  12   5 3.44617 3.23077   2
   0  12   5 6.65973 3.52127   2
   1  12   5 44.5121 10.7303  -1
   0  13   4 44.5121 10.7303   2
   2  12   5 38.7835 7.35471  -1
   1  13   4 38.7835 7.35471   2
   3  12   5 8.87688 7.10704  -1
   2  13   4 8.87688 7.10704   2
   4  12   5 -1.7171 3.79517   2
   4  12   5 9.82265 7.76067  -1
   3  13   4 9.82265 7.76067   2
   5  12   5 -3.5034 13.6271  -1
   4  13   4 -3.5034 13.6271   2
   5  12   5 0.33823 4.02539   2
   6  12   5 1.41687 4.10448   2
 -14  13   5 11.4503 6.94529  -1
 -15  12   5 11.4503 6.94529   2
 -13  13   5 7.91582 5.05947  -1
 -14  12   5 7.91582 5.05947   2
 -12  13   5 20.6821 9.66416  -1
 -13  12   5 20.6821 9.66416   2
 -12  13   5 6.22210 3.59182   2
 -11  13   5 9.96558 9.25368  -1
 -12  12   5 9.96558 9.25368   2
 -11  13   5 11.2138 3.47263   2
 -10  13   5 34.5687 3.79191   2
  -9  13   5 20.8215 2.77442   2
  -8  13   5 11.2197 2.52876   2
  -7  13   5 10.2720 2.47259   2
  -6  13   5 15.2039 2.59327   2
  -5  13   5 14.7179 2.62672   2
  -4  13   5 2.48249 3.37904   2
  -3  13   5 3.43353 3.57077   2
  -2  13   5 2.90110 3.68793   2
  -1  13   5 3.53460 3.83742   2
   1  13   5 10.5601 8.12595  -1
   0  14   4 10.5601 8.12595   2
   2  13   5 12.6328 7.82225  -1
   1  14   4 12.6328 7.82225   2
   3  13   5 4.62473 7.66097  -1
   2  14   4 4.62473 7.66097   2
   4  13   5 9.82476 8.64342  -1
   3  14   4 9.82476 8.64342   2
   4  13   5 0.30477 4.41001   2
   5  13   5 4.85922 15.3229  -1
   4  14   4 4.85922 15.3229   2
   5  13   5 1.40965 4.53204   2
 -13  14   5 34.4204 8.96877  -1
 -14  13   5 34.4204 8.96877   2
 -13  14   5 11.1194 5.55797   2
 -12  14   5 6.56675 3.94199   2
 -12  14   5 14.0022 10.4138  -1
 -13  13   5 14.0022 10.4138   2
 -11  14   5 17.9471 4.00912   2
 -10  14   5 17.4307 3.82842   2
  -9  14   5 8.75894 2.83813   2
  -7  14   5 13.9642 2.92863   2
  -6  14   5 10.0338 2.85660   2
  -5  14   5 7.54729 2.83400   2
  -4  14   5 -2.4881 3.84334   2
  -3  14   5 14.2554 4.47165   2
  -2  14   5 6.07625 4.25796   2
   1  14   5 10.3259 9.17298  -1
   0  15   4 10.3259 9.17298   2
   2  14   5 3.21993 8.84203  -1
   1  15   4 3.21993 8.84203   2
   3  14   5 -2.7107 8.36930  -1
   2  15   4 -2.7107 8.36930   2
   4  14   5 -1.0479 4.91146   2
   4  14   5 1.76695 9.71236  -1
   3  15   4 1.76695 9.71236   2
 -12  15   5 18.5081 4.49196   2
 -11  15   5 25.2565 4.51684   2
 -10  15   5 15.7893 4.16740   2
  -9  15   5 6.22280 3.15337   2
  -7  15   5 2.93335 8.20247  -1
  -8  15   4 2.93335 8.20247   2
  -6  15   5 -4.2754 7.95506  -1
  -7  15   4 -4.2754 7.95506   2
  -5  15   5 23.8641 7.83577  -1
  -6  15   4 23.8641 7.83577   2
  -5  15   5 9.23209 3.24010   2
  -4  15   5 8.99674 4.77813   2
  -4  15   5 21.9829 6.38096  -1
  -5  15   4 21.9829 6.38096   2
  -3  15   5 3.22376 4.57886   2
  -2  15   5 2.00075 4.61947   2
   1  15   5 6.60834 9.91630  -1
   0  16   4 6.60834 9.91630   2
   2  15   5 11.4515 9.76193  -1
   1  16   4 11.4515 9.76193   2
 -10  16   5 3.27528 4.38704   2
  -7  16   5 -3.9513 9.09530  -1
  -8  16   4 -3.9513 9.09530   2
  -6  16   5 -0.8359 6.50022  -1
  -7  16   4 -0.8359 6.50022   2
  -5  16   5 0.81805 6.75115  -1
  -6  16   4 0.81805 6.75115   2
  -4  16   5 5.78296 7.08660  -1
  -5  16   4 5.78296 7.08660   2
  -4  16   5 5.53852 5.14551   2
  -3  16   5 4.32934 5.19007   2
  -2  16   5 12.6273 5.45419   2
  -7  17   5 2.41498 9.96742  -1
  -8  17   4 2.41498 9.96742   2
  -7  17   5 15.0717 4.03035   2
  -6  17   5 8.11175 7.33264  -1
  -7  17   4 8.11175 7.33264   2
  -6  17   5 3.70833 3.88057   2
  -5  17   5 -1.4244 7.43768  -1
  -6  17   4 -1.4244 7.43768   2
  -5  17   5 8.28064 3.98770   2
  -4  17   5 1.03535 7.80338  -1
  -5  17   4 1.03535 7.80338   2
  -4  17   5 3.19191 5.68402   2
  -3  17   5 9.48133 5.79921   2
  -2 -17   6 2.11608 7.16400   2
  -1 -17   6 12.6204 11.0900  -1
   0 -17   7 12.6204 11.0900   2
   0 -17   6 11.9603 16.3560  -1
   1 -17   7 11.9603 16.3560   2
   2 -17   6 3.77707 5.34618   2
   3 -17   6 0.76113 5.15899   2
   4 -17   6 22.2602 10.9555  -1
   5 -16   7 22.2602 10.9555   2
   4 -17   6 5.05355 3.82053   2
  -4 -16   6 3.27668 4.74313   2
  -4 -16   6 -4.7412 15.1055  -1
  -3 -16   7 -4.7412 15.1055   2
  -3 -16   6 16.9504 9.79222  -1
  -2 -16   7 16.9504 9.79222   2
  -3 -16   6 -2.5653 4.52885   2
  -2 -16   6 24.1671 7.85422  -1
  -1 -16   7 24.1671 7.85422   2
  -1 -16   6 27.5847 10.1487  -1
   0 -16   7 27.5847 10.1487   2
   0 -16   6 14.9418 10.1665  -1
   1 -16   7 14.9418 10.1665   2
   3 -16   6 11.7965 5.05528   2
   4 -16   6 19.4111 3.97269   2
   5 -16   6 10.0630 3.54608   2
   7 -16   6 5.90330 5.37091   2
  -6 -15   6 4.03202 6.99596   2
  -5 -15   6 2.84158 4.12676   2
  -5 -15   6 7.65890 13.7376  -1
  -4 -15   7 7.65890 13.7376   2
  -4 -15   6 5.52755 13.3496  -1
  -3 -15   7 5.52755 13.3496   2
  -4 -15   6 4.12765 4.21051   2
  -3 -15   6 15.7454 8.51988  -1
  -2 -15   7 15.7454 8.51988   2
  -2 -15   6 15.9287 8.74404  -1
  -1 -15   7 15.9287 8.74404   2
  -1 -15   6 17.3441 8.76577  -1
   0 -15   7 17.3441 8.76577   2
   2 -15   6 4.00758 4.34034   2
   3 -15   6 4.21692 4.45272   2
   4 -15   6 6.52645 3.14319   2
   5 -15   6 3.01276 3.04181   2
   6 -15   6 5.51158 3.15171   2
   7 -15   6 6.27031 4.98782   2
   8 -15   6 4.36158 4.94010   2
  -6 -14   6 2.84416 6.46314   2
  -5 -14   6 -15.074 11.8107  -1
  -4 -14   7 -15.074 11.8107   2
  -5 -14   6 7.65038 3.72511   2
  -4 -14   6 0.48269 3.47601   2
  -4 -14   6 0.99646 7.52135  -1
  -3 -14   7 0.99646 7.52135   2
  -3 -14   6 0.44181 7.42380  -1
  -2 -14   7 0.44181 7.42380   2
  -2 -14   6 1.78770 7.71102  -1
  -1 -14   7 1.78770 7.71102   2
  -1 -14   6 30.9905 12.1418  -1
   0 -14   7 30.9905 12.1418   2
   1 -14   6 4.62292 3.83324   2
   2 -14   6 -0.9340 3.68259   2
   3 -14   6 3.21062 3.94329   2
   4 -14   6 4.88718 2.75968   2
   5 -14   6 7.05653 2.80173   2
   6 -14   6 7.04154 3.06681   2
   7 -14   6 4.78256 4.44316   2
   8 -14   6 12.3492 11.6487  -1
   9 -13   6 12.3492 11.6487   2
   8 -14   6 2.48013 4.49396   2
   9 -14   6 7.03409 11.3685  -1
  10 -13   6 7.03409 11.3685   2
   9 -14   6 4.23323 4.72893   2
  -7 -13   6 2.28162 5.56184   2
  -6 -13   6 5.36792 5.49903   2
  -5 -13   6 -2.0953 10.3793  -1
  -4 -13   7 -2.0953 10.3793   2
  -5 -13   6 2.13084 3.06530   2
  -4 -13   6 3.18187 3.11833   2
  -4 -13   6 -7.8129 6.35320  -1
  -3 -13   7 -7.8129 6.35320   2
  -3 -13   6 -2.9753 6.56132  -1
  -2 -13   7 -2.9753 6.56132   2
  -2 -13   6 3.76197 9.44453  -1
  -1 -13   7 3.76197 9.44453   2
   1 -13   6 3.99304 1.99723   2
   2 -13   6 5.33880 1.98622   2
   3 -13   6 15.4122 4.00050   2
   4 -13   6 12.9415 2.68887   2
   5 -13   6 9.42576 2.67380   2
   6 -13   6 9.49970 2.76162   2
   7 -13   6 6.44104 2.67360   2
   7 -13   6 12.2871 6.94060  -1
   8 -12   6 12.2871 6.94060   2
   8 -13   6 10.8737 7.52865  -1
   9 -12   6 10.8737 7.52865   2
   8 -13   6 6.28688 4.18808   2
   9 -13   6 3.59974 9.67432  -1
  10 -12   6 3.59974 9.67432   2
  -9 -12   6 11.2424 10.5795  -1
  -8 -13   7 11.2424 10.5795   2
  -7 -12   6 0.34782 4.68446   2
  -6 -12   6 1.41344 4.65526   2
  -5 -12   6 -0.7361 2.54171   2
  -4 -12   6 -0.8184 2.59465   2
  -3 -12   6 -0.0105 2.71248   2
  -3 -12   6 22.9164 7.80555  -1
  -2 -12   7 22.9164 7.80555   2
  -2 -12   6 7.02750 2.05541   2
  -1 -12   6 1.34961 1.76914   2
   0 -12   6 -0.5188 1.68198   2
   1 -12   6 19.9156 2.24733   2
   2 -12   6 9.14516 1.95719   2
   3 -12   6 23.9985 2.30071   2
   4 -12   6 7.78962 2.22641   2
   4 -12   6 17.8419 4.72425  -1
   5 -11   6 17.8419 4.72425   2
   5 -12   6 15.0959 4.17031  -1
   6 -11   6 15.0959 4.17031   2
   5 -12   6 16.2737 2.46288   2
   6 -12   6 11.4283 2.30753   2
   6 -12   6 17.2347 6.13814  -1
   7 -11   6 17.2347 6.13814   2
   7 -12   6 6.55839 6.39261  -1
   8 -11   6 6.55839 6.39261   2
   7 -12   6 6.41222 3.65851   2
   8 -12   6 11.9536 6.40907  -1
   9 -11   6 11.9536 6.40907   2
  11 -12   6 -0.2903 7.22839   2
  11 -12   6 7.70992 16.1164  -1
  12 -10   6 7.70992 16.1164   2
 -11 -11   6 2.25722 5.57482  -1
 -10 -12   7 2.25722 5.57482   2
  -6 -11   6 -1.7007 2.25289   2
  -5 -11   6 1.95550 1.42096   2
  -4 -11   6 13.4412 2.73821   2
  -3 -11   6 9.96472 1.92836   2
  -2 -11   6 2.05482 1.60365   2
  -1 -11   6 0.49260 1.53340   2
   0 -11   6 0.22351 1.47156   2
   1 -11   6 24.7469 2.13067   2
   2 -11   6 25.2990 2.14630   2
   3 -11   6 26.2167 1.77085   2
   4 -11   6 6.98937 3.63170  -1
   5 -10   6 6.98937 3.63170   2
   4 -11   6 -1.2734 1.59175   2
   5 -11   6 16.4454 2.90474  -1
   6 -10   6 16.4454 2.90474   2
   6 -11   6 31.5899 3.51562  -1
   7 -10   6 31.5899 3.51562   2
   7 -11   6 11.8596 5.68186  -1
   8 -10   6 11.8596 5.68186   2
   8 -11   6 8.96586 5.98647  -1
   9 -10   6 8.96586 5.98647   2
  10 -11   6 9.90004 3.87257   2
  11 -11   6 4.52499 7.59698   2
 -12 -10   6 6.36791 6.27198  -1
 -11 -11   7 6.36791 6.27198   2
 -11 -10   6 8.78155 4.93500  -1
 -10 -11   7 8.78155 4.93500   2
 -10 -10   6 8.92018 4.41577  -1
  -9 -11   7 8.92018 4.41577   2
  -9 -10   6 26.0930 4.77173  -1
  -8 -11   7 26.0930 4.77173   2
  -8 -10   6 50.8518 5.44392  -1
  -7 -11   7 50.8518 5.44392   2
  -6 -10   6 -0.0142 1.25551   2
  -5 -10   6 1.61811 0.97391   2
  -4 -10   6 -0.2416 0.94280   2
  -3 -10   6 -0.0850 1.07934   2
  -2 -10   6 0.01573 1.43038   2
  -1 -10   6 6.01708 1.60030   2
   0 -10   6 6.58490 1.59466   2
   1 -10   6 2.14239 1.31076   2
   2 -10   6 23.5712 4.15270   2
   3 -10   6 9.66679 1.71481   2
   4 -10   6 11.1367 2.98624  -1
   5  -9   6 11.1367 2.98624   2
   4 -10   6 0.08733 1.48091   2
   5 -10   6 18.8884 2.90369  -1
   6  -9   6 18.8884 2.90369   2
   6 -10   6 23.9576 3.15191  -1
   7  -9   6 23.9576 3.15191   2
   7 -10   6 24.8576 5.30412  -1
   8  -9   6 24.8576 5.30412   2
   8 -10   6 9.76041 5.62095  -1
   9  -9   6 9.76041 5.62095   2
  10 -10   6 10.4921 3.84910   2
  11 -10   6 -2.2623 7.22089   2
 -13  -9   6 -1.1338 6.91409  -1
 -12 -10   7 -1.1338 6.91409   2
 -13  -9   6 1.68355 3.17352   2
 -12  -9   6 11.9473 5.67723  -1
 -11 -10   7 11.9473 5.67723   2
 -11  -9   6 6.03827 4.37604  -1
 -10 -10   7 6.03827 4.37604   2
 -11  -9   6 -0.2995 2.15964   2
 -10  -9   6 3.59417 1.97040   2
 -10  -9   6 13.6363 4.31199  -1
  -9 -10   7 13.6363 4.31199   2
  -9  -9   6 38.6419 4.97490  -1
  -8 -10   7 38.6419 4.97490   2
  -9  -9   6 0.85701 1.80025   2
  -8  -9   6 2.64420 1.51887   2
  -8  -9   6 31.7547 5.01055  -1
  -7 -10   7 31.7547 5.01055   2
  -7  -9   6 14.3581 1.78809   2
  -6  -9   6 0.58051 0.79902   2
  -5  -9   6 0.51945 0.82034   2
  -4  -9   6 -0.4668 0.71990   2
  -4  -9   6 -9.5234 4.54679  -1
  -3  -9   6 -9.5234 4.54679   2
  -3  -9   6 -1.3848 3.59909  -1
  -2  -9   6 -1.3848 3.59909   2
  -1  -9   6 3.95236 0.99049   2
   0  -9   6 7.06890 1.99120   2
   1  -9   6 -0.9533 1.77993   2
   2  -9   6 5.09521 2.14791   2
   3  -9   6 -0.4271 1.37843   2
   4  -9   6 12.3600 2.88631  -1
   5  -8   6 12.3600 2.88631   2
   4  -9   6 -0.8666 1.40533   2
   5  -9   6 10.8686 2.65223  -1
   6  -8   6 10.8686 2.65223   2
   6  -9   6 11.0184 2.89818  -1
   7  -8   6 11.0184 2.89818   2
   7  -9   6 19.4411 5.36259  -1
   8  -8   6 19.4411 5.36259   2
   8  -9   6 9.25485 11.2117  -1
   9  -8   6 9.25485 11.2117   2
  10  -9   6 3.34270 3.03819   2
  11  -9   6 -4.0481 6.85249   2
  12  -9   6 1.64810 7.54766   2
 -13  -8   6 6.49925 2.87341   2
 -12  -8   6 2.50361 2.27778   2
 -11  -8   6 1.36982 1.88221   2
 -10  -8   6 2.89464 1.01014   2
  -9  -8   6 -1.1857 0.91157   2
  -8  -8   6 12.2407 1.07048   2
  -7  -8   6 4.09183 0.83548   2
  -6  -8   6 9.14869 0.75388   2
  -5  -8   6 4.46718 0.64329   2
  -5  -8   6 -7.3349 4.13298  -1
  -4  -8   6 -7.3349 4.13298   2
  -4  -8   6 1.63336 3.29333  -1
  -3  -8   6 1.63336 3.29333   2
  -3  -8   6 0.69206 1.71085  -1
  -2  -8   6 0.69206 1.71085   2
  -2  -8   6 1.70246 1.99432  -1
  -1  -8   6 1.70246 1.99432   2
  -1  -8   6 2.72375 3.24417  -1
   0  -8   6 2.72375 3.24417   2
   1  -8   6 0.50918 1.10849   2
   2  -8   6 2.29266 1.88592   2
   3  -8   6 46.8386 2.53536   2
   4  -8   6 1.25964 1.33807   2
   5  -8   6 4.52893 2.65011  -1
   6  -7   6 4.52893 2.65011   2
   6  -8   6 10.5441 4.57560  -1
   7  -7   6 10.5441 4.57560   2
  10  -8   6 3.64587 2.90033   2
  11  -8   6 -0.1319 6.52835   2
  12  -8   6 -1.3824 6.67550   2
 -14  -7   6 5.84473 1.37239   2
 -13  -7   6 10.8837 1.30207   2
 -12  -7   6 4.07130 1.02054   2
 -11  -7   6 7.91293 1.06353   2
 -10  -7   6 11.3396 1.10617   2
  -9  -7   6 0.12507 0.85700   2
  -8  -7   6 25.7554 1.18183   2
  -7  -7   6 3.28952 0.77093   2
  -6  -7   6 35.6564 1.13886   2
  -5  -7   6 12.9365 0.71816   2
  -5  -7   6 -7.5545 3.72215  -1
  -4  -7   6 -7.5545 3.72215   2
  -4  -7   6 2.50428 1.87442  -1
  -3  -7   6 2.50428 1.87442   2
  -3  -7   6 8.61026 1.34939  -1
  -2  -7   6 8.61026 1.34939   2
  -2  -7   6 7.36457 1.80112  -1
  -1  -7   6 7.36457 1.80112   2
  -1  -7   6 17.6407 2.21820  -1
   0  -7   6 17.6407 2.21820   2
   0  -7   6 17.9909 4.04141  -1
   1  -7   6 17.9909 4.04141   2
   2  -7   6 2.83667 1.00895   2
   3  -7   6 5.41509 0.94191   2
   4  -7   6 0.43788 0.97317   2
   4  -7   6 1.19379 2.75771  -1
   5  -6   6 1.19379 2.75771   2
   5  -7   6 18.2785 1.79376   2
   5  -7   6 0.22311 4.44057  -1
   6  -6   6 0.22311 4.44057   2
   6  -7   6 6.85348 4.71531  -1
   7  -6   6 6.85348 4.71531   2
   8  -7   6 4.36157 2.59978   2
   9  -7   6 7.60619 2.84109   2
  10  -7   6 -0.1309 2.61223   2
  11  -7   6 -2.8389 11.2357  -1
  11  -5   6 -2.8389 11.2357   2
  11  -7   6 1.75375 6.10927   2
  12  -7   6 0.41198 6.52794   2
 -15  -6   6 5.96741 1.60496   2
 -14  -6   6 14.9596 1.35533   2
 -13  -6   6 10.8565 1.11726   2
 -12  -6   6 15.5399 1.15191   2
 -11  -6   6 13.6557 1.09532   2
 -10  -6   6 0.08483 0.73934   2
  -9  -6   6 0.86033 0.73908   2
  -8  -6   6 -0.7129 0.67990   2
  -7  -6   6 -0.3493 0.61060   2
  -6  -6   6 31.7852 1.03424   2
  -5  -6   6 25.8255 0.86613   2
  -5  -6   6 16.8543 1.74914  -1
  -4  -6   6 16.8543 1.74914   2
  -4  -6   6 26.2104 1.64826  -1
  -3  -6   6 26.2104 1.64826   2
  -3  -6   6 35.1387 1.73528  -1
  -2  -6   6 35.1387 1.73528   2
  -2  -6   6 1.65340 2.28690  -1
  -1  -6   6 1.65340 2.28690   2
  -1  -6   6 -3.3514 3.09383  -1
   0  -6   6 -3.3514 3.09383   2
   1  -6   6 5.59778 0.54977   2
   2  -6   6 5.73420 0.57616   2
   3  -6   6 0.62977 0.69286   2
   4  -6   6 3.33752 0.87782   2
   5  -6   6 36.2446 5.35143  -1
   5  -5   6 36.2446 5.35143   2
   6  -6   6 4.65263 5.19586  -1
   6  -5   6 4.65263 5.19586   2
   8  -6   6 3.26887 1.51124   2
   9  -6   6 -0.7868 2.08229   2
  10  -6   6 -3.4028 5.00312   2
  11  -6   6 -1.3010 9.62190  -1
  11  -4   6 -1.3010 9.62190   2
  11  -6   6 1.58772 5.84674   2
 -15  -5   6 11.0359 2.43818   2
 -14  -5   6 12.5634 1.15146   2
 -13  -5   6 12.4410 1.03236   2
 -12  -5   6 38.2336 1.49022   2
  -8  -5   6 21.6591 0.98424   2
  -7  -5   6 60.7604 1.33439   2
  -6  -5   6 31.3271 0.95807   2
  -5  -5   6 -0.9393 3.00322  -1
  -4  -5   6 -0.9393 3.00322   2
  -5  -5   6 14.7755 0.62630   2
  -4  -5   6 0.21923 1.67397  -1
  -3  -5   6 0.21923 1.67397   2
  -2  -5   6 0.96922 0.57257   2
  -2  -5   6 19.1421 3.26996  -1
  -1  -5   6 19.1421 3.26996   2
   0  -5   6 -0.0426 0.42610   2
   1  -5   6 8.85824 0.55854   2
   2  -5   6 25.5576 0.80674   2
   3  -5   6 -0.5269 0.47997   2
   3  -5   6 53.9752 2.46215  -1
   3  -4   6 53.9752 2.46215   2
   4  -5   6 25.0097 1.13970   2
   4  -5   6 16.2217 1.87317  -1
   4  -4   6 16.2217 1.87317   2
   5  -5   6 3.79495 3.95679  -1
   5  -4   6 3.79495 3.95679   2
   6  -5   6 8.95214 2.86966  -1
   6  -4   6 8.95214 2.86966   2
   7  -5   6 5.54685 2.48726  -1
   7  -4   6 5.54685 2.48726   2
   7  -5   6 7.72605 1.56679   2
   8  -5   6 3.58445 1.50154   2
   8  -5   6 2.10220 3.28216  -1
   8  -4   6 2.10220 3.28216   2
   9  -5   6 5.28302 1.64415   2
  10  -5   6 3.17585 5.01074   2
  10  -5   6 -3.7725 8.29738  -1
  10  -3   6 -3.7725 8.29738   2
  11  -5   6 7.76567 4.26151  -1
  11  -3   6 7.76567 4.26151   2
 -15  -4   6 0.00656 1.79170   2
 -14  -4   6 5.59574 1.59527   2
 -12  -4   6 20.8385 1.00534   2
 -12  -4   6 6.50342 3.07425  -1
 -11  -5   6 6.50342 3.07425   2
 -11  -4   6 -0.6356 2.03780  -1
 -10  -5   6 -0.6356 2.03780   2
 -11  -4   6 6.59822 0.69688   2
 -10  -4   6 34.1973 1.19451   2
 -10  -4   6 40.6456 3.58957  -1
  -9  -5   6 40.6456 3.58957   2
  -9  -4   6 85.2306 1.60200   2
  -8  -4   6 75.9636 1.41908   2
  -7  -4   6 175.016 2.01743   2
  -6  -4   6 71.6260 1.03496   2
  -5  -4   6 11.3298 0.55672   2
  -4  -4   6 77.9782 1.22029   2
  -3  -4   6 126.154 1.98689   2
  -2  -4   6 206.592 2.37682   2
  -1  -4   6 430.740 8.86752  -1
  -1  -4   6 430.740 8.86752   2
   0  -4   6 26.4876 2.97861  -1
   0  -4   6 26.4876 2.97861   2
   1  -4   6 104.590 1.18906   2
   2  -4   6 31.8865 2.32251  -1
   2  -3   6 31.8865 2.32251   2
   2  -4   6 15.3423 0.63829   2
   3  -4   6 64.6584 1.78580  -1
   3  -3   6 64.6584 1.78580   2
   4  -4   6 4.33720 1.62969  -1
   4  -3   6 4.33720 1.62969   2
   5  -4   6 6.18254 2.00194  -1
   5  -3   6 6.18254 2.00194   2
   6  -4   6 5.55347 2.64310  -1
   6  -3   6 5.55347 2.64310   2
   7  -4   6 0.50283 3.85318  -1
   7  -3   6 0.50283 3.85318   2
   8  -4   6 13.5149 3.30047  -1
   8  -3   6 13.5149 3.30047   2
   9  -4   6 4.65861 1.59358   2
  10  -4   6 5.08271 4.13513  -1
  10  -2   6 5.08271 4.13513   2
  10  -4   6 -1.2142 1.80160   2
  11  -4   6 10.6011 4.27484  -1
  11  -2   6 10.6011 4.27484   2
 -13  -3   6 17.7302 2.80935   2
 -12  -3   6 16.6360 2.64341   2
 -11  -3   6 54.1849 1.85492   2
 -10  -3   6 178.349 2.18570   2
  -9  -3   6 168.642 2.12072   2
  -8  -3   6 150.004 1.83992   2
  -7  -3   6 243.939 2.35483   2
  -6  -3   6 173.496 1.71447   2
  -5  -3   6 0.11893 0.35831   2
  -4  -3   6 1.93156 1.79304  -1
  -4  -3   6 1.93156 1.79304   2
  -3  -3   6 11.8969 2.77275  -1
  -3  -3   6 11.8969 2.77275   2
  -2  -3   6 0.18614 0.41839   2
  -1  -3   6 33.5308 2.81736  -1
  -1  -3   6 33.5308 2.81736   2
   0  -3   6 0.18002 0.36219   2
   1  -3   6 0.12220 0.36146   2
   2  -3   6 3.05992 2.49748  -1
   2  -2   6 3.05992 2.49748   2
   3  -3   6 1.96938 1.26357  -1
   3  -2   6 1.96938 1.26357   2
   4  -3   6 -0.0222 1.44047  -1
   4  -2   6 -0.0222 1.44047   2
   5  -3   6 40.9484 1.99841  -1
   5  -2   6 40.9484 1.99841   2
   6  -3   6 4.28472 2.99366  -1
   6  -2   6 4.28472 2.99366   2
   7  -3   6 11.5372 4.99465  -1
   7  -2   6 11.5372 4.99465   2
   8  -3   6 12.6077 5.26179  -1
   8  -2   6 12.6077 5.26179   2
   9  -3   6 -0.8337 1.32351   2
   9  -3   6 18.7652 4.50370  -1
   9  -2   6 18.7652 4.50370   2
  10  -3   6 -10.129 4.73361  -1
  10  -1   6 -10.129 4.73361   2
  11  -3   6 -6.2561 4.72564  -1
  11  -1   6 -6.2561 4.72564   2
 -12  -2   6 7.52767 2.15264   2
 -11  -2   6 139.244 5.27602   2
 -10  -2   6 127.298 4.89186   2
  -9  -2   6 191.417 3.30731   2
  -8  -2   6 228.192 2.27656   2
  -7  -2   6 209.911 1.93316   2
  -6  -2   6 184.839 3.11144  -1
  -6  -2   6 184.839 3.11144   2
  -5  -2   6 0.85786 1.21130  -1
  -5  -2   6 0.85786 1.21130   2
  -4  -2   6 3.27020 1.29869  -1
  -4  -2   6 3.27020 1.29869   2
  -3  -2   6 1.32401 1.52928  -1
  -3  -2   6 1.32401 1.52928   2
  -2  -2   6 190.359 4.76094  -1
  -2  -2   6 190.359 4.76094   2
  -1  -2   6 261.765 4.22959  -1
  -1  -2   6 261.765 4.22959   2
   0  -2   6 168.894 1.61092   2
   1  -2   6 261.112 2.04931   2
   2  -2   6 3.64717 2.49768  -1
   2  -1   6 3.64717 2.49768   2
   3  -2   6 48.6971 1.36861  -1
   3  -1   6 48.6971 1.36861   2
   4  -2   6 104.820 2.69985  -1
   4  -1   6 104.820 2.69985   2
   5  -2   6 52.6905 2.02590  -1
   5  -1   6 52.6905 2.02590   2
   6  -2   6 4.34775 3.08237  -1
   6  -1   6 4.34775 3.08237   2
   7  -2   6 6.91783 4.96851  -1
   7  -1   6 6.91783 4.96851   2
  10  -2   6 -0.5153 4.97914  -1
  10   0   6 -0.5153 4.97914   2
  11  -2   6 1.81186 4.77209  -1
  11   0   6 1.81186 4.77209   2
 -12  -1   6 9.87193 1.54693   2
 -11  -1   6 104.765 4.45385   2
 -10  -1   6 23.2215 2.40705   2
  -9  -1   6 95.3936 3.90808   2
  -8  -1   6 108.999 4.01993   2
  -7  -1   6 106.009 1.18725   2
  -6  -1   6 32.2317 1.45134  -1
  -6  -1   6 32.2317 1.45134   2
  -5  -1   6 374.575 3.80406  -1
  -5  -1   6 374.575 3.80406   2
  -4  -1   6 418.517 3.95892  -1
  -4  -1   6 418.517 3.95892   2
  -3  -1   6 251.622 3.87221  -1
  -3  -1   6 251.622 3.87221   2
  -2  -1   6 517.990 9.67996  -1
  -2  -1   6 517.990 9.67996   2
  -1  -1   6 145.205 4.05144  -1
  -1  -1   6 145.205 4.05144   2
   0  -1   6 103.899 3.77553  -1
   0  -1   6 103.899 3.77553   2
   1  -1   6 229.886 1.87930   2
   3  -1   6 96.9787 1.91893  -1
   3   0   6 96.9787 1.91893   2
   4  -1   6 115.832 3.15405  -1
   4   0   6 115.832 3.15405   2
   5  -1   6 17.6284 2.23369  -1
   5   0   6 17.6284 2.23369   2
   6  -1   6 40.8293 5.36591  -1
   6   0   6 40.8293 5.36591   2
   8  -1   6 5.21034 1.21637   2
   9  -1   6 15.3542 1.58032   2
 -13   0   6 21.6522 2.95244   2
 -12   0   6 7.19103 1.42966   2
 -11   0   6 17.4084 1.64580   2
 -10   0   6 26.4084 2.37512   2
  -9   0   6 54.6699 3.09419   2
  -8   0   6 127.329 2.33451   2
  -7   0   6 472.014 3.86603   2
  -6   0   6 393.625 4.55720  -1
  -6   0   6 393.625 4.55720   2
  -5   0   6 895.741 8.76471  -1
  -5   0   6 895.741 8.76471   2
  -4   0   6 489.087 4.48364  -1
  -4   0   6 489.087 4.48364   2
  -3   0   6 207.882 3.01210  -1
  -3   0   6 207.882 3.01210   2
  -2   0   6 208.079 3.41408  -1
  -2   0   6 208.079 3.41408   2
  -1   0   6 4.84041 2.12148  -1
  -1   0   6 4.84041 2.12148   2
   0   0   6 258.059 2.10881   2
   1   0   6 55.1159 0.91477   2
   2   0   6 94.3461 1.37675   2
   2   0   6 176.056 3.03458  -1
   2   1   6 176.056 3.03458   2
   3   0   6 91.1275 2.39522  -1
   3   1   6 91.1275 2.39522   2
   4   0   6 119.471 3.34229  -1
   4   1   6 119.471 3.34229   2
   7   0   6 2.02888 1.10311   2
   8   0   6 0.03531 1.08992   2
   9   0   6 1.25376 1.46884   2
  11   0   6 11.8499 5.53600  -1
  11   2   5 11.8499 5.53600   2
 -13   1   6 10.9751 2.48646   2
 -12   1   6 21.7750 2.78199   2
  -9   1   6 92.8486 2.66172   2
  -8   1   6 97.6497 1.59379   2
  -7   1   6 306.147 5.78603  -1
  -7   1   6 306.147 5.78603   2
  -6   1   6 474.671 5.38641  -1
  -6   1   6 474.671 5.38641   2
  -5   1   6 400.793 3.33813  -1
  -5   1   6 400.793 3.33813   2
  -4   1   6 123.369 1.68035  -1
  -4   1   6 123.369 1.68035   2
  -3   1   6 778.445 7.49178  -1
  -3   1   6 778.445 7.49178   2
  -2   1   6 183.537 3.18575  -1
  -2   1   6 183.537 3.18575   2
  -1   1   6 -1.0497 1.47173  -1
  -1   1   6 -1.0497 1.47173   2
   0   1   6 299.170 2.22227   2
   1   1   6 0.40885 0.35109   2
   2   1   6 48.6988 2.15317  -1
   2   2   6 48.6988 2.15317   2
   3   1   6 162.291 3.95418  -1
   3   2   6 162.291 3.95418   2
   4   1   6 75.2668 4.14875  -1
   4   2   6 75.2668 4.14875   2
   5   1   6 73.8867 1.98287   2
   6   1   6 55.4963 2.28335   2
   7   1   6 5.17686 1.18570   2
   8   1   6 1.10187 1.13632   2
   9   1   6 2.75115 1.97429   2
  10   1   6 12.4264 5.26418  -1
  10   3   5 12.4264 5.26418   2
  10   1   6 5.67854 2.28586   2
  11   1   6 -0.4628 5.60335   2
  11   1   6 36.0261 5.61843  -1
  11   3   5 36.0261 5.61843   2
 -11   2   6 35.0436 4.00154  -1
 -11   1   6 35.0436 4.00154   2
 -10   2   6 145.039 5.36302  -1
 -10   1   6 145.039 5.36302   2
  -9   2   6 30.9482 1.87706  -1
  -9   2   6 30.9482 1.87706   2
  -8   2   6 112.960 2.15963  -1
  -8   2   6 112.960 2.15963   2
  -7   2   6 82.6054 1.89407  -1
  -7   2   6 82.6054 1.89407   2
  -6   2   6 248.116 2.52966  -1
  -6   2   6 248.116 2.52966   2
  -5   2   6 403.177 3.09320  -1
  -5   2   6 403.177 3.09320   2
  -4   2   6 323.965 2.63172  -1
  -4   2   6 323.965 2.63172   2
  -3   2   6 718.038 7.04415  -1
  -3   2   6 718.038 7.04415   2
  -2   2   6 178.001 3.22394  -1
  -2   2   6 178.001 3.22394   2
  -1   2   6 31.9579 0.81912   2
   0   2   6 73.1289 1.03157   2
   1   2   6 1.91918 0.42541   2
   2   2   6 45.9117 4.19122  -1
   2   3   6 45.9117 4.19122   2
   3   2   6 146.168 5.77567  -1
   3   3   6 146.168 5.77567   2
   5   2   6 176.007 2.88608   2
   6   2   6 37.8831 1.78656   2
   7   2   6 7.94557 1.09677   2
   8   2   6 5.44854 1.31055   2
   9   2   6 10.4412 2.40603   2
  10   2   6 16.4534 5.50079  -1
  10   4   5 16.4534 5.50079   2
  10   2   6 4.81623 2.29855   2
 -13   3   6 43.6079 4.79166  -1
 -13   2   6 43.6079 4.79166   2
 -12   3   6 74.8168 4.35277  -1
 -12   2   6 74.8168 4.35277   2
 -11   3   6 58.0240 4.78112  -1
 -11   2   6 58.0240 4.78112   2
 -10   3   6 12.4660 2.66750  -1
 -10   2   6 12.4660 2.66750   2
 -10   3   6 7.18547 2.00436  -1
 -10   3   6 7.18547 2.00436   2
  -9   3   6 225.775 5.02227  -1
  -9   3   6 225.775 5.02227   2
  -8   3   6 279.735 4.13275  -1
  -8   3   6 279.735 4.13275   2
  -7   3   6 29.9102 1.57913  -1
  -7   3   6 29.9102 1.57913   2
  -6   3   6 28.1003 1.13318  -1
  -6   3   6 28.1003 1.13318   2
  -5   3   6 612.718 3.91068  -1
  -5   3   6 612.718 3.91068   2
  -4   3   6 1358.33 9.17999  -1
  -4   3   6 1358.33 9.17999   2
  -3   3   6 194.232 2.71671  -1
  -3   3   6 194.232 2.71671   2
  -2   3   6 28.2713 1.87655  -1
  -2   3   6 28.2713 1.87655   2
  -1   3   6 4.82960 0.44367   2
   0   3   6 9.68650 0.50223   2
   1   3   6 55.3568 1.16527   2
   4   3   6 66.4512 1.84702   2
   5   3   6 81.3581 2.11507   2
   6   3   6 23.1934 1.37755   2
   7   3   6 39.9231 2.15242   2
   8   3   6 36.1145 2.79016   2
   9   3   6 16.1298 2.70379   2
  10   3   6 -3.2972 5.37223   2
 -13   4   6 121.807 6.02873  -1
 -13   3   6 121.807 6.02873   2
 -12   4   6 35.5198 2.54776  -1
 -12   4   6 35.5198 2.54776   2
 -12   4   6 64.3448 4.52897  -1
 -12   3   6 64.3448 4.52897   2
 -11   4   6 23.3810 1.93247  -1
 -11   3   6 23.3810 1.93247   2
 -11   4   6 2.27829 2.41783  -1
 -11   4   6 2.27829 2.41783   2
 -10   4   6 114.334 3.79822  -1
 -10   4   6 114.334 3.79822   2
 -10   4   6 9.57041 1.65181  -1
 -10   3   6 9.57041 1.65181   2
  -9   4   6 226.494 5.77379  -1
  -9   3   6 226.494 5.77379   2
  -9   4   6 280.094 6.26129  -1
  -9   4   6 280.094 6.26129   2
  -8   4   6 155.325 3.06092  -1
  -8   4   6 155.325 3.06092   2
  -7   4   6 41.4568 1.68356  -1
  -7   4   6 41.4568 1.68356   2
  -6   4   6 11.0362 1.11773  -1
  -6   4   6 11.0362 1.11773   2
  -5   4   6 122.187 1.49371  -1
  -5   4   6 122.187 1.49371   2
  -4   4   6 531.856 5.71721  -1
  -4   4   6 531.856 5.71721   2
  -3   4   6 4.38110 2.42677  -1
  -3   4   6 4.38110 2.42677   2
  -2   4   6 86.0993 1.13494   2
  -1   4   6 91.0018 1.20205   2
   0   4   6 172.734 1.71403   2
   1   4   6 117.950 1.56215   2
   2   4   6 48.1674 1.14879   2
   3   4   6 33.5275 1.46385   2
   4   4   6 47.0760 1.73883   2
   5   4   6 52.4806 1.88760   2
   6   4   6 52.7442 2.25177   2
   7   4   6 75.3000 3.47211   2
   8   4   6 15.5944 2.96647   2
   9   4   6 -0.8618 4.80245   2
  10   4   6 -1.1664 5.75479   2
 -16   5   6 9.50664 1.91731   2
 -14   5   6 45.3902 3.49099  -1
 -14   5   6 45.3902 3.49099   2
 -13   5   6 95.3442 2.01950  -1
 -13   4   6 95.3442 2.01950   2
 -13   5   6 24.8141 3.15050  -1
 -13   5   6 24.8141 3.15050   2
 -12   5   6 36.6014 1.52801  -1
 -12   4   6 36.6014 1.52801   2
 -12   5   6 18.6386 2.86980  -1
 -12   5   6 18.6386 2.86980   2
 -11   5   6 5.39255 1.51609  -1
 -11   4   6 5.39255 1.51609   2
 -11   5   6 -0.9207 2.62616  -1
 -11   5   6 -0.9207 2.62616   2
 -10   5   6 114.798 5.73504  -1
 -10   4   6 114.798 5.73504   2
 -10   5   6 192.759 5.30318  -1
 -10   5   6 192.759 5.30318   2
  -9   5   6 153.689 4.68364  -1
  -9   5   6 153.689 4.68364   2
  -8   5   6 67.8945 2.11406  -1
  -8   5   6 67.8945 2.11406   2
  -7   5   6 135.798 2.60204  -1
  -7   5   6 135.798 2.60204   2
  -6   5   6 163.812 2.83183  -1
  -6   5   6 163.812 2.83183   2
  -5   5   6 331.938 3.73199  -1
  -5   5   6 331.938 3.73199   2
  -4   5   6 598.602 4.91264   2
  -3   5   6 549.621 10.9279  -1
  -3   5   6 549.621 10.9279   2
  -2   5   6 385.207 2.89148   2
  -1   5   6 123.283 1.45595   2
   0   5   6 232.321 1.99053   2
   1   5   6 58.6074 1.26030   2
   2   5   6 88.6396 1.79797   2
   3   5   6 8.40495 1.06284   2
   4   5   6 20.4367 1.24950   2
   4   5   6 23.4236 5.10283  -1
   4   6   5 23.4236 5.10283   2
   5   5   6 2.92766 1.50103   2
   6   5   6 3.34343 2.44559   2
   8   5   6 5.75759 2.82357   2
   9   5   6 -0.7610 5.17428   2
  10   5   6 -0.6522 5.82220   2
 -17   6   6 2.20461 2.14398   2
 -16   6   6 11.9234 1.25579   2
 -15   6   6 25.9033 3.56494  -1
 -15   5   6 25.9033 3.56494   2
 -14   6   6 46.4597 2.15591  -1
 -14   5   6 46.4597 2.15591   2
 -14   6   6 61.0547 4.17387  -1
 -14   6   6 61.0547 4.17387   2
 -13   6   6 24.5049 1.70650  -1
 -13   5   6 24.5049 1.70650   2
 -13   6   6 15.5830 3.35383  -1
 -13   6   6 15.5830 3.35383   2
 -12   6   6 18.6486 1.69549  -1
 -12   5   6 18.6486 1.69549   2
 -12   6   6 11.8350 3.12348  -1
 -12   6   6 11.8350 3.12348   2
 -11   6   6 4.53249 3.00316  -1
 -11   6   6 4.53249 3.00316   2
 -11   6   6 -3.8956 4.22968  -1
 -11   5   6 -3.8956 4.22968   2
 -10   6   6 210.399 7.46632  -1
 -10   5   6 210.399 7.46632   2
 -10   6   6 138.044 4.91679  -1
 -10   6   6 138.044 4.91679   2
  -9   6   6 128.336 4.79844  -1
  -9   6   6 128.336 4.79844   2
  -8   6   6 185.197 3.94480  -1
  -8   6   6 185.197 3.94480   2
  -7   6   6 270.884 3.98980  -1
  -7   6   6 270.884 3.98980   2
  -6   6   6 95.0023 2.45202  -1
  -6   6   6 95.0023 2.45202   2
  -5   6   6 202.307 4.14846  -1
  -5   6   6 202.307 4.14846   2
  -4   6   6 34.1924 3.41698  -1
  -4   6   6 34.1924 3.41698   2
  -3   6   6 289.150 2.51023   2
  -2   6   6 270.959 2.34090   2
  -1   6   6 363.882 2.90256   2
   0   6   6 234.111 2.54500   2
   1   6   6 135.236 2.78895   2
   2   6   6 85.0532 2.91360   2
   3   6   6 11.9961 1.39543   2
   4   6   6 1.81643 2.07989   2
   5   6   6 0.43993 2.14451   2
   6   6   6 4.26224 2.55882   2
   7   6   6 -1.2499 5.57798   2
   8   6   6 -4.0847 5.49696   2
   9   6   6 -2.4886 5.84966   2
  10   6   6 4.06916 6.51733   2
 -17   7   6 -3.0759 2.32864   2
 -16   7   6 1.30100 1.26019   2
 -15   7   6 15.8470 1.64362   2
 -15   7   6 25.5290 3.92304  -1
 -15   6   6 25.5290 3.92304   2
 -14   7   6 55.2704 2.65699  -1
 -14   6   6 55.2704 2.65699   2
 -14   7   6 35.2946 4.27040  -1
 -14   7   6 35.2946 4.27040   2
 -13   7   6 9.48633 2.60679  -1
 -13   6   6 9.48633 2.60679   2
 -13   7   6 5.95383 3.68055  -1
 -13   7   6 5.95383 3.68055   2
 -12   7   6 9.41417 3.60484  -1
 -12   7   6 9.41417 3.60484   2
 -11   7   6 93.2338 4.64473  -1
 -11   7   6 93.2338 4.64473   2
 -10   7   6 232.862 6.65742  -1
 -10   7   6 232.862 6.65742   2
  -9   7   6 221.284 4.58829  -1
  -9   7   6 221.284 4.58829   2
  -8   7   6 279.927 5.19986  -1
  -8   7   6 279.927 5.19986   2
  -7   7   6 93.3456 3.28489  -1
  -7   7   6 93.3456 3.28489   2
  -6   7   6 20.3784 2.63169  -1
  -6   7   6 20.3784 2.63169   2
  -5   7   6 117.681 3.67247  -1
  -5   7   6 117.681 3.67247   2
  -4   7   6 123.775 1.59017   2
  -3   7   6 316.534 2.77292   2
  -2   7   6 271.634 3.45011   2
  -1   7   6 224.196 4.38354   2
   0   7   6 12.8351 2.34965   2
   1   7   6 47.0634 3.39110   2
   2   7   6 4.78836 2.23128   2
   3   7   6 1.86152 2.37984   2
   4   7   6 1.53776 2.24905   2
   5   7   6 -0.4171 2.51122   2
   6   7   6 12.1503 3.04925   2
   7   7   6 17.3192 3.61824   2
   8   7   6 -5.3699 6.58086   2
   9   7   6 0.05993 6.49184   2
  10   7   6 3.45134 15.8846  -1
   9   9   5 3.45134 15.8846   2
  10   7   6 -1.6139 6.60348   2
 -16   8   6 2.64692 1.43160   2
 -15   8   6 15.4885 1.44603   2
 -14   8   6 38.7292 4.99193  -1
 -14   8   6 38.7292 4.99193   2
 -13   8   6 18.5158 4.32717  -1
 -13   8   6 18.5158 4.32717   2
 -12   8   6 13.7350 4.02648  -1
 -12   8   6 13.7350 4.02648   2
 -11   8   6 24.1052 4.08082  -1
 -11   8   6 24.1052 4.08082   2
 -10   8   6 17.2912 4.05337  -1
 -10   8   6 17.2912 4.05337   2
  -9   8   6 -0.4806 2.64652  -1
  -9   8   6 -0.4806 2.64652   2
  -8   8   6 3.61483 2.66355  -1
  -8   8   6 3.61483 2.66355   2
  -7   8   6 1.56797 2.12128  -1
  -7   8   6 1.56797 2.12128   2
  -7   8   6 3.53280 3.81456  -1
  -8   8   6 3.53280 3.81456   2
  -6   8   6 1.31606 2.39916  -1
  -7   8   6 1.31606 2.39916   2
  -6   8   6 22.1128 2.89562  -1
  -6   8   6 22.1128 2.89562   2
  -5   8   6 18.6742 3.25310  -1
  -6   8   6 18.6742 3.25310   2
  -5   8   6 43.5461 1.15420   2
  -4   8   6 173.762 2.08240   2
  -3   8   6 307.827 3.83236   2
  -2   8   6 235.402 4.61630   2
  -1   8   6 114.794 4.67076   2
   0   8   6 13.3740 2.52333   2
   1   8   6 149.101 5.43766   2
   2   8   6 87.9253 4.50953   2
   3   8   6 79.8859 4.54149   2
   4   8   6 45.4753 4.10673   2
   5   8   6 24.6798 3.56031   2
   6   8   6 24.7468 3.86877   2
   7   8   6 7.22344 3.16810   2
   8   8   6 -3.8906 15.9383  -1
   7  10   5 -3.8906 15.9383   2
   8   8   6 -1.4993 7.92068   2
   9   8   6 3.04460 7.60833   2
   9   8   6 -8.1961 14.4842  -1
   8  10   5 -8.1961 14.4842   2
 -16   9   6 1.14657 1.95466   2
 -14   9   6 23.5307 5.47843  -1
 -14   9   6 23.5307 5.47843   2
 -13   9   6 33.9275 5.12209  -1
 -13   9   6 33.9275 5.12209   2
 -12   9   6 21.1673 4.59381  -1
 -12   9   6 21.1673 4.59381   2
 -11   9   6 -5.1230 4.07557  -1
 -11   9   6 -5.1230 4.07557   2
 -10   9   6 1.50526 4.07262  -1
 -10   9   6 1.50526 4.07262   2
  -9   9   6 18.1389 4.33478  -1
  -9   9   6 18.1389 4.33478   2
  -8   9   6 57.3648 4.92175  -1
  -8   9   6 57.3648 4.92175   2
  -8   9   6 23.3700 4.51157  -1
  -9   9   6 23.3700 4.51157   2
  -7   9   6 47.6023 3.18557  -1
  -8   9   6 47.6023 3.18557   2
  -7   9   6 33.8711 4.79697  -1
  -7   9   6 33.8711 4.79697   2
  -6   9   6 35.2646 2.47617  -1
  -7   9   6 35.2646 2.47617   2
  -5   9   6 46.9549 2.36335  -1
  -6   9   6 46.9549 2.36335   2
  -4   9   6 7.96713 6.18768  -1
  -5   9   6 7.96713 6.18768   2
  -4   9   6 85.4068 2.00945   2
  -3   9   6 179.460 5.85893   2
  -2   9   6 76.3877 4.22146   2
  -1   9   6 1.93418 2.25334   2
   0   9   6 13.7399 2.73908   2
   1   9   6 84.4222 4.67716   2
   2   9   6 114.110 5.30427   2
   3   9   6 65.4066 4.68383   2
   4   9   6 31.2493 3.93180   2
   5   9   6 14.0887 3.61153   2
   6   9   6 25.7661 4.16991   2
   7   9   6 3.75755 3.52052   2
   8   9   6 -3.6926 16.4807  -1
   7  11   5 -3.6926 16.4807   2
 -14  10   6 2.41248 5.87634  -1
 -14  10   6 2.41248 5.87634   2
 -14  10   6 10.8890 5.01193  -1
 -15   9   6 10.8890 5.01193   2
 -13  10   6 15.7053 4.84352  -1
 -14   9   6 15.7053 4.84352   2
 -13  10   6 14.8760 5.33136  -1
 -13  10   6 14.8760 5.33136   2
 -12  10   6 30.8628 4.73099  -1
 -13   9   6 30.8628 4.73099   2
 -12  10   6 6.78597 4.77651  -1
 -12  10   6 6.78597 4.77651   2
 -11  10   6 0.97542 4.69852  -1
 -11  10   6 0.97542 4.69852   2
 -10  10   6 -1.0604 4.41238  -1
 -10  10   6 -1.0604 4.41238   2
  -9  10   6 17.1203 4.69286  -1
  -9  10   6 17.1203 4.69286   2
  -8  10   6 8.87283 4.34339  -1
  -9  10   6 8.87283 4.34339   2
  -8  10   6 10.1614 4.68671  -1
  -8  10   6 10.1614 4.68671   2
  -7  10   6 12.1588 2.59220  -1
  -8  10   6 12.1588 2.59220   2
  -6  10   6 19.1550 3.03667  -1
  -7  10   6 19.1550 3.03667   2
  -5  10   6 13.7490 3.24998  -1
  -6  10   6 13.7490 3.24998   2
  -5  10   6 46.0227 2.51532   2
  -4  10   6 77.0229 4.31593   2
  -3  10   6 204.972 6.56748   2
  -2  10   6 44.3199 3.92513   2
  -1  10   6 10.3480 2.78749   2
   0  10   6 36.3413 3.82202   2
   1  10   6 46.0685 4.36440   2
   2  10   6 93.9589 5.50420   2
   3  10   6 45.2342 4.66159   2
   4  10   6 10.6195 3.65809   2
   5  10   6 1.23323 3.62471   2
   6  10   6 2.73382 3.87551   2
   8  10   6 -1.8832 9.02851   2
 -15  11   6 0.58392 5.90195  -1
 -16  10   6 0.58392 5.90195   2
 -14  11   6 3.89640 5.17132  -1
 -15  10   6 3.89640 5.17132   2
 -14  11   6 0.23117 6.84536  -1
 -14  11   6 0.23117 6.84536   2
 -13  11   6 -5.3566 4.57617  -1
 -14  10   6 -5.3566 4.57617   2
 -13  11   6 16.4759 6.21839  -1
 -13  11   6 16.4759 6.21839   2
 -12  11   6 15.5910 5.24321  -1
 -12  11   6 15.5910 5.24321   2
 -12  11   6 13.6339 4.78163  -1
 -13  10   6 13.6339 4.78163   2
 -11  11   6 21.3390 5.35239  -1
 -11  11   6 21.3390 5.35239   2
 -10  11   6 1.48239 4.92499  -1
 -10  11   6 1.48239 4.92499   2
  -9  11   6 15.0153 5.13795  -1
  -9  11   6 15.0153 5.13795   2
  -7  11   6 11.1120 1.96955   2
  -7  11   6 8.93778 5.68501  -1
  -8  11   6 8.93778 5.68501   2
  -6  11   6 1.37525 1.63992   2
  -5  11   6 18.5074 2.12305   2
  -4  11   6 24.9427 3.38184   2
  -3  11   6 34.5692 3.73378   2
  -2  11   6 1.21679 2.72205   2
  -1  11   6 12.8523 3.31022   2
   0  11   6 30.8979 4.06409   2
   1  11   6 22.0227 4.07528   2
   2  11   6 4.49652 9.28325  -1
   1  12   5 4.49652 9.28325   2
   2  11   6 38.3278 4.61444   2
   3  11   6 1.63385 7.38713  -1
   2  12   5 1.63385 7.38713   2
   3  11   6 14.4210 4.07267   2
   4  11   6 2.87313 12.4799  -1
   3  12   5 2.87313 12.4799   2
   4  11   6 7.76271 4.08401   2
   5  11   6 9.41823 4.24602   2
 -14  12   6 9.20398 5.43138  -1
 -15  11   6 9.20398 5.43138   2
 -14  12   6 16.5630 7.83668  -1
 -14  12   6 16.5630 7.83668   2
 -13  12   6 8.18965 4.14990  -1
 -14  11   6 8.18965 4.14990   2
 -13  12   6 10.9952 6.67452  -1
 -13  12   6 10.9952 6.67452   2
 -12  12   6 16.2323 5.71651  -1
 -12  12   6 16.2323 5.71651   2
 -12  12   6 26.8167 8.20166  -1
 -13  11   6 26.8167 8.20166   2
 -11  12   6 6.98656 3.07444   2
 -10  12   6 3.16021 2.89337   2
  -9  12   6 23.6788 2.63357   2
  -8  12   6 27.1304 2.68141   2
  -7  12   6 11.9401 2.29335   2
  -6  12   6 0.69589 2.00236   2
  -5  12   6 0.05455 2.00991   2
  -4  12   6 23.1846 3.87249   2
  -3  12   6 15.3401 3.64210   2
  -2  12   6 11.7090 3.73245   2
  -1  12   6 25.2159 4.18270   2
   0  12   6 13.8001 4.05543   2
   1  12   6 -2.2842 7.31539  -1
   0  13   5 -2.2842 7.31539   2
   1  12   6 9.84060 6.35169   2
   2  12   6 6.01478 7.39894  -1
   1  13   5 6.01478 7.39894   2
   3  12   6 4.28544 7.90324  -1
   2  13   5 4.28544 7.90324   2
   3  12   6 2.86981 4.24643   2
   4  12   6 3.37894 8.72516  -1
   3  13   5 3.37894 8.72516   2
   4  12   6 9.37780 4.67413   2
   5  12   6 7.86200 4.69029   2
 -13  13   6 1.68365 5.11507   2
 -13  13   6 7.24043 9.55874  -1
 -14  12   6 7.24043 9.55874   2
 -12  13   6 19.2187 9.91922  -1
 -13  12   6 19.2187 9.91922   2
 -12  13   6 2.34471 3.44159   2
 -11  13   6 1.68571 3.27337   2
 -10  13   6 5.55241 3.23800   2
  -9  13   6 24.5482 2.93850   2
  -8  13   6 24.1007 2.88188   2
  -7  13   6 -1.6683 2.29761   2
  -6  13   6 -0.9855 2.36183   2
  -5  13   6 1.24515 2.45278   2
  -4  13   6 24.6849 4.33690   2
  -3  13   6 4.00056 3.87905   2
  -2  13   6 17.4263 4.34534   2
   0  13   6 -1.3292 11.9000  -1
  -1  14   5 -1.3292 11.9000   2
   1  13   6 0.64859 8.20407  -1
   0  14   5 0.64859 8.20407   2
   2  13   6 -2.1095 7.74336  -1
   1  14   5 -2.1095 7.74336   2
   3  13   6 3.64180 4.68707   2
   3  13   6 6.43246 8.83265  -1
   2  14   5 6.43246 8.83265   2
   4  13   6 -0.0939 4.79014   2
   4  13   6 -0.7633 9.61931  -1
   3  14   5 -0.7633 9.61931   2
 -13  14   6 4.08927 5.29455   2
 -13  14   6 5.70531 10.8238  -1
 -14  13   6 5.70531 10.8238   2
 -12  14   6 1.73902 3.80523   2
 -11  14   6 1.20982 3.67842   2
 -10  14   6 3.52020 3.66765   2
  -7  14   6 0.96691 2.78000   2
  -7  14   6 14.5062 8.83686  -1
  -8  14   5 14.5062 8.83686   2
  -6  14   6 3.77351 2.85164   2
  -5  14   6 0.80971 2.83088   2
  -4  14   6 4.49130 4.32943   2
  -3  14   6 4.80838 4.33060   2
   0  14   6 -0.7119 9.43155  -1
  -1  15   5 -0.7119 9.43155   2
   1  14   6 -0.0650 9.05184  -1
   0  15   5 -0.0650 9.05184   2
   2  14   6 -1.6563 8.54286  -1
   1  15   5 -1.6563 8.54286   2
   3  14   6 10.3195 9.86748  -1
   2  15   5 10.3195 9.86748   2
 -11  15   6 1.54011 4.05041   2
 -10  15   6 0.45656 3.90303   2
  -7  15   6 9.75182 8.01551  -1
  -8  15   5 9.75182 8.01551   2
  -6  15   6 13.0175 8.20506  -1
  -7  15   5 13.0175 8.20506   2
  -5  15   6 9.36321 11.4612  -1
  -6  15   5 9.36321 11.4612   2
  -5  15   6 2.16983 3.24921   2
  -4  15   6 -0.5527 4.70484   2
  -3  15   6 4.50680 4.86802   2
   0  15   6 13.0440 10.4524  -1
  -1  16   5 13.0440 10.4524   2
   1  15   6 17.5322 10.3801  -1
   0  16   5 17.5322 10.3801   2
  -8  16   6 -2.2497 9.05245  -1
  -9  16   5 -2.2497 9.05245   2
  -7  16   6 3.29889 8.93113  -1
  -8  16   5 3.29889 8.93113   2
  -6  16   6 5.17284 6.71045  -1
  -7  16   5 5.17284 6.71045   2
  -5  16   6 4.64394 7.15817  -1
  -6  16   5 4.64394 7.15817   2
  -5  16   6 2.17054 3.63824   2
  -4  16   6 21.8952 10.8516  -1
  -5  16   5 21.8952 10.8516   2
  -4  16   6 -1.4796 5.05164   2
  -3  16   6 3.87298 5.30680   2
   2 -17   7 -3.5273 5.12221   2
  -4 -16   7 -5.8315 9.94968  -1
  -3 -16   8 -5.8315 9.94968   2
  -4 -16   7 3.42023 4.79783   2
  -3 -16   7 8.99347 7.76782  -1
  -2 -16   8 8.99347 7.76782   2
  -2 -16   7 1.28321 10.1563  -1
  -1 -16   8 1.28321 10.1563   2
  -1 -16   7 4.13284 15.7649  -1
   0 -16   8 4.13284 15.7649   2
   2 -16   7 6.15227 5.11890   2
   3 -16   7 5.93691 3.54688   2
   3 -16   7 -8.8344 16.3941  -1
   4 -15   8 -8.8344 16.3941   2
   4 -16   7 8.07476 5.38135   2
  -6 -15   7 -8.8686 15.0553  -1
  -5 -15   8 -8.8686 15.0553   2
  -6 -15   7 8.20888 7.08062   2
  -5 -15   7 -3.9858 14.0902  -1
  -4 -15   8 -3.9858 14.0902   2
  -5 -15   7 12.4220 7.32687   2
  -4 -15   7 3.36792 8.99409  -1
  -3 -15   8 3.36792 8.99409   2
  -3 -15   7 1.02289 8.76254  -1
  -2 -15   8 1.02289 8.76254   2
  -2 -15   7 -6.6770 9.08733  -1
  -1 -15   8 -6.6770 9.08733   2
  -1 -15   7 8.11241 13.3239  -1
   0 -15   8 8.11241 13.3239   2
   1 -15   7 7.75480 4.55765   2
   2 -15   7 5.40119 4.45067   2
   3 -15   7 6.41005 3.16303   2
   4 -15   7 3.05616 4.68925   2
   5 -15   7 9.32117 4.93081   2
   6 -15   7 5.94905 4.94924   2
   7 -15   7 3.31539 5.07926   2
  -7 -14   7 4.12178 6.66310   2
  -6 -14   7 -3.9559 13.1031  -1
  -5 -14   8 -3.9559 13.1031   2
  -6 -14   7 7.85938 6.43333   2
  -5 -14   7 1.20442 7.97229  -1
  -4 -14   8 1.20442 7.97229   2
  -5 -14   7 7.04550 3.74489   2
  -4 -14   7 -7.6933 7.61061  -1
  -3 -14   8 -7.6933 7.61061   2
  -3 -14   7 2.25638 7.95718  -1
  -2 -14   8 2.25638 7.95718   2
  -2 -14   7 -2.9652 7.85852  -1
  -1 -14   8 -2.9652 7.85852   2
   1 -14   7 24.1807 4.74959   2
   2 -14   7 19.2367 4.52205   2
   3 -14   7 14.4702 2.98670   2
   4 -14   7 11.6694 3.07403   2
   5 -14   7 5.65624 4.54266   2
   6 -14   7 4.63377 4.63123   2
   7 -14   7 17.4458 12.0821  -1
   8 -13   7 17.4458 12.0821   2
   7 -14   7 -3.8667 4.57926   2
   8 -14   7 -2.5118 4.62664   2
   8 -14   7 -2.0952 12.0220  -1
   9 -13   7 -2.0952 12.0220   2
  -7 -13   7 4.84923 5.86222   2
  -6 -13   7 4.70497 11.4748  -1
  -5 -13   8 4.70497 11.4748   2
  -6 -13   7 14.9115 5.97140   2
  -5 -13   7 0.31218 6.69203  -1
  -4 -13   8 0.31218 6.69203   2
  -5 -13   7 8.98768 3.36110   2
  -4 -13   7 -1.0879 6.64948  -1
  -3 -13   8 -1.0879 6.64948   2
  -3 -13   7 -6.8538 6.81002  -1
  -2 -13   8 -6.8538 6.81002   2
   0 -13   7 26.5239 4.25701   2
   1 -13   7 22.8115 2.69452   2
   2 -13   7 18.3840 4.19855   2
   3 -13   7 29.9341 3.02503   2
   4 -13   7 16.9152 2.78886   2
   5 -13   7 5.55127 4.05587   2
   6 -13   7 7.32516 4.31900   2
   6 -13   7 11.3844 7.97160  -1
   7 -12   7 11.3844 7.97160   2
   7 -13   7 3.21325 3.64882   2
   7 -13   7 11.8972 8.05429  -1
   8 -12   7 11.8972 8.05429   2
   8 -13   7 -6.2773 10.6603  -1
   9 -12   7 -6.2773 10.6603   2
   9 -13   7 -2.1924 10.9231  -1
  10 -12   7 -2.1924 10.9231   2
  -8 -12   7 4.11774 5.10727   2
  -7 -12   7 14.7868 5.38692   2
  -6 -12   7 25.6815 5.76165   2
  -5 -12   7 20.5934 3.37852   2
  -5 -12   7 -6.1235 7.18664  -1
  -4 -12   8 -6.1235 7.18664   2
  -4 -12   7 7.23851 2.96729   2
  -4 -12   7 -8.2117 7.40210  -1
  -3 -12   8 -8.2117 7.40210   2
  -3 -12   7 14.1868 3.24001   2
  -1 -12   7 24.5929 2.50230   2
   0 -12   7 29.4705 2.59881   2
   1 -12   7 16.4488 2.26845   2
   2 -12   7 42.7920 3.01420   2
   3 -12   7 79.6006 2.84333   2
   4 -12   7 6.73522 2.23134   2
   5 -12   7 11.9065 3.83861   2
   5 -12   7 23.9706 7.31071  -1
   6 -11   7 23.9706 7.31071   2
   6 -12   7 4.52131 3.74232   2
   6 -12   7 18.9966 6.89239  -1
   7 -11   7 18.9966 6.89239   2
   7 -12   7 7.92793 7.06326  -1
   8 -11   7 7.92793 7.06326   2
   8 -12   7 -1.3122 8.89730  -1
   9 -11   7 -1.3122 8.89730   2
  10 -12   7 15.3526 17.0523  -1
  11 -10   7 15.3526 17.0523   2
 -11 -11   7 8.59661 5.81376  -1
 -10 -12   8 8.59661 5.81376   2
  -6 -11   7 34.4572 2.57001   2
  -5 -11   7 13.8911 2.81232   2
  -4 -11   7 22.2362 3.15020   2
  -3 -11   7 36.9834 2.62198   2
  -2 -11   7 19.8294 2.20505   2
  -1 -11   7 11.7534 1.95803   2
   0 -11   7 43.1533 2.78790   2
   1 -11   7 49.7841 2.87336   2
   3 -11   7 48.4317 3.24143   2
   3 -11   7 30.9284 4.19627  -1
   4 -10   7 30.9284 4.19627   2
   4 -11   7 1.28915 1.81138   2
   5 -11   7 55.0283 6.53595  -1
   6 -10   7 55.0283 6.53595   2
   6 -11   7 27.9666 6.55385  -1
   7 -10   7 27.9666 6.55385   2
   7 -11   7 13.1017 6.55562  -1
   8 -10   7 13.1017 6.55562   2
  10 -11   7 3.23095 4.19820   2
  11 -11   7 0.94454 8.27077   2
 -12 -10   7 4.45738 5.89284  -1
 -11 -11   8 4.45738 5.89284   2
 -11 -10   7 7.22384 4.96029  -1
 -10 -11   8 7.22384 4.96029   2
 -10 -10   7 10.7654 4.92829  -1
  -9 -11   8 10.7654 4.92829   2
  -9 -10   7 5.65617 4.69522  -1
  -8 -11   8 5.65617 4.69522   2
  -8 -10   7 7.79020 4.86158  -1
  -7 -11   8 7.79020 4.86158   2
  -6 -10   7 11.0580 1.34868   2
  -5 -10   7 5.82480 1.18457   2
  -4 -10   7 34.6205 1.96918   2
  -3 -10   7 57.1906 2.79459   2
  -2 -10   7 35.4933 2.49699   2
  -1 -10   7 15.8374 1.92197   2
   0 -10   7 67.7187 2.89936   2
   3 -10   7 34.5997 3.73461  -1
   4  -9   7 34.5997 3.73461   2
   3 -10   7 7.94105 1.74820   2
   4 -10   7 17.8880 8.21028  -1
   5  -9   7 17.8880 8.21028   2
   5 -10   7 80.0907 6.14099  -1
   6  -9   7 80.0907 6.14099   2
   6 -10   7 54.2353 5.94987  -1
   7  -9   7 54.2353 5.94987   2
   7 -10   7 32.1632 6.46250  -1
   8  -9   7 32.1632 6.46250   2
   9 -10   7 -2.6899 3.49240   2
  10 -10   7 4.26264 3.77459   2
 -13  -9   7 6.44628 3.30304   2
 -13  -9   7 4.17497 6.78085  -1
 -12 -10   8 4.17497 6.78085   2
 -12  -9   7 8.85575 2.84830   2
 -12  -9   7 12.2931 5.31711  -1
 -11 -10   8 12.2931 5.31711   2
 -11  -9   7 4.34929 2.33180   2
 -11  -9   7 14.1075 5.02989  -1
 -10 -10   8 14.1075 5.02989   2
 -10  -9   7 16.5002 4.58216  -1
  -9 -10   8 16.5002 4.58216   2
 -10  -9   7 9.62519 2.19769   2
  -9  -9   7 15.8083 4.74983  -1
  -8 -10   8 15.8083 4.74983   2
  -9  -9   7 19.0198 2.47099   2
  -8  -9   7 23.0773 2.11202   2
  -7  -9   7 26.1491 1.71949   2
  -6  -9   7 2.58292 0.78791   2
  -5  -9   7 54.5127 5.20516  -1
  -4  -9   7 54.5127 5.20516   2
  -5  -9   7 14.1849 0.98411   2
  -4  -9   7 75.6556 5.51950  -1
  -3  -9   7 75.6556 5.51950   2
  -3  -9   7 118.451 6.07372  -1
  -2  -9   7 118.451 6.07372   2
  -2  -9   7 96.2129 7.21011  -1
  -1  -9   7 96.2129 7.21011   2
   3  -9   7 156.182 4.42209  -1
   4  -8   7 156.182 4.42209   2
   3  -9   7 -0.1413 1.37874   2
   4  -9   7 95.9211 7.86601  -1
   5  -8   7 95.9211 7.86601   2
   5  -9   7 119.639 8.38628  -1
   6  -8   7 119.639 8.38628   2
   6  -9   7 91.7531 6.64503  -1
   7  -8   7 91.7531 6.64503   2
   7  -9   7 45.4592 6.24213  -1
   8  -8   7 45.4592 6.24213   2
   9  -9   7 10.4836 3.74952   2
  10  -9   7 3.53344 3.57224   2
  11  -9   7 -0.1156 7.29702   2
 -13  -8   7 5.05329 2.85918   2
 -12  -8   7 8.22986 2.42675   2
 -11  -8   7 8.03910 2.14667   2
 -10  -8   7 14.8277 1.25858   2
  -9  -8   7 22.3631 1.40012   2
  -8  -8   7 2.73533 0.90274   2
  -7  -8   7 19.9467 1.02099   2
  -6  -8   7 0.62246 0.59033   2
  -6  -8   7 62.0930 5.00866  -1
  -5  -8   7 62.0930 5.00866   2
  -5  -8   7 76.8088 5.18052  -1
  -4  -8   7 76.8088 5.18052   2
  -4  -8   7 76.8730 3.31494  -1
  -3  -8   7 76.8730 3.31494   2
  -3  -8   7 85.0715 2.41264  -1
  -2  -8   7 85.0715 2.41264   2
  -2  -8   7 50.3739 4.64565  -1
  -1  -8   7 50.3739 4.64565   2
   0  -8   7 4.75908 1.28540   2
   1  -8   7 4.61946 2.09067   2
   2  -8   7 16.1818 1.80528   2
   3  -8   7 47.1754 2.58767   2
   4  -8   7 99.5315 7.52054  -1
   5  -7   7 99.5315 7.52054   2
   5  -8   7 83.5403 5.78056  -1
   6  -7   7 83.5403 5.78056   2
   6  -8   7 73.0325 7.81826  -1
   7  -7   7 73.0325 7.81826   2
   9  -8   7 15.5094 3.76642   2
  10  -8   7 5.41095 3.42224   2
  11  -8   7 -3.1780 7.23964   2
  11  -8   7 2.10421 14.1139  -1
  11  -6   7 2.10421 14.1139   2
  12  -8   7 -2.2922 7.62329   2
 -14  -7   7 3.04194 1.33553   2
 -13  -7   7 3.76783 1.19562   2
 -12  -7   7 0.59851 0.96166   2
 -11  -7   7 7.16323 1.05523   2
 -10  -7   7 7.59957 1.04918   2
  -9  -7   7 0.66017 0.86652   2
  -8  -7   7 -0.6156 0.72030   2
  -7  -7   7 9.69960 0.82330   2
  -7  -7   7 23.1681 4.32744  -1
  -6  -7   7 23.1681 4.32744   2
  -6  -7   7 79.9051 4.88873  -1
  -5  -7   7 79.9051 4.88873   2
  -5  -7   7 47.3081 2.14923  -1
  -4  -7   7 47.3081 2.14923   2
  -4  -7   7 7.11136 1.55937  -1
  -3  -7   7 7.11136 1.55937   2
  -3  -7   7 15.6405 1.71745  -1
  -2  -7   7 15.6405 1.71745   2
  -2  -7   7 19.6653 3.27630  -1
  -1  -7   7 19.6653 3.27630   2
  -1  -7   7 114.683 5.48706  -1
   0  -7   7 114.683 5.48706   2
   2  -7   7 130.291 3.30658   2
   3  -7   7 261.043 4.79508   2
   4  -7   7 230.989 4.46706   2
   8  -7   7 18.5353 3.46385   2
   9  -7   7 -3.2648 5.79142   2
  10  -7   7 7.89148 3.37165   2
  10  -7   7 5.72302 11.9877  -1
  10  -5   7 5.72302 11.9877   2
  11  -7   7 -0.3666 6.92229   2
  11  -7   7 4.06434 12.5310  -1
  11  -5   7 4.06434 12.5310   2
  12  -7   7 -2.7701 7.28747   2
 -15  -6   7 -0.7574 1.45004   2
 -14  -6   7 -1.0177 1.46912   2
 -13  -6   7 1.05505 0.97407   2
 -10  -6   7 5.59803 0.89805   2
  -9  -6   7 4.73371 0.82005   2
  -8  -6   7 45.9867 1.47672   2
  -7  -6   7 15.0568 0.70407   2
  -6  -6   7 65.9706 1.23465   2
  -6  -6   7 44.0694 2.46907  -1
  -5  -6   7 44.0694 2.46907   2
  -5  -6   7 5.29408 1.71746  -1
  -4  -6   7 5.29408 1.71746   2
  -4  -6   7 17.0648 1.64245  -1
  -3  -6   7 17.0648 1.64245   2
  -3  -6   7 76.2759 2.37611  -1
  -2  -6   7 76.2759 2.37611   2
  -2  -6   7 68.4257 4.27016  -1
  -1  -6   7 68.4257 4.27016   2
  -1  -6   7 116.920 5.12203  -1
   0  -6   7 116.920 5.12203   2
   0  -6   7 120.907 5.21423  -1
   0  -6   7 120.907 5.21423   2
   1  -6   7 31.4057 1.37296   2
   2  -6   7 125.022 2.23141   2
   3  -6   7 200.016 3.85336   2
   4  -6   7 192.255 3.88131   2
   5  -6   7 6.03930 5.34315  -1
   5  -5   7 6.03930 5.34315   2
   6  -6   7 9.92734 2.54098   2
   7  -6   7 11.2763 2.82550   2
   9  -6   7 16.6147 3.48249   2
  10  -6   7 3.80296 6.30124   2
  10  -6   7 16.1573 10.6150  -1
  10  -4   7 16.1573 10.6150   2
  11  -6   7 25.5357 9.84951  -1
  11  -4   7 25.5357 9.84951   2
 -15  -5   7 -1.2004 1.95935   2
 -14  -5   7 0.20690 1.11054   2
 -13  -5   7 0.15299 0.82323   2
 -13  -5   7 2.22535 3.36353  -1
 -12  -6   7 2.22535 3.36353   2
 -12  -5   7 3.66852 0.85443   2
 -12  -5   7 -4.6685 3.50338  -1
 -11  -6   7 -4.6685 3.50338   2
  -9  -5   7 6.66313 0.81431   2
  -8  -5   7 60.5074 1.49839   2
  -7  -5   7 26.0544 0.82032   2
  -6  -5   7 110.565 4.50977  -1
  -5  -5   7 110.565 4.50977   2
  -6  -5   7 101.861 1.37213   2
  -5  -5   7 99.6915 2.44591  -1
  -4  -5   7 99.6915 2.44591   2
  -4  -5   7 112.716 2.30158  -1
  -3  -5   7 112.716 2.30158   2
  -3  -5   7 45.2547 3.29838  -1
  -2  -5   7 45.2547 3.29838   2
  -2  -5   7 105.722 4.56295  -1
  -1  -5   7 105.722 4.56295   2
  -1  -5   7 105.564 4.55512  -1
  -1  -5   7 105.564 4.55512   2
   0  -5   7 14.1602 3.53695  -1
   0  -5   7 14.1602 3.53695   2
   1  -5   7 61.2031 1.09983   2
   2  -5   7 263.583 2.45905   2
   2  -5   7 87.4284 5.06138  -1
   2  -4   7 87.4284 5.06138   2
   3  -5   7 114.437 2.08262   2
   3  -5   7 36.0169 3.49429  -1
   3  -4   7 36.0169 3.49429   2
   4  -5   7 45.8222 1.62427   2
   4  -5   7 38.0853 2.95439  -1
   4  -4   7 38.0853 2.95439   2
   5  -5   7 31.6685 3.66400  -1
   5  -4   7 31.6685 3.66400   2
   6  -5   7 -1.3732 1.73941   2
   7  -5   7 185.133 9.09748  -1
   7  -4   7 185.133 9.09748   2
  10  -5   7 18.8296 10.2035  -1
  10  -3   7 18.8296 10.2035   2
  11  -5   7 39.0829 9.82658  -1
  11  -3   7 39.0829 9.82658   2
 -14  -4   7 0.90760 1.49469   2
 -13  -4   7 1.10460 1.32006   2
 -12  -4   7 -3.5225 3.20424  -1
 -11  -5   7 -3.5225 3.20424   2
 -11  -4   7 3.13063 2.11668  -1
 -10  -5   7 3.13063 2.11668   2
 -10  -4   7 1.79440 0.66268   2
  -9  -4   7 18.8702 0.93159   2
  -8  -4   7 24.0421 0.90338   2
  -7  -4   7 76.3111 1.29552   2
  -6  -4   7 4.11962 0.49537   2
  -5  -4   7 2.22992 0.49583   2
  -4  -4   7 3.23563 0.49749   2
  -3  -4   7 1.66558 0.52719   2
  -2  -4   7 0.48585 0.51117   2
  -1  -4   7 133.582 4.64071  -1
  -1  -4   7 133.582 4.64071   2
   0  -4   7 14.4598 3.34015  -1
   0  -4   7 14.4598 3.34015   2
   1  -4   7 20.0839 0.65211   2
   1  -4   7 -1.1629 3.03210  -1
   1  -3   7 -1.1629 3.03210   2
   2  -4   7 19.7967 1.84106  -1
   2  -3   7 19.7967 1.84106   2
   3  -4   7 94.3525 2.94672  -1
   3  -3   7 94.3525 2.94672   2
   4  -4   7 78.8252 3.60007  -1
   4  -3   7 78.8252 3.60007   2
   5  -4   7 126.622 4.47264  -1
   5  -3   7 126.622 4.47264   2
   6  -4   7 37.2658 3.70539  -1
   6  -3   7 37.2658 3.70539   2
   6  -4   7 95.0395 4.72040   2
   9  -4   7 28.8363 4.97559  -1
   9  -2   7 28.8363 4.97559   2
  10  -4   7 10.1992 10.1095  -1
  10  -2   7 10.1992 10.1095   2
  11  -4   7 45.0982 10.1536  -1
  11  -2   7 45.0982 10.1536   2
 -13  -3   7 3.70236 2.35821   2
 -13  -3   7 0.56722 2.75117  -1
 -12  -4   7 0.56722 2.75117   2
 -12  -3   7 4.06006 2.23284   2
 -12  -3   7 -0.0539 2.66938  -1
 -11  -4   7 -0.0539 2.66938   2
 -11  -3   7 0.40691 0.55033   2
 -10  -3   7 5.30932 0.66444   2
  -9  -3   7 3.71707 0.65362   2
  -8  -3   7 0.87248 0.50301   2
  -7  -3   7 43.0327 1.01929   2
  -6  -3   7 33.9631 0.90483   2
  -5  -3   7 13.6013 2.44002  -1
  -5  -3   7 13.6013 2.44002   2
  -4  -3   7 112.475 4.06024  -1
  -4  -3   7 112.475 4.06024   2
  -3  -3   7 156.476 2.26618   2
  -2  -3   7 75.0496 1.43561   2
  -1  -3   7 36.7320 3.18481  -1
  -1  -3   7 36.7320 3.18481   2
   0  -3   7 56.9250 1.17064   2
   1  -3   7 73.3055 3.82943  -1
   1  -2   7 73.3055 3.82943   2
   2  -3   7 91.9361 2.07337  -1
   2  -2   7 91.9361 2.07337   2
   3  -3   7 105.469 2.11494  -1
   3  -2   7 105.469 2.11494   2
   4  -3   7 47.9390 2.80374  -1
   4  -2   7 47.9390 2.80374   2
   5  -3   7 145.267 4.13655  -1
   5  -2   7 145.267 4.13655   2
   6  -3   7 47.2450 5.79452  -1
   6  -2   7 47.2450 5.79452   2
   7  -3   7 23.3181 5.79838  -1
   7  -2   7 23.3181 5.79838   2
   7  -3   7 65.0950 4.40003   2
   8  -3   7 24.1567 2.33285   2
   9  -3   7 10.3900 2.91824   2
 -12  -2   7 -0.2441 1.89717   2
 -11  -2   7 -1.0523 1.81073   2
 -10  -2   7 -0.2653 0.86670   2
  -9  -2   7 1.84544 0.49485   2
  -8  -2   7 3.76393 2.22831  -1
  -8  -2   7 3.76393 2.22831   2
  -7  -2   7 -0.1772 2.41568  -1
  -7  -2   7 -0.1772 2.41568   2
  -6  -2   7 25.7634 1.60227  -1
  -6  -2   7 25.7634 1.60227   2
  -5  -2   7 4.67136 1.34461  -1
  -5  -2   7 4.67136 1.34461   2
  -4  -2   7 1.68982 1.71429  -1
  -4  -2   7 1.68982 1.71429   2
  -3  -2   7 -0.2428 2.32624  -1
  -3  -2   7 -0.2428 2.32624   2
  -2  -2   7 101.179 3.85455  -1
  -2  -2   7 101.179 3.85455   2
  -1  -2   7 34.0192 3.12343  -1
  -1  -2   7 34.0192 3.12343   2
   0  -2   7 283.929 2.36043   2
   2  -2   7 3.24134 1.61849  -1
   2  -1   7 3.24134 1.61849   2
   3  -2   7 2.72854 1.57004  -1
   3  -1   7 2.72854 1.57004   2
   4  -2   7 13.2385 2.17325  -1
   4  -1   7 13.2385 2.17325   2
   5  -2   7 95.6469 4.11083  -1
   5  -1   7 95.6469 4.11083   2
   6  -2   7 57.4285 6.15446  -1
   6  -1   7 57.4285 6.15446   2
   8  -2   7 31.4559 2.50947   2
 -12  -1   7 2.63761 1.81420   2
 -11  -1   7 0.99847 1.76529   2
 -10  -1   7 2.53733 1.76951   2
  -9  -1   7 -0.2028 0.42353   2
  -8  -1   7 21.5294 0.78474   2
  -7  -1   7 30.9623 0.91199   2
  -6  -1   7 23.6048 1.29958  -1
  -6  -1   7 23.6048 1.29958   2
  -5  -1   7 14.6015 1.00262  -1
  -5  -1   7 14.6015 1.00262   2
  -4  -1   7 53.1019 1.55950  -1
  -4  -1   7 53.1019 1.55950   2
  -3  -1   7 50.8894 2.81921  -1
  -3  -1   7 50.8894 2.81921   2
  -2  -1   7 59.1487 3.18917  -1
  -2  -1   7 59.1487 3.18917   2
  -1  -1   7 40.1258 3.02042  -1
  -1  -1   7 40.1258 3.02042   2
   0  -1   7 0.31176 2.67908  -1
   0  -1   7 0.31176 2.67908   2
   1  -1   7 26.2777 0.85783   2
   2  -1   7 2.28191 1.15186  -1
   2   0   7 2.28191 1.15186   2
   3  -1   7 32.3740 1.64967  -1
   3   0   7 32.3740 1.64967   2
   4  -1   7 16.6915 2.23694  -1
   4   0   7 16.6915 2.23694   2
   5  -1   7 15.1034 3.30311  -1
   5   0   7 15.1034 3.30311   2
   7  -1   7 4.70381 1.54637   2
   8  -1   7 25.3910 2.33444   2
   9  -1   7 9.62797 2.92244   2
  10  -1   7 1.26594 5.86161   2
  11  -1   7 -0.8243 6.27075   2
 -13   0   7 6.54540 2.34205   2
 -12   0   7 1.35665 1.30361   2
 -11   0   7 6.02562 1.44031   2
 -10   0   7 29.0976 2.91716   2
  -9   0   7 11.4264 0.74166   2
  -8   0   7 6.07161 0.48377   2
  -7   0   7 0.03938 1.49694  -1
  -7   0   7 0.03938 1.49694   2
  -6   0   7 42.0674 1.36841  -1
  -6   0   7 42.0674 1.36841   2
  -5   0   7 4.68132 0.78741  -1
  -5   0   7 4.68132 0.78741   2
  -4   0   7 -0.7649 1.03434  -1
  -4   0   7 -0.7649 1.03434   2
  -3   0   7 13.7632 2.30835  -1
  -3   0   7 13.7632 2.30835   2
  -2   0   7 17.9470 2.77788  -1
  -2   0   7 17.9470 2.77788   2
  -1   0   7 205.445 5.28500  -1
  -1   0   7 205.445 5.28500   2
   0   0   7 15.9114 0.62357   2
   1   0   7 134.672 1.54610   2
   1   0   7 12.8631 1.87612  -1
   1   1   7 12.8631 1.87612   2
   2   0   7 0.66919 1.29806  -1
   2   1   7 0.66919 1.29806   2
   3   0   7 26.2412 2.06962  -1
   3   1   7 26.2412 2.06962   2
   4   0   7 16.1476 2.34790  -1
   4   1   7 16.1476 2.34790   2
   6   0   7 22.3043 1.68206   2
   7   0   7 3.26291 1.52762   2
   8   0   7 37.2830 2.88178   2
   9   0   7 13.8009 3.11575   2
  10   0   7 2.91976 5.71512   2
  11   0   7 0.84556 6.66568   2
 -13   1   7 4.93604 2.21848   2
 -12   1   7 20.3092 2.74473   2
 -10   1   7 4.04466 1.25890   2
  -9   1   7 -1.9332 1.55042  -1
  -9   1   7 -1.9332 1.55042   2
  -8   1   7 8.81241 1.76165  -1
  -8   1   7 8.81241 1.76165   2
  -7   1   7 0.99234 1.20650  -1
  -7   1   7 0.99234 1.20650   2
  -6   1   7 2.21950 0.83585  -1
  -6   1   7 2.21950 0.83585   2
  -5   1   7 1.78989 0.66614  -1
  -5   1   7 1.78989 0.66614   2
  -4   1   7 20.6467 1.04823  -1
  -4   1   7 20.6467 1.04823   2
  -3   1   7 14.1165 2.47270  -1
  -3   1   7 14.1165 2.47270   2
  -2   1   7 2.08430 1.63745  -1
  -2   1   7 2.08430 1.63745   2
  -1   1   7 111.137 4.01424  -1
  -1   1   7 111.137 4.01424   2
   0   1   7 0.45717 0.36447   2
   1   1   7 9.75202 1.88799  -1
   1   2   7 9.75202 1.88799   2
   2   1   7 2.99048 1.61762  -1
   2   2   7 2.99048 1.61762   2
   3   1   7 31.4030 4.30715  -1
   3   2   7 31.4030 4.30715   2
   5   1   7 -0.0581 1.05974   2
   6   1   7 19.6108 2.04248   2
   7   1   7 15.5260 2.01406   2
   8   1   7 16.0590 2.99188   2
   9   1   7 1.84587 5.18451   2
  10   1   7 2.53538 5.89567   2
  11   1   7 0.59066 6.31161   2
 -11   2   7 18.4349 4.00436  -1
 -11   1   7 18.4349 4.00436   2
 -10   2   7 0.48838 1.73329  -1
 -10   2   7 0.48838 1.73329   2
  -9   2   7 14.1467 2.08864  -1
  -9   2   7 14.1467 2.08864   2
  -8   2   7 47.4794 1.81004  -1
  -8   2   7 47.4794 1.81004   2
  -7   2   7 26.4669 1.29128  -1
  -7   2   7 26.4669 1.29128   2
  -6   2   7 2.14564 0.79391  -1
  -6   2   7 2.14564 0.79391   2
  -5   2   7 4.33659 0.67809  -1
  -5   2   7 4.33659 0.67809   2
  -4   2   7 8.79823 0.97512  -1
  -4   2   7 8.79823 0.97512   2
  -3   2   7 39.9977 1.98236  -1
  -3   2   7 39.9977 1.98236   2
  -2   2   7 6.24451 1.75818  -1
  -2   2   7 6.24451 1.75818   2
  -1   2   7 0.04145 2.43542  -1
  -1   2   7 0.04145 2.43542   2
   0   2   7 3.99433 0.49037   2
   1   2   7 1.76331 3.67085  -1
   1   3   7 1.76331 3.67085   2
   2   2   7 7.94957 3.99491  -1
   2   3   7 7.94957 3.99491   2
   3   2   7 1.98173 4.37450  -1
   3   3   7 1.98173 4.37450   2
   4   2   7 4.57832 1.13200   2
   5   2   7 0.52684 1.09555   2
   6   2   7 24.5767 2.27142   2
   7   2   7 7.30580 2.47930   2
   8   2   7 2.72767 2.53540   2
   9   2   7 0.97731 5.13651   2
  10   2   7 1.59554 6.13425   2
  11   2   7 0.71273 6.61837   2
 -12   3   7 66.3135 4.99665  -1
 -12   2   7 66.3135 4.99665   2
 -11   3   7 26.5210 4.39002  -1
 -11   2   7 26.5210 4.39002   2
 -11   3   7 2.75509 1.41012  -1
 -11   3   7 2.75509 1.41012   2
 -10   3   7 4.45017 1.52971  -1
 -10   3   7 4.45017 1.52971   2
 -10   3   7 1.36899 3.51725  -1
 -10   2   7 1.36899 3.51725   2
  -9   3   7 56.9523 2.06731  -1
  -9   3   7 56.9523 2.06731   2
  -8   3   7 39.7058 2.67795  -1
  -8   3   7 39.7058 2.67795   2
  -7   3   7 24.5974 1.35168  -1
  -7   3   7 24.5974 1.35168   2
  -6   3   7 40.3006 0.97269  -1
  -6   3   7 40.3006 0.97269   2
  -5   3   7 9.01694 0.89028  -1
  -5   3   7 9.01694 0.89028   2
  -4   3   7 -0.3804 0.94692  -1
  -4   3   7 -0.3804 0.94692   2
  -3   3   7 48.1724 1.71389  -1
  -3   3   7 48.1724 1.71389   2
  -2   3   7 4.48263 1.86971  -1
  -2   3   7 4.48263 1.86971   2
  -1   3   7 16.8154 0.71085   2
   0   3   7 32.9011 1.01946   2
   2   3   7 -0.9942 4.34512  -1
   2   4   7 -0.9942 4.34512   2
   4   3   7 1.51067 1.11118   2
   5   3   7 14.9004 1.98304   2
   6   3   7 4.15497 2.26053   2
   7   3   7 0.45235 2.22603   2
   8   3   7 -0.7518 2.11721   2
   9   3   7 1.05904 5.77604   2
  10   3   7 3.46383 6.34858   2
 -13   4   7 51.4045 4.55739  -1
 -13   3   7 51.4045 4.55739   2
 -12   4   7 7.51773 2.28146  -1
 -12   4   7 7.51773 2.28146   2
 -12   4   7 72.4883 4.93309  -1
 -12   3   7 72.4883 4.93309   2
 -11   4   7 4.20944 1.68932  -1
 -11   4   7 4.20944 1.68932   2
 -11   4   7 5.93524 1.39578  -1
 -11   3   7 5.93524 1.39578   2
 -10   4   7 7.44393 3.19373  -1
 -10   3   7 7.44393 3.19373   2
 -10   4   7 77.2149 2.40959  -1
 -10   4   7 77.2149 2.40959   2
  -9   4   7 40.4104 2.13523  -1
  -9   4   7 40.4104 2.13523   2
  -8   4   7 32.0133 2.00434  -1
  -8   4   7 32.0133 2.00434   2
  -7   4   7 15.9643 1.36347  -1
  -7   4   7 15.9643 1.36347   2
  -6   4   7 110.672 1.76979  -1
  -6   4   7 110.672 1.76979   2
  -5   4   7 13.8507 1.09294  -1
  -5   4   7 13.8507 1.09294   2
  -4   4   7 5.52722 1.47732  -1
  -4   4   7 5.52722 1.47732   2
  -3   4   7 8.45128 2.78634  -1
  -3   4   7 8.45128 2.78634   2
  -2   4   7 8.20158 0.54775   2
  -1   4   7 20.0318 0.78853   2
   0   4   7 0.10349 0.51271   2
   1   4   7 2.51905 0.98837   2
   3   4   7 1.14094 1.28712   2
   4   4   7 5.69893 2.30263   2
   5   4   7 6.36327 2.28328   2
   6   4   7 -1.7960 2.02708   2
   7   4   7 -0.8229 2.17495   2
   8   4   7 3.27088 2.51381   2
   9   4   7 -0.4722 5.98529   2
  10   4   7 0.60057 6.88105   2
 -14   5   7 54.3675 2.56094  -1
 -14   4   7 54.3675 2.56094   2
 -13   5   7 48.6921 1.63388  -1
 -13   4   7 48.6921 1.63388   2
 -13   5   7 12.4268 2.99838  -1
 -13   5   7 12.4268 2.99838   2
 -12   5   7 8.88241 1.51821  -1
 -12   4   7 8.88241 1.51821   2
 -12   5   7 -1.1411 2.82091  -1
 -12   5   7 -1.1411 2.82091   2
 -11   5   7 -0.8251 1.89482  -1
 -11   5   7 -0.8251 1.89482   2
 -11   5   7 7.03542 2.22814  -1
 -11   4   7 7.03542 2.22814   2
 -10   5   7 141.105 3.26610  -1
 -10   5   7 141.105 3.26610   2
  -9   5   7 45.6341 2.39921  -1
  -9   5   7 45.6341 2.39921   2
  -8   5   7 96.7121 2.44611  -1
  -8   5   7 96.7121 2.44611   2
  -7   5   7 98.9378 2.12476  -1
  -7   5   7 98.9378 2.12476   2
  -6   5   7 76.4125 2.14591  -1
  -6   5   7 76.4125 2.14591   2
  -5   5   7 71.5557 1.98463  -1
  -5   5   7 71.5557 1.98463   2
  -4   5   7 27.9833 3.42062  -1
  -4   5   7 27.9833 3.42062   2
  -3   5   7 19.5893 3.23742  -1
  -3   5   7 19.5893 3.23742   2
  -2   5   7 30.6429 0.97133   2
  -1   5   7 20.8442 0.83539   2
   0   5   7 5.68243 0.89233   2
   1   5   7 0.28271 1.25519   2
   2   5   7 13.5032 2.54598   2
   3   5   7 0.23807 2.07826   2
   4   5   7 -0.2998 2.13238   2
   5   5   7 -0.7087 2.15773   2
   6   5   7 0.94484 2.30742   2
   7   5   7 0.17898 2.49505   2
   8   5   7 2.30897 2.70578   2
   9   5   7 0.57641 6.19344   2
  10   5   7 3.91208 7.16521   2
 -16   6   7 10.8727 3.90178  -1
 -16   5   7 10.8727 3.90178   2
 -15   6   7 27.8605 2.08747  -1
 -15   5   7 27.8605 2.08747   2
 -14   6   7 36.4699 3.99751  -1
 -14   6   7 36.4699 3.99751   2
 -14   6   7 17.8089 1.85028  -1
 -14   5   7 17.8089 1.85028   2
 -13   6   7 12.7763 1.70870  -1
 -13   5   7 12.7763 1.70870   2
 -13   6   7 28.5340 3.66942  -1
 -13   6   7 28.5340 3.66942   2
 -12   6   7 -1.5750 2.28759  -1
 -12   5   7 -1.5750 2.28759   2
 -12   6   7 22.6609 3.33629  -1
 -12   6   7 22.6609 3.33629   2
 -11   6   7 44.8311 2.56475  -1
 -11   6   7 44.8311 2.56475   2
 -11   6   7 2.06275 4.53722  -1
 -11   5   7 2.06275 4.53722   2
 -10   6   7 66.9062 2.80310  -1
 -10   6   7 66.9062 2.80310   2
  -9   6   7 59.1285 2.85229  -1
  -9   6   7 59.1285 2.85229   2
  -8   6   7 102.134 3.21676  -1
  -8   6   7 102.134 3.21676   2
  -7   6   7 78.8524 2.57372  -1
  -7   6   7 78.8524 2.57372   2
  -6   6   7 1.84138 1.88132  -1
  -6   6   7 1.84138 1.88132   2
  -5   6   7 67.9471 2.98221  -1
  -5   6   7 67.9471 2.98221   2
  -4   6   7 22.2728 3.60575  -1
  -4   6   7 22.2728 3.60575   2
  -3   6   7 66.6133 1.30331   2
  -2   6   7 56.2397 1.67248   2
  -1   6   7 66.4710 2.07818   2
   0   6   7 17.9351 2.58130   2
   1   6   7 8.71458 3.86578   2
   2   6   7 4.16597 2.31452   2
   3   6   7 -0.7579 2.11927   2
   4   6   7 1.64147 2.32721   2
   5   6   7 -1.3572 2.40316   2
   6   6   7 -1.7935 2.56669   2
   7   6   7 -0.6565 2.52564   2
   8   6   7 2.73962 6.02815   2
   9   6   7 -0.3618 6.65981   2
  10   6   7 1.82314 7.30405   2
 -17   7   7 6.00977 2.38788   2
 -16   7   7 26.5715 1.98707   2
 -16   7   7 26.0765 4.58973  -1
 -16   6   7 26.0765 4.58973   2
 -15   7   7 28.5662 2.59987  -1
 -15   6   7 28.5662 2.59987   2
 -14   7   7 31.2007 2.40892  -1
 -14   6   7 31.2007 2.40892   2
 -14   7   7 49.1033 4.48532  -1
 -14   7   7 49.1033 4.48532   2
 -13   7   7 44.4701 4.21530  -1
 -13   7   7 44.4701 4.21530   2
 -13   7   7 19.4649 2.72182  -1
 -13   6   7 19.4649 2.72182   2
 -12   7   7 62.2085 2.98083  -1
 -12   7   7 62.2085 2.98083   2
 -12   7   7 14.5009 5.23450  -1
 -12   6   7 14.5009 5.23450   2
 -11   7   7 147.030 3.82493  -1
 -11   7   7 147.030 3.82493   2
 -10   7   7 79.8977 3.20478  -1
 -10   7   7 79.8977 3.20478   2
  -9   7   7 99.1780 3.51210  -1
  -9   7   7 99.1780 3.51210   2
  -8   7   7 55.7904 3.08811  -1
  -8   7   7 55.7904 3.08811   2
  -7   7   7 11.7868 2.57170  -1
  -7   7   7 11.7868 2.57170   2
  -6   7   7 9.87795 2.64544  -1
  -6   7   7 9.87795 2.64544   2
  -5   7   7 79.9916 3.39826  -1
  -5   7   7 79.9916 3.39826   2
  -4   7   7 25.0688 1.03139   2
  -3   7   7 107.323 2.17424   2
  -2   7   7 58.2914 2.44866   2
  -1   7   7 12.5301 2.45961   2
   0   7   7 12.4241 2.51845   2
   1   7   7 1.84522 2.21657   2
   2   7   7 5.68489 2.47243   2
   3   7   7 16.5965 3.10951   2
   4   7   7 4.97736 2.86906   2
   5   7   7 -0.2749 2.68634   2
   6   7   7 1.12692 2.90026   2
   7   7   7 1.76743 2.94647   2
   8   7   7 -15.903 12.4144   2
   9   7   7 -1.2935 6.95922   2
   9   7   7 16.4222 16.5727  -1
   8   9   6 16.4222 16.5727   2
 -16   8   7 22.1673 2.15225   2
 -15   8   7 27.1494 1.63599   2
 -15   8   7 14.3989 4.32660  -1
 -15   7   7 14.3989 4.32660   2
 -14   8   7 53.9839 5.10587  -1
 -14   8   7 53.9839 5.10587   2
 -13   8   7 46.0397 4.61998  -1
 -13   8   7 46.0397 4.61998   2
 -12   8   7 51.6226 3.18357  -1
 -12   8   7 51.6226 3.18357   2
 -11   8   7 66.8105 3.31312  -1
 -11   8   7 66.8105 3.31312   2
 -10   8   7 8.29779 2.69619  -1
 -10   8   7 8.29779 2.69619   2
  -9   8   7 3.89314 2.67619  -1
  -9   8   7 3.89314 2.67619   2
  -8   8   7 4.11076 2.77176  -1
  -8   8   7 4.11076 2.77176   2
  -8   8   7 2.04938 3.90227  -1
  -9   8   7 2.04938 3.90227   2
  -7   8   7 -0.8186 3.04168  -1
  -8   8   7 -0.8186 3.04168   2
  -7   8   7 1.60009 4.11507  -1
  -7   8   7 1.60009 4.11507   2
  -6   8   7 68.9186 5.10315  -1
  -6   8   7 68.9186 5.10315   2
  -6   8   7 0.42826 3.22774  -1
  -7   8   7 0.42826 3.22774   2
  -5   8   7 49.5363 1.36202   2
  -5   8   7 70.1206 4.07094  -1
  -6   8   7 70.1206 4.07094   2
  -4   8   7 17.3708 1.18498   2
  -3   8   7 81.5074 4.13347   2
  -2   8   7 81.3596 4.25119   2
  -1   8   7 31.3884 3.21448   2
   0   8   7 13.5367 2.68649   2
   1   8   7 39.4190 3.80209   2
   2   8   7 28.1525 3.47457   2
   3   8   7 27.0926 3.67982   2
   4   8   7 4.71123 3.05382   2
   5   8   7 1.34853 3.09291   2
   6   8   7 0.95922 3.40314   2
   7   8   7 -0.3320 3.45326   2
   8   8   7 -4.2212 15.1311  -1
   7  10   6 -4.2212 15.1311   2
   8   8   7 -0.0368 7.90880   2
 -16   9   7 12.0118 2.13186   2
 -14   9   7 54.6750 5.73016  -1
 -14   9   7 54.6750 5.73016   2
 -13   9   7 71.5905 5.59970  -1
 -13   9   7 71.5905 5.59970   2
 -12   9   7 66.0272 5.13879  -1
 -12   9   7 66.0272 5.13879   2
 -11   9   7 62.7762 5.12942  -1
 -11   9   7 62.7762 5.12942   2
 -10   9   7 22.5335 4.54934  -1
 -10   9   7 22.5335 4.54934   2
  -9   9   7 2.27673 4.20498  -1
  -9   9   7 2.27673 4.20498   2
  -9   9   7 26.2585 4.52354  -1
 -10   9   7 26.2585 4.52354   2
  -8   9   7 52.6808 5.01665  -1
  -8   9   7 52.6808 5.01665   2
  -8   9   7 6.27408 3.17041  -1
  -9   9   7 6.27408 3.17041   2
  -7   9   7 46.3026 3.15348  -1
  -8   9   7 46.3026 3.15348   2
  -7   9   7 51.5624 4.95077  -1
  -7   9   7 51.5624 4.95077   2
  -6   9   7 47.4291 3.33528  -1
  -7   9   7 47.4291 3.33528   2
  -6   9   7 31.9584 4.93032  -1
  -6   9   7 31.9584 4.93032   2
  -5   9   7 4.68119 1.02848   2
  -5   9   7 36.7404 6.88118  -1
  -6   9   7 36.7404 6.88118   2
  -4   9   7 46.4100 2.53832   2
  -3   9   7 157.784 5.70747   2
  -2   9   7 65.4239 4.24187   2
  -1   9   7 8.74255 2.67715   2
   0   9   7 5.43430 2.73926   2
   1   9   7 6.33399 2.97290   2
   2   9   7 0.84145 2.86131   2
   3   9   7 11.0023 3.52458   2
   4   9   7 5.21183 3.74304   2
   5   9   7 2.97291 3.79353   2
   6   9   7 5.08263 3.82741   2
   7   9   7 7.20655 8.87012  -1
   6  11   6 7.20655 8.87012   2
   8   9   7 9.64040 16.1440  -1
   7  11   6 9.64040 16.1440   2
   8   9   7 -0.6079 8.62689   2
 -16  10   7 15.2415 3.70603   2
 -14  10   7 33.1682 6.21913  -1
 -14  10   7 33.1682 6.21913   2
 -14  10   7 71.3073 6.09106  -1
 -15   9   7 71.3073 6.09106   2
 -13  10   7 70.3903 5.98024  -1
 -13  10   7 70.3903 5.98024   2
 -13  10   7 50.8510 5.25204  -1
 -14   9   7 50.8510 5.25204   2
 -12  10   7 44.0534 5.15928  -1
 -12  10   7 44.0534 5.15928   2
 -11  10   7 42.5486 5.19619  -1
 -11  10   7 42.5486 5.19619   2
 -10  10   7 20.9400 4.87775  -1
 -10  10   7 20.9400 4.87775   2
  -9  10   7 10.5989 4.55228  -1
 -10  10   7 10.5989 4.55228   2
  -9  10   7 56.9687 5.33199  -1
  -9  10   7 56.9687 5.33199   2
  -8  10   7 46.6097 3.90855  -1
  -9  10   7 46.6097 3.90855   2
  -8  10   7 92.6883 6.06044  -1
  -8  10   7 92.6883 6.06044   2
  -7  10   7 66.0429 5.58918  -1
  -7  10   7 66.0429 5.58918   2
  -7  10   7 91.6971 4.04105  -1
  -8  10   7 91.6971 4.04105   2
  -6  10   7 34.4666 2.28077   2
  -6  10   7 27.1100 2.83658  -1
  -7  10   7 27.1100 2.83658   2
  -5  10   7 33.5735 2.29189   2
  -4  10   7 102.465 3.28908   2
  -3  10   7 75.0364 4.63172   2
  -2  10   7 3.20598 2.70541   2
  -1  10   7 0.86050 2.77980   2
   0  10   7 22.9473 3.83964   2
   1  10   7 22.7632 3.88895   2
   2  10   7 12.2720 3.82097   2
   3  10   7 6.34520 3.91051   2
   4  10   7 -1.7142 3.88209   2
   5  10   7 2.88713 4.13462   2
   7  10   7 -2.5570 9.64493  -1
   6  12   6 -2.5570 9.64493   2
 -14  11   7 51.8724 6.16988  -1
 -15  10   7 51.8724 6.16988   2
 -14  11   7 66.5466 7.43132  -1
 -14  11   7 66.5466 7.43132   2
 -13  11   7 24.0553 5.18411  -1
 -14  10   7 24.0553 5.18411   2
 -13  11   7 76.3834 6.92308  -1
 -13  11   7 76.3834 6.92308   2
 -12  11   7 50.2916 5.71825  -1
 -12  11   7 50.2916 5.71825   2
 -12  11   7 64.4099 5.68296  -1
 -13  10   7 64.4099 5.68296   2
 -11  11   7 54.4245 5.78419  -1
 -11  11   7 54.4245 5.78419   2
 -10  11   7 55.0051 5.79024  -1
 -10  11   7 55.0051 5.79024   2
  -9  11   7 149.201 7.22879  -1
  -9  11   7 149.201 7.22879   2
  -8  11   7 133.353 7.28387  -1
  -9  11   7 133.353 7.28387   2
  -7  11   7 91.1150 5.42895  -1
  -8  11   7 91.1150 5.42895   2
  -6  11   7 7.15075 1.87375   2
  -6  11   7 38.4955 5.28362  -1
  -7  11   7 38.4955 5.28362   2
  -5  11   7 1.46471 1.80209   2
  -4  11   7 21.4126 3.53516   2
  -3  11   7 4.39981 3.08015   2
  -2  11   7 16.4021 3.65991   2
  -1  11   7 26.9663 4.23065   2
   0  11   7 27.2678 4.35716   2
   1  11   7 19.3401 4.28786   2
   2  11   7 10.3179 4.26139   2
   3  11   7 5.07431 4.13720   2
   3  11   7 13.4334 12.3270  -1
   2  12   6 13.4334 12.3270   2
   4  11   7 -0.3514 4.27982   2
 -14  12   7 33.6807 8.01153  -1
 -14  12   7 33.6807 8.01153   2
 -14  12   7 51.6957 6.04500  -1
 -15  11   7 51.6957 6.04500   2
 -13  12   7 57.1412 8.94079  -1
 -14  11   7 57.1412 8.94079   2
 -13  12   7 24.5368 7.02330  -1
 -13  12   7 24.5368 7.02330   2
 -12  12   7 37.6671 5.96573  -1
 -12  12   7 37.6671 5.96573   2
 -11  12   7 46.8864 3.98981   2
 -10  12   7 72.4422 4.67820   2
  -9  12   7 86.9075 3.73804   2
  -8  12   7 38.8171 2.94569   2
  -7  12   7 29.9507 2.73857   2
  -6  12   7 20.4293 2.53870   2
  -5  12   7 7.07404 2.30776   2
  -4  12   7 18.3573 3.98008   2
  -3  12   7 7.01132 3.76186   2
  -2  12   7 49.9090 5.18656   2
  -1  12   7 32.7386 4.88795   2
   0  12   7 12.7232 10.9406  -1
  -1  13   6 12.7232 10.9406   2
   1  12   7 8.59678 7.57475  -1
   0  13   6 8.59678 7.57475   2
   2  12   7 15.9273 8.03504  -1
   1  13   6 15.9273 8.03504   2
   2  12   7 6.24588 4.46772   2
   3  12   7 3.72921 4.56642   2
   3  12   7 0.81413 8.66714  -1
   2  13   6 0.81413 8.66714   2
   4  12   7 1.47465 4.80099   2
 -13  13   7 19.4534 5.38268   2
 -13  13   7 14.9020 10.2424  -1
 -14  12   7 14.9020 10.2424   2
 -12  13   7 20.8854 3.90169   2
 -12  13   7 32.7040 10.2084  -1
 -13  12   7 32.7040 10.2084   2
 -11  13   7 27.5283 3.91736   2
 -10  13   7 63.8170 4.58141   2
  -9  13   7 46.8077 3.37088   2
  -8  13   7 36.3673 3.20556   2
  -7  13   7 38.3047 3.22418   2
  -6  13   7 22.7761 2.94686   2
  -5  13   7 10.2541 2.72794   2
  -4  13   7 21.5613 4.64876   2
  -3  13   7 10.0313 4.28362   2
  -1  13   7 12.9532 12.6463  -1
  -2  14   6 12.9532 12.6463   2
   0  13   7 7.65901 8.47752  -1
  -1  14   6 7.65901 8.47752   2
   1  13   7 -0.4589 8.00575  -1
   0  14   6 -0.4589 8.00575   2
   2  13   7 6.62657 5.04726   2
   2  13   7 9.99632 8.73178  -1
   1  14   6 9.99632 8.73178   2
   3  13   7 9.56577 5.23718   2
   3  13   7 12.4393 9.93692  -1
   2  14   6 12.4393 9.93692   2
   4  13   7 4.66657 5.29846   2
   4  13   7 16.0087 16.4027  -1
   3  14   6 16.0087 16.4027   2
 -12  14   7 8.40029 4.01560   2
 -11  14   7 11.8692 3.92449   2
 -10  14   7 32.0469 4.33260   2
  -8  14   7 25.7168 3.32771   2
  -8  14   7 14.6974 9.20168  -1
  -9  14   6 14.6974 9.20168   2
  -7  14   7 11.2482 3.06492   2
  -7  14   7 17.2622 9.73380  -1
  -8  14   6 17.2622 9.73380   2
  -6  14   7 7.27662 2.97458   2
  -5  14   7 13.9072 3.18286   2
  -4  14   7 8.81886 4.84891   2
  -3  14   7 7.39435 4.74119   2
  -1  14   7 15.9109 9.80156  -1
  -2  15   6 15.9109 9.80156   2
   0  14   7 12.9935 9.55804  -1
  -1  15   6 12.9935 9.55804   2
   1  14   7 12.8612 8.96364  -1
   0  15   6 12.8612 8.96364   2
   2  14   7 14.0251 9.81459  -1
   1  15   6 14.0251 9.81459   2
   2  14   7 14.1441 5.66235   2
 -11  15   7 11.4659 4.28571   2
  -8  15   7 0.79116 8.39774  -1
  -9  15   6 0.79116 8.39774   2
  -7  15   7 -3.3950 8.28951  -1
  -8  15   6 -3.3950 8.28951   2
  -6  15   7 6.40229 8.93090  -1
  -7  15   6 6.40229 8.93090   2
  -6  15   7 13.1321 3.46382   2
  -5  15   7 18.4630 3.60495   2
  -5  15   7 1.41913 12.0768  -1
  -6  15   6 1.41913 12.0768   2
  -4  15   7 10.2097 3.54399   2
  -1  15   7 14.7272 15.7506  -1
  -2  16   6 14.7272 15.7506   2
   0  15   7 7.25849 10.3858  -1
  -1  16   6 7.25849 10.3858   2
  -9  16   7 19.5069 3.89736   2
  -8  16   7 14.2889 4.25023   2
  -8  16   7 -1.5766 9.07543  -1
  -9  16   6 -1.5766 9.07543   2
  -7  16   7 -0.0448 6.66567  -1
  -8  16   6 -0.0448 6.66567   2
  -6  16   7 7.32172 7.07680  -1
  -7  16   6 7.32172 7.07680   2
  -6  16   7 10.4229 3.80506   2
  -5  16   7 13.5799 3.89606   2
  -5  16   7 3.79362 7.51236  -1
  -6  16   6 3.79362 7.51236   2
  -4  16   7 12.0946 3.92850   2
  -3 -16   8 2.99045 10.2716  -1
  -2 -16   9 2.99045 10.2716   2
  -2 -16   8 -14.109 15.3062  -1
  -1 -16   9 -14.109 15.3062   2
   1 -16   8 -0.5494 5.06901   2
   2 -16   8 1.69279 5.08684   2
   2 -16   8 1.45146 16.0064  -1
   3 -15   9 1.45146 16.0064   2
   3 -16   8 10.5919 17.1315  -1
   4 -15   9 10.5919 17.1315   2
   3 -16   8 3.84455 5.23236   2
   4 -16   8 -1.0003 5.26427   2
  -6 -15   8 0.54231 7.23065   2
  -6 -15   8 5.17043 15.0414  -1
  -5 -15   9 5.17043 15.0414   2
  -5 -15   8 -2.8664 13.7768  -1
  -4 -15   9 -2.8664 13.7768   2
  -4 -15   8 -0.3603 8.89460  -1
  -3 -15   9 -0.3603 8.89460   2
  -3 -15   8 9.09470 9.07381  -1
  -2 -15   9 9.09470 9.07381   2
  -2 -15   8 7.40200 9.49003  -1
  -1 -15   9 7.40200 9.49003   2
   1 -15   8 2.50288 4.68817   2
   2 -15   8 0.97597 4.68066   2
   3 -15   8 -1.2423 4.66829   2
   5 -15   8 -2.7120 6.31046   2
   6 -15   8 -0.0940 5.19501   2
  -7 -14   8 0.84904 14.0181  -1
  -6 -14   9 0.84904 14.0181   2
  -7 -14   8 0.76803 6.49860   2
  -6 -14   8 9.22877 13.1468  -1
  -5 -14   9 9.22877 13.1468   2
  -6 -14   8 3.36619 6.54841   2
  -5 -14   8 -2.7877 7.92755  -1
  -4 -14   9 -2.7877 7.92755   2
  -4 -14   8 1.06136 7.92482  -1
  -3 -14   9 1.06136 7.92482   2
  -3 -14   8 8.47379 8.32707  -1
  -2 -14   9 8.47379 8.32707   2
  -2 -14   8 13.2367 11.6093  -1
  -1 -14   9 13.2367 11.6093   2
   0 -14   8 1.31316 4.18282   2
   1 -14   8 -0.6056 4.14399   2
   2 -14   8 -1.7360 4.19109   2
   3 -14   8 -0.6811 4.26881   2
   4 -14   8 3.41812 4.50017   2
   5 -14   8 -0.7504 4.57243   2
   6 -14   8 2.20637 4.82578   2
   7 -14   8 2.29848 13.1867  -1
   8 -13   8 2.29848 13.1867   2
   7 -14   8 -0.9126 4.90086   2
  -7 -13   8 11.3866 6.14204   2
  -7 -13   8 10.0872 13.3229  -1
  -6 -13   9 10.0872 13.3229   2
  -6 -13   8 4.20494 7.15300  -1
  -5 -13   9 4.20494 7.15300   2
  -6 -13   8 3.64140 5.87221   2
  -5 -13   8 3.37410 6.93155  -1
  -4 -13   9 3.37410 6.93155   2
  -4 -13   8 4.17201 7.11240  -1
  -3 -13   9 4.17201 7.11240   2
  -3 -13   8 10.7156 10.3584  -1
  -2 -13   9 10.7156 10.3584   2
  -1 -13   8 -2.0512 3.55103   2
   0 -13   8 6.25768 3.84999   2
   1 -13   8 4.09776 3.85312   2
   2 -13   8 2.65787 3.83418   2
   3 -13   8 0.25778 3.94202   2
   4 -13   8 0.29526 4.13455   2
   5 -13   8 -1.4101 3.45352   2
   6 -13   8 10.2144 11.1685  -1
   7 -12   8 10.2144 11.1685   2
   6 -13   8 -0.5547 4.18301   2
   7 -13   8 4.81202 11.4856  -1
   8 -12   8 4.81202 11.4856   2
   7 -13   8 0.14965 4.34826   2
   8 -13   8 3.19106 11.9711  -1
   9 -12   8 3.19106 11.9711   2
  -8 -12   8 5.19569 5.33066   2
  -7 -12   8 13.7935 5.62959   2
  -6 -12   8 -0.2573 6.04957  -1
  -5 -12   9 -0.2573 6.04957   2
  -6 -12   8 11.1112 5.36014   2
  -5 -12   8 12.7786 3.25201   2
  -5 -12   8 -2.3896 5.99481  -1
  -4 -12   9 -2.3896 5.99481   2
  -4 -12   8 0.36960 8.21887  -1
  -3 -12   9 0.36960 8.21887   2
  -2 -12   8 5.26560 3.24390   2
  -1 -12   8 8.90660 3.39883   2
   0 -12   8 6.52149 3.41201   2
   1 -12   8 3.82895 2.11270   2
   2 -12   8 -0.6061 1.82409   2
   3 -12   8 2.65628 3.49309   2
   4 -12   8 0.10186 3.64487   2
   5 -12   8 0.37753 7.71513  -1
   6 -11   8 0.37753 7.71513   2
   5 -12   8 -0.6539 3.78983   2
   6 -12   8 -11.989 9.18896  -1
   7 -11   8 -11.989 9.18896   2
   6 -12   8 -1.8202 4.02807   2
   7 -12   8 0.24564 8.09572  -1
   8 -11   8 0.24564 8.09572   2
  -6 -11   8 24.9374 5.28112   2
  -5 -11   8 5.09561 2.68530   2
  -4 -11   8 -1.5414 2.47019   2
  -3 -11   8 7.72284 2.89915   2
  -2 -11   8 5.79822 2.80862   2
  -1 -11   8 8.87440 2.01673   2
   0 -11   8 4.96895 1.90475   2
   1 -11   8 5.59489 2.91378   2
   2 -11   8 5.19920 3.11885   2
   3 -11   8 1.14303 3.24967   2
   3 -11   8 3.13631 10.0259  -1
   4 -10   8 3.13631 10.0259   2
   4 -11   8 10.2652 6.62354  -1
   5 -10   8 10.2652 6.62354   2
   4 -11   8 1.33033 3.46293   2
   5 -11   8 5.41979 6.85279  -1
   6 -10   8 5.41979 6.85279   2
   5 -11   8 0.76748 3.54459   2
   6 -11   8 -0.3537 7.01029  -1
   7 -10   8 -0.3537 7.01029   2
   7 -11   8 -1.2882 7.36207  -1
   8 -10   8 -1.2882 7.36207   2
   9 -11   8 1.31482 4.30876   2
  10 -11   8 0.56010 4.26556   2
  10 -11   8 17.7091 15.7936  -1
  11  -9   8 17.7091 15.7936   2
 -12 -10   8 -8.1586 5.90715  -1
 -11 -11   9 -8.1586 5.90715   2
 -11 -10   8 -0.6485 5.55860  -1
 -10 -11   9 -0.6485 5.55860   2
 -10 -10   8 0.23414 5.29461  -1
  -9 -11   9 0.23414 5.29461   2
  -9 -10   8 1.48684 4.99689  -1
  -8 -11   9 1.48684 4.99689   2
  -7 -10   8 6.52377 1.44892   2
  -6 -10   8 29.0398 1.84244   2
  -5 -10   8 7.53388 1.56091   2
  -4 -10   8 17.6746 1.86669   2
  -3 -10   8 11.1672 1.91340   2
  -2 -10   8 1.54792 1.60771   2
  -1 -10   8 28.9968 2.66360   2
   0 -10   8 31.5981 4.84966   2
   1 -10   8 1.84342 2.55180   2
   2 -10   8 8.19937 1.84788   2
   3 -10   8 -0.0867 2.75273   2
   3 -10   8 0.94641 8.58065  -1
   4  -9   8 0.94641 8.58065   2
   4 -10   8 30.5914 6.16726  -1
   5  -9   8 30.5914 6.16726   2
   5 -10   8 4.39942 6.23648  -1
   6  -9   8 4.39942 6.23648   2
   6 -10   8 2.31467 7.88576  -1
   7  -9   8 2.31467 7.88576   2
   7 -10   8 2.29993 7.12175  -1
   8  -9   8 2.29993 7.12175   2
   9 -10   8 0.88123 3.84782   2
  10 -10   8 0.12740 3.87947   2
 -13  -9   8 3.30052 4.37022  -1
 -12 -10   9 3.30052 4.37022   2
 -13  -9   8 5.70562 3.22827   2
 -12  -9   8 -0.6971 3.68054  -1
 -11 -10   9 -0.6971 3.68054   2
 -12  -9   8 10.8943 2.98231   2
 -11  -9   8 4.26161 5.32223  -1
 -10 -10   9 4.26161 5.32223   2
 -11  -9   8 12.3304 2.65560   2
 -10  -9   8 12.9282 4.76592  -1
  -9 -10   9 12.9282 4.76592   2
 -10  -9   8 23.4554 1.92162   2
  -9  -9   8 22.6920 1.85532   2
  -8  -9   8 14.2712 1.53762   2
  -7  -9   8 24.2850 1.70016   2
  -6  -9   8 12.7689 1.32821   2
  -5  -9   8 24.4914 1.21820   2
  -5  -9   8 52.0520 5.29338  -1
  -4  -9   8 52.0520 5.29338   2
  -4  -9   8 -1.4137 4.76151  -1
  -3  -9   8 -1.4137 4.76151   2
  -3  -9   8 12.0288 5.82221  -1
  -2  -9   8 12.0288 5.82221   2
  -1  -9   8 8.61243 2.36208   2
   0  -9   8 26.9677 4.16363   2
   1  -9   8 -0.6472 2.17983   2
   2  -9   8 5.54801 7.64926  -1
   3  -8   8 5.54801 7.64926   2
   2  -9   8 2.60881 1.55131   2
   3  -9   8 21.3403 5.06816  -1
   4  -8   8 21.3403 5.06816   2
   3  -9   8 7.63045 2.71278   2
   4  -9   8 25.5688 7.02315  -1
   5  -8   8 25.5688 7.02315   2
   5  -9   8 24.1136 5.62301  -1
   6  -8   8 24.1136 5.62301   2
   6  -9   8 -0.4518 6.18423  -1
   7  -8   8 -0.4518 6.18423   2
   9  -9   8 -2.0932 3.52474   2
  10  -9   8 0.51289 3.74579   2
 -13  -8   8 2.27247 3.94401  -1
 -12  -9   9 2.27247 3.94401   2
 -13  -8   8 16.3933 3.08685   2
 -12  -8   8 14.2136 2.65925   2
 -12  -8   8 4.07554 5.21702  -1
 -11  -9   9 4.07554 5.21702   2
 -11  -8   8 2.49318 4.94618  -1
 -10  -9   9 2.49318 4.94618   2
 -11  -8   8 19.0039 2.56459   2
 -10  -8   8 -7.6784 4.71272  -1
  -9  -9   9 -7.6784 4.71272   2
 -10  -8   8 35.9468 2.34039   2
  -9  -8   8 22.6105 1.76747   2
  -8  -8   8 5.09631 1.19613   2
  -7  -8   8 38.3872 2.10755   2
  -6  -8   8 73.9534 5.32761  -1
  -5  -8   8 73.9534 5.32761   2
  -6  -8   8 1.70078 0.73700   2
  -5  -8   8 39.0849 4.96694  -1
  -4  -8   8 39.0849 4.96694   2
  -4  -8   8 12.5783 2.50160  -1
  -3  -8   8 12.5783 2.50160   2
  -3  -8   8 3.63978 2.48662  -1
  -2  -8   8 3.63978 2.48662   2
  -2  -8   8 5.64214 6.22526  -1
  -1  -8   8 5.64214 6.22526   2
   2  -8   8 35.9211 2.48517   2
   3  -8   8 28.8126 4.81909  -1
   4  -7   8 28.8126 4.81909   2
   4  -8   8 38.9971 5.33257  -1
   5  -7   8 38.9971 5.33257   2
   5  -8   8 48.2154 6.11955  -1
   6  -7   8 48.2154 6.11955   2
   6  -8   8 4.51042 11.0531  -1
   7  -7   8 4.51042 11.0531   2
   8  -8   8 -0.9062 3.07636   2
   9  -8   8 -0.3711 3.26029   2
  10  -8   8 0.65457 3.53330   2
  11  -8   8 0.00792 7.90823   2
  11  -8   8 -14.204 15.6247  -1
  11  -6   8 -14.204 15.6247   2
 -14  -7   8 6.15658 5.83542  -1
 -13  -8   9 6.15658 5.83542   2
 -14  -7   8 8.49577 1.44158   2
 -13  -7   8 14.7310 1.38471   2
 -12  -7   8 9.78954 1.15505   2
 -11  -7   8 19.2343 1.31260   2
 -10  -7   8 15.5066 1.04355   2
  -9  -7   8 5.93654 0.86962   2
  -8  -7   8 21.2222 1.00756   2
  -7  -7   8 45.9150 1.44438   2
  -7  -7   8 34.5138 4.57616  -1
  -6  -7   8 34.5138 4.57616   2
  -6  -7   8 132.201 3.26420  -1
  -5  -7   8 132.201 3.26420   2
  -5  -7   8 58.6012 2.36385  -1
  -4  -7   8 58.6012 2.36385   2
  -4  -7   8 33.2816 2.67735  -1
  -3  -7   8 33.2816 2.67735   2
  -3  -7   8 69.0025 3.10787  -1
  -2  -7   8 69.0025 3.10787   2
  -1  -7   8 2.40330 1.39730   2
   2  -7   8 6.65946 1.33407   2
   3  -7   8 1.01040 2.08342   2
   8  -7   8 8.11099 3.31666   2
   9  -7   8 6.88747 3.33322   2
  10  -7   8 -1.7384 3.29657   2
  10  -7   8 -1.2895 13.0410  -1
  10  -5   8 -1.2895 13.0410   2
  11  -7   8 -0.2656 13.8567  -1
  11  -5   8 -0.2656 13.8567   2
  11  -7   8 -5.3909 7.59588   2
 -15  -6   8 6.68450 1.56404   2
 -14  -6   8 2.95240 1.16137   2
 -13  -6   8 5.15355 1.04402   2
 -10  -6   8 9.83765 0.88178   2
  -9  -6   8 18.7538 0.96431   2
  -8  -6   8 180.126 2.29905   2
  -7  -6   8 73.0455 1.57898   2
  -6  -6   8 298.304 2.69607   2
  -6  -6   8 236.462 3.47069  -1
  -5  -6   8 236.462 3.47069   2
  -5  -6   8 117.679 2.38310  -1
  -4  -6   8 117.679 2.38310   2
  -4  -6   8 52.3328 2.07696  -1
  -3  -6   8 52.3328 2.07696   2
  -3  -6   8 49.2665 2.68681  -1
  -2  -6   8 49.2665 2.68681   2
  -2  -6   8 8.54537 4.07122  -1
  -1  -6   8 8.54537 4.07122   2
   0  -6   8 37.7767 2.05634   2
   1  -6   8 10.3773 1.32508   2
   2  -6   8 1.79097 1.90128   2
   3  -6   8 24.1244 3.83206   2
   6  -6   8 12.5469 2.96066   2
   7  -6   8 4.85862 2.72377   2
   8  -6   8 3.93286 2.89278   2
   9  -6   8 3.38097 3.01032   2
   9  -6   8 3.51527 10.9870  -1
   9  -4   8 3.51527 10.9870   2
  10  -6   8 -2.5571 6.76307   2
  10  -6   8 6.36605 11.3829  -1
  10  -4   8 6.36605 11.3829   2
  11  -6   8 1.05110 12.1069  -1
  11  -4   8 1.05110 12.1069   2
 -15  -5   8 2.72142 2.14643   2
 -14  -5   8 11.5475 1.32113   2
 -13  -5   8 15.5406 1.07154   2
 -13  -5   8 9.24141 2.72631  -1
 -12  -6   8 9.24141 2.72631   2
 -12  -5   8 16.1682 3.80376  -1
 -11  -6   8 16.1682 3.80376   2
  -9  -5   8 113.912 1.84263   2
  -8  -5   8 325.384 3.17739   2
  -7  -5   8 120.931 1.51522   2
  -7  -5   8 480.793 10.3895  -1
  -6  -5   8 480.793 10.3895   2
  -6  -5   8 151.019 2.76760  -1
  -5  -5   8 151.019 2.76760   2
  -5  -5   8 47.6970 1.92086  -1
  -4  -5   8 47.6970 1.92086   2
  -4  -5   8 63.7771 2.15902  -1
  -3  -5   8 63.7771 2.15902   2
  -3  -5   8 36.7274 3.90065  -1
  -2  -5   8 36.7274 3.90065   2
  -2  -5   8 107.459 4.97244  -1
  -1  -5   8 107.459 4.97244   2
   0  -5   8 66.4860 1.94122   2
   1  -5   8 27.7162 1.24498   2
   2  -5   8 4.38231 1.93454   2
   2  -5   8 51.3174 6.03741  -1
   2  -4   8 51.3174 6.03741   2
   3  -5   8 82.2450 5.51059   2
   3  -5   8 80.9968 4.96727  -1
   3  -4   8 80.9968 4.96727   2
   4  -5   8 8.63861 4.14386  -1
   4  -4   8 8.63861 4.14386   2
   4  -5   8 23.2829 3.78732   2
   5  -5   8 -1.0455 2.07671   2
   5  -5   8 -3.5650 7.51198  -1
   5  -4   8 -3.5650 7.51198   2
   6  -5   8 3.23974 2.39451   2
   6  -5   8 83.9000 7.15798  -1
   6  -4   8 83.9000 7.15798   2
   7  -5   8 8.87735 2.88543   2
   8  -5   8 8.77738 3.14837   2
   9  -5   8 1.09910 2.98850   2
   9  -5   8 7.75312 5.06438  -1
   9  -3   8 7.75312 5.06438   2
  10  -5   8 -3.2055 10.7870  -1
  10  -3   8 -3.2055 10.7870   2
  11  -5   8 3.84349 10.3051  -1
  11  -3   8 3.84349 10.3051   2
 -14  -4   8 40.7472 2.67198   2
 -13  -4   8 4.32460 3.27463  -1
 -12  -5   8 4.32460 3.27463   2
 -12  -4   8 8.91551 2.39310  -1
 -11  -5   8 8.91551 2.39310   2
 -11  -4   8 31.9785 3.56297  -1
 -10  -5   8 31.9785 3.56297   2
 -10  -4   8 81.9044 1.47716   2
  -9  -4   8 129.403 1.87297   2
  -8  -4   8 89.5062 1.51765   2
  -7  -4   8 76.0000 1.17855   2
  -6  -4   8 123.569 1.66834   2
  -5  -4   8 44.4250 1.16957   2
  -4  -4   8 26.8457 1.14800   2
  -4  -4   8 139.750 5.06020  -1
  -3  -4   8 139.750 5.06020   2
  -2  -4   8 79.3750 1.84190   2
  -1  -4   8 196.501 5.93349  -1
  -1  -4   8 196.501 5.93349   2
   0  -4   8 70.7787 1.40728   2
   1  -4   8 85.6530 1.85705   2
   1  -4   8 94.4091 3.29887  -1
   1  -3   8 94.4091 3.29887   2
   2  -4   8 91.8185 3.98841  -1
   2  -3   8 91.8185 3.98841   2
   3  -4   8 46.2069 3.54149  -1
   3  -3   8 46.2069 3.54149   2
   4  -4   8 1.63495 3.82782  -1
   4  -3   8 1.63495 3.82782   2
   5  -4   8 47.3647 4.92391  -1
   5  -3   8 47.3647 4.92391   2
   6  -4   8 87.9764 5.59956  -1
   6  -3   8 87.9764 5.59956   2
   8  -4   8 11.1320 3.17140   2
   9  -4   8 12.3365 5.33011  -1
   9  -2   8 12.3365 5.33011   2
  10  -4   8 9.96076 11.6429  -1
  10  -2   8 9.96076 11.6429   2
  11  -4   8 20.9486 11.7784  -1
  11  -2   8 20.9486 11.7784   2
  12  -4   8 2.28669 7.40887   2
 -14  -3   8 30.9096 3.44944  -1
 -13  -4   8 30.9096 3.44944   2
 -13  -3   8 10.7840 2.96402  -1
 -12  -4   8 10.7840 2.96402   2
 -12  -3   8 19.2956 1.21304   2
 -12  -3   8 6.02628 2.90702  -1
 -11  -4   8 6.02628 2.90702   2
 -11  -3   8 6.08737 0.58750   2
 -10  -3   8 39.8783 1.11980   2
  -9  -3   8 63.1965 1.33202   2
  -8  -3   8 23.7431 1.00442   2
  -7  -3   8 174.452 1.85549   2
  -6  -3   8 80.4887 1.30539   2
  -5  -3   8 171.258 4.76721  -1
  -5  -3   8 171.258 4.76721   2
  -4  -3   8 336.984 7.65148  -1
  -4  -3   8 336.984 7.65148   2
  -3  -3   8 410.655 4.01655   2
  -2  -3   8 395.692 3.94557   2
  -1  -3   8 352.062 8.10231  -1
  -1  -3   8 352.062 8.10231   2
   0  -3   8 112.946 1.62714   2
   0  -3   8 152.689 3.81240  -1
   0  -2   8 152.689 3.81240   2
   1  -3   8 110.086 2.62220  -1
   1  -2   8 110.086 2.62220   2
   2  -3   8 103.201 3.47533  -1
   2  -2   8 103.201 3.47533   2
   3  -3   8 55.0352 3.03853  -1
   3  -2   8 55.0352 3.03853   2
   4  -3   8 108.250 3.89704  -1
   4  -2   8 108.250 3.89704   2
   5  -3   8 55.2835 5.98790  -1
   5  -2   8 55.2835 5.98790   2
   6  -3   8 40.9166 6.20010  -1
   6  -2   8 40.9166 6.20010   2
   7  -3   8 9.30948 2.79322   2
   8  -3   8 25.4082 10.2727  -1
   8  -1   8 25.4082 10.2727   2
   8  -3   8 12.8213 3.24789   2
   9  -3   8 21.0221 10.7528  -1
   9  -1   8 21.0221 10.7528   2
  10  -3   8 18.5831 11.8099  -1
  10  -1   8 18.5831 11.8099   2
  11  -3   8 7.00841 12.2599  -1
  11  -1   8 7.00841 12.2599   2
 -12  -2   8 41.4371 3.73420   2
 -11  -2   8 1.88742 0.67900   2
 -10  -2   8 1.86172 0.53358   2
  -9  -2   8 6.22512 2.65474  -1
  -9  -2   8 6.22512 2.65474   2
  -8  -2   8 40.3436 3.10719  -1
  -8  -2   8 40.3436 3.10719   2
  -7  -2   8 88.5966 2.71218  -1
  -7  -2   8 88.5966 2.71218   2
  -6  -2   8 127.578 2.54171  -1
  -6  -2   8 127.578 2.54171   2
  -5  -2   8 191.661 2.99464  -1
  -5  -2   8 191.661 2.99464   2
  -4  -2   8 544.310 7.57957  -1
  -4  -2   8 544.310 7.57957   2
  -3  -2   8 287.956 6.75923  -1
  -3  -2   8 287.956 6.75923   2
  -2  -2   8 495.430 10.0690  -1
  -2  -2   8 495.430 10.0690   2
  -1  -2   8 461.125 9.56626  -1
  -1  -2   8 461.125 9.56626   2
   0  -2   8 154.547 5.32010  -1
   0  -2   8 154.547 5.32010   2
   1  -2   8 125.141 2.57809  -1
   1  -1   8 125.141 2.57809   2
   2  -2   8 28.1232 2.18613  -1
   2  -1   8 28.1232 2.18613   2
   3  -2   8 55.8366 2.92114  -1
   3  -1   8 55.8366 2.92114   2
   4  -2   8 75.9986 4.03043  -1
   4  -1   8 75.9986 4.03043   2
   5  -2   8 46.8270 5.72083  -1
   5  -1   8 46.8270 5.72083   2
   6  -2   8 26.3595 5.98192  -1
   6  -1   8 26.3595 5.98192   2
   8  -2   8 0.85299 5.29760   2
 -12  -1   8 10.0345 2.22522   2
 -11  -1   8 40.4818 3.29354   2
 -10  -1   8 62.2115 1.12498   2
  -9  -1   8 76.5698 1.27930   2
  -8  -1   8 170.472 1.96974   2
  -7  -1   8 94.2901 2.66237  -1
  -7  -1   8 94.2901 2.66237   2
  -6  -1   8 217.668 2.56828  -1
  -6  -1   8 217.668 2.56828   2
  -5  -1   8 176.665 2.86698  -1
  -5  -1   8 176.665 2.86698   2
  -4  -1   8 201.385 3.80494  -1
  -4  -1   8 201.385 3.80494   2
  -3  -1   8 121.728 4.21180  -1
  -3  -1   8 121.728 4.21180   2
  -2  -1   8 302.963 7.09956  -1
  -2  -1   8 302.963 7.09956   2
  -1  -1   8 381.265 8.34388  -1
  -1  -1   8 381.265 8.34388   2
   0  -1   8 28.7715 3.58272  -1
   0  -1   8 28.7715 3.58272   2
   1  -1   8 190.427 2.47290  -1
   1   0   8 190.427 2.47290   2
   2  -1   8 27.9810 1.85798  -1
   2   0   8 27.9810 1.85798   2
   3  -1   8 66.8878 2.39961  -1
   3   0   8 66.8878 2.39961   2
   5  -1   8 84.0165 6.80910  -1
   5   0   8 84.0165 6.80910   2
 -13   0   8 28.0250 3.31119   2
 -12   0   8 20.5711 2.76196   2
 -11   0   8 85.6318 4.01959   2
 -10   0   8 76.1136 1.19459   2
  -9   0   8 1.03674 2.02312  -1
  -9   0   8 1.03674 2.02312   2
  -8   0   8 32.1938 2.07764  -1
  -8   0   8 32.1938 2.07764   2
  -7   0   8 85.8681 1.92800  -1
  -7   0   8 85.8681 1.92800   2
  -6   0   8 100.081 1.60691  -1
  -6   0   8 100.081 1.60691   2
  -5   0   8 112.083 1.92746  -1
  -5   0   8 112.083 1.92746   2
  -4   0   8 66.3133 2.13533  -1
  -4   0   8 66.3133 2.13533   2
  -3   0   8 313.406 7.11005  -1
  -3   0   8 313.406 7.11005   2
  -2   0   8 375.971 8.23370  -1
  -2   0   8 375.971 8.23370   2
  -1   0   8 372.982 8.20046  -1
  -1   0   8 372.982 8.20046   2
   0   0   8 50.6103 1.22058   2
   1   0   8 39.3519 1.43548  -1
   1   1   8 39.3519 1.43548   2
   2   0   8 31.9483 2.47695  -1
   2   1   8 31.9483 2.47695   2
   3   0   8 77.9353 3.41453  -1
   3   1   8 77.9353 3.41453   2
   4   0   8 67.2051 6.38031  -1
   4   1   8 67.2051 6.38031   2
   7   0   8 11.1544 2.94113   2
   8   0   8 6.15801 2.76922   2
   9   0   8 14.7440 3.60322   2
  10   0   8 2.33845 6.71424   2
  11   0   8 1.44862 7.42105   2
 -13   1   8 37.3869 3.76995   2
 -12   1   8 72.7379 4.29029   2
 -10   1   8 -0.6247 1.80927  -1
 -10   1   8 -0.6247 1.80927   2
  -9   1   8 18.7231 2.20855  -1
  -9   1   8 18.7231 2.20855   2
  -8   1   8 78.2795 2.54217  -1
  -8   1   8 78.2795 2.54217   2
  -7   1   8 381.992 5.31258  -1
  -7   1   8 381.992 5.31258   2
  -6   1   8 29.0667 0.97680  -1
  -6   1   8 29.0667 0.97680   2
  -5   1   8 58.0189 1.52378  -1
  -5   1   8 58.0189 1.52378   2
  -4   1   8 137.381 3.12255  -1
  -4   1   8 137.381 3.12255   2
  -3   1   8 523.837 10.3396  -1
  -3   1   8 523.837 10.3396   2
  -2   1   8 282.408 6.84392  -1
  -2   1   8 282.408 6.84392   2
  -1   1   8 46.4139 3.53785  -1
  -1   1   8 46.4139 3.53785   2
   0   1   8 79.6022 1.15237   2
   0   1   8 135.117 3.79872  -1
   0   2   8 135.117 3.79872   2
   1   1   8 19.6954 4.00983  -1
   1   2   8 19.6954 4.00983   2
   2   1   8 77.4902 5.33023  -1
   2   2   8 77.4902 5.33023   2
   7   1   8 3.32588 2.40842   2
   8   1   8 -1.7709 5.30174   2
   9   1   8 3.39278 6.03291   2
  10   1   8 0.91658 6.74317   2
  11   1   8 3.05659 7.60531   2
 -11   2   8 11.7140 1.96377  -1
 -11   2   8 11.7140 1.96377   2
 -11   2   8 55.6078 4.60500  -1
 -11   1   8 55.6078 4.60500   2
 -10   2   8 -1.9887 2.05294  -1
 -10   2   8 -1.9887 2.05294   2
  -9   2   8 90.4061 2.33546  -1
  -9   2   8 90.4061 2.33546   2
  -8   2   8 138.538 2.56876  -1
  -8   2   8 138.538 2.56876   2
  -7   2   8 244.452 2.72788  -1
  -7   2   8 244.452 2.72788   2
  -6   2   8 19.7321 0.90414  -1
  -6   2   8 19.7321 0.90414   2
  -5   2   8 10.7518 1.08131  -1
  -5   2   8 10.7518 1.08131   2
  -4   2   8 141.036 2.44110  -1
  -4   2   8 141.036 2.44110   2
  -3   2   8 168.309 3.50431  -1
  -3   2   8 168.309 3.50431   2
  -2   2   8 133.869 4.80838  -1
  -2   2   8 133.869 4.80838   2
  -1   2   8 -0.6693 2.83195  -1
  -1   2   8 -0.6693 2.83195   2
   0   2   8 133.078 5.66646  -1
   0   3   8 133.078 5.66646   2
   7   2   8 10.9603 3.06821   2
   8   2   8 16.6850 3.51259   2
   9   2   8 -0.0787 6.27109   2
  10   2   8 1.61628 6.94388   2
  11   2   8 -1.0746 7.60103   2
 -13   3   8 26.3256 4.67127  -1
 -13   2   8 26.3256 4.67127   2
 -12   3   8 -0.3122 2.13875  -1
 -12   3   8 -0.3122 2.13875   2
 -12   3   8 64.7322 5.25991  -1
 -12   2   8 64.7322 5.25991   2
 -11   3   8 14.6111 2.44143  -1
 -11   2   8 14.6111 2.44143   2
 -11   3   8 14.6217 2.45461  -1
 -11   3   8 14.6217 2.45461   2
 -10   3   8 1.62655 1.74352  -1
 -10   3   8 1.62655 1.74352   2
  -9   3   8 115.870 2.76954  -1
  -9   3   8 115.870 2.76954   2
  -8   3   8 70.4799 1.88641  -1
  -8   3   8 70.4799 1.88641   2
  -7   3   8 107.919 1.51774  -1
  -7   3   8 107.919 1.51774   2
  -6   3   8 206.731 2.17360  -1
  -6   3   8 206.731 2.17360   2
  -5   3   8 131.658 1.55535  -1
  -5   3   8 131.658 1.55535   2
  -4   3   8 284.107 3.68920  -1
  -4   3   8 284.107 3.68920   2
  -3   3   8 132.054 3.33888  -1
  -3   3   8 132.054 3.33888   2
  -2   3   8 187.275 3.92697  -1
  -2   3   8 187.275 3.92697   2
  -1   3   8 53.4291 1.10298   2
   6   3   8 -0.4703 2.26327   2
   7   3   8 1.71268 2.45475   2
   8   3   8 4.02147 2.83924   2
   9   3   8 -1.7616 6.36349   2
  10   3   8 2.72039 7.16567   2
 -13   4   8 29.2237 2.85019  -1
 -13   4   8 29.2237 2.85019   2
 -13   4   8 20.1651 4.24948  -1
 -13   3   8 20.1651 4.24948   2
 -12   4   8 0.72593 1.57499  -1
 -12   3   8 0.72593 1.57499   2
 -12   4   8 -0.4860 1.61313  -1
 -12   4   8 -0.4860 1.61313   2
 -11   4   8 -0.7816 1.68091  -1
 -11   4   8 -0.7816 1.68091   2
 -11   4   8 14.2093 2.26342  -1
 -11   3   8 14.2093 2.26342   2
 -10   4   8 0.01990 1.80075  -1
 -10   4   8 0.01990 1.80075   2
  -9   4   8 31.8544 2.09974  -1
  -9   4   8 31.8544 2.09974   2
  -8   4   8 52.1577 1.68096  -1
  -8   4   8 52.1577 1.68096   2
  -7   4   8 93.9258 1.65003  -1
  -7   4   8 93.9258 1.65003   2
  -6   4   8 280.134 2.74988  -1
  -6   4   8 280.134 2.74988   2
  -5   4   8 53.2524 1.37570  -1
  -5   4   8 53.2524 1.37570   2
  -4   4   8 48.1111 2.02916  -1
  -4   4   8 48.1111 2.02916   2
  -3   4   8 6.16570 3.36374  -1
  -3   4   8 6.16570 3.36374   2
  -2   4   8 141.017 1.73396   2
  -1   4   8 378.249 5.38868   2
   0   4   8 281.139 10.0079   2
   1   4   8 184.698 7.90081   2
   3   4   8 23.3179 3.84097   2
   4   4   8 4.25400 2.37817   2
   5   4   8 8.17300 2.79953   2
   6   4   8 1.73677 2.49710   2
   7   4   8 4.12188 2.84878   2
   8   4   8 5.75348 3.06011   2
   9   4   8 1.30947 7.07167   2
  10   4   8 -2.5830 7.28532   2
 -15   5   8 -1.3419 3.33546  -1
 -15   5   8 -1.3419 3.33546   2
 -14   5   8 7.98461 2.02463  -1
 -14   4   8 7.98461 2.02463   2
 -14   5   8 8.00313 2.14253  -1
 -14   5   8 8.00313 2.14253   2
 -13   5   8 28.0070 1.64744  -1
 -13   4   8 28.0070 1.64744   2
 -13   5   8 10.9493 2.08936  -1
 -13   5   8 10.9493 2.08936   2
 -12   5   8 -0.3087 1.68580  -1
 -12   4   8 -0.3087 1.68580   2
 -12   5   8 5.59313 2.01217  -1
 -12   5   8 5.59313 2.01217   2
 -11   5   8 -1.6085 1.88056  -1
 -11   5   8 -1.6085 1.88056   2
 -10   5   8 21.7886 2.22761  -1
 -10   5   8 21.7886 2.22761   2
  -9   5   8 46.8364 2.14547  -1
  -9   5   8 46.8364 2.14547   2
  -8   5   8 92.7005 2.18571  -1
  -8   5   8 92.7005 2.18571   2
  -7   5   8 56.6441 1.77943  -1
  -7   5   8 56.6441 1.77943   2
  -6   5   8 48.0832 1.84909  -1
  -6   5   8 48.0832 1.84909   2
  -5   5   8 21.4116 2.10373  -1
  -5   5   8 21.4116 2.10373   2
  -4   5   8 99.5947 3.28047  -1
  -4   5   8 99.5947 3.28047   2
  -3   5   8 90.9673 1.44684   2
  -2   5   8 116.068 2.21576   2
  -1   5   8 176.324 5.69924   2
   0   5   8 68.6272 5.23849   2
   1   5   8 1.95909 2.14046   2
   2   5   8 1.71270 2.18630   2
   3   5   8 0.70859 2.32917   2
   4   5   8 5.31777 2.72309   2
   5   5   8 6.19998 2.85577   2
   6   5   8 9.29732 3.21200   2
   7   5   8 4.97377 3.30271   2
   8   5   8 12.3157 3.82144   2
   9   5   8 0.99955 7.37873   2
 -16   6   8 -7.6887 3.83597  -1
 -16   5   8 -7.6887 3.83597   2
 -15   6   8 3.48696 2.68878  -1
 -15   6   8 3.48696 2.68878   2
 -15   6   8 -2.8118 2.01040  -1
 -15   5   8 -2.8118 2.01040   2
 -14   6   8 4.40728 2.46780  -1
 -14   6   8 4.40728 2.46780   2
 -14   6   8 5.65547 1.78587  -1
 -14   5   8 5.65547 1.78587   2
 -13   6   8 7.94049 2.40732  -1
 -13   6   8 7.94049 2.40732   2
 -13   6   8 12.6428 1.77944  -1
 -13   5   8 12.6428 1.77944   2
 -12   6   8 12.0069 4.57721  -1
 -12   5   8 12.0069 4.57721   2
 -12   6   8 19.2320 2.48858  -1
 -12   6   8 19.2320 2.48858   2
 -11   6   8 -3.5238 2.98115  -1
 -11   6   8 -3.5238 2.98115   2
 -11   6   8 -2.8773 4.47637  -1
 -11   5   8 -2.8773 4.47637   2
 -10   6   8 -5.1397 2.23606  -1
 -10   6   8 -5.1397 2.23606   2
  -9   6   8 6.74340 2.01546  -1
  -9   6   8 6.74340 2.01546   2
  -8   6   8 -3.6330 2.05197  -1
  -8   6   8 -3.6330 2.05197   2
  -7   6   8 -2.3454 2.41096  -1
  -7   6   8 -2.3454 2.41096   2
  -6   6   8 -1.0650 2.02892  -1
  -6   6   8 -1.0650 2.02892   2
  -5   6   8 38.6177 2.89986  -1
  -5   6   8 38.6177 2.89986   2
  -4   6   8 30.4904 1.17648   2
  -3   6   8 50.5436 1.46930   2
  -2   6   8 74.8848 2.68817   2
  -1   6   8 110.502 4.78683   2
   0   6   8 116.839 5.04906   2
   1   6   8 13.4074 2.79267   2
   2   6   8 34.2052 4.73241   2
   3   6   8 30.3278 4.40039   2
   4   6   8 -0.3047 5.49072   2
   5   6   8 8.07523 3.46791   2
   6   6   8 15.0488 3.79713   2
   7   6   8 9.90967 3.80371   2
   8   6   8 3.91472 6.85595   2
   9   6   8 -0.3933 7.28928   2
 -16   7   8 6.20411 4.92929  -1
 -16   7   8 6.20411 4.92929   2
 -16   7   8 -3.6838 2.66734  -1
 -16   6   8 -3.6838 2.66734   2
 -15   7   8 -3.4674 2.39085  -1
 -15   6   8 -3.4674 2.39085   2
 -15   7   8 11.0017 4.11402  -1
 -15   7   8 11.0017 4.11402   2
 -14   7   8 0.76193 2.74417  -1
 -14   7   8 0.76193 2.74417   2
 -14   7   8 4.20779 2.23736  -1
 -14   6   8 4.20779 2.23736   2
 -13   7   8 -6.5419 5.18618  -1
 -13   6   8 -6.5419 5.18618   2
 -13   7   8 -1.4202 2.57432  -1
 -13   7   8 -1.4202 2.57432   2
 -12   7   8 5.15017 2.53040  -1
 -12   7   8 5.15017 2.53040   2
 -12   7   8 19.8140 5.39545  -1
 -12   6   8 19.8140 5.39545   2
 -11   7   8 -0.2518 2.37885  -1
 -11   7   8 -0.2518 2.37885   2
 -10   7   8 -6.5502 3.51060  -1
 -10   7   8 -6.5502 3.51060   2
  -9   7   8 -1.9409 2.44307  -1
  -9   7   8 -1.9409 2.44307   2
  -8   7   8 2.72362 2.57688  -1
  -8   7   8 2.72362 2.57688   2
  -7   7   8 7.57532 2.52966  -1
  -7   7   8 7.57532 2.52966   2
  -6   7   8 1.78949 4.05059  -1
  -6   7   8 1.78949 4.05059   2
  -5   7   8 13.7046 4.16517  -1
  -5   7   8 13.7046 4.16517   2
  -4   7   8 1.46769 0.76828   2
  -3   7   8 43.7578 1.87101   2
  -2   7   8 107.792 4.71126   2
  -1   7   8 47.7367 3.76121   2
   0   7   8 19.4845 3.01207   2
   1   7   8 3.86537 2.60934   2
   2   7   8 22.9202 3.46036   2
   3   7   8 35.0685 5.04609   2
   4   7   8 34.9396 5.22889   2
   5   7   8 15.1273 4.09207   2
   6   7   8 5.67063 3.75381   2
   7   7   8 7.75591 3.95059   2
   8   7   8 1.38296 7.40182   2
   8   7   8 -15.794 16.9863  -1
   7   9   7 -15.794 16.9863   2
 -16   8   8 -0.1745 1.41683   2
 -15   8   8 3.55871 1.28499   2
 -15   8   8 -4.9192 4.14734  -1
 -15   7   8 -4.9192 4.14734   2
 -14   8   8 2.47108 3.01153  -1
 -14   8   8 2.47108 3.01153   2
 -13   8   8 -1.6074 2.88608  -1
 -13   8   8 -1.6074 2.88608   2
 -12   8   8 9.05621 2.85823  -1
 -12   8   8 9.05621 2.85823   2
 -11   8   8 6.93948 4.07643  -1
 -11   8   8 6.93948 4.07643   2
 -10   8   8 -4.2439 3.89520  -1
 -10   8   8 -4.2439 3.89520   2
  -9   8   8 5.49359 3.94345  -1
  -9   8   8 5.49359 3.94345   2
  -8   8   8 0.42745 3.16493  -1
  -9   8   8 0.42745 3.16493   2
  -7   8   8 -1.4723 4.06025  -1
  -7   8   8 -1.4723 4.06025   2
  -7   8   8 1.25400 3.16282  -1
  -8   8   8 1.25400 3.16282   2
  -6   8   8 -1.4191 3.26532  -1
  -7   8   8 -1.4191 3.26532   2
  -6   8   8 -5.1238 4.17544  -1
  -6   8   8 -5.1238 4.17544   2
  -5   8   8 2.24837 0.94841   2
  -4   8   8 -0.0966 1.38521   2
  -3   8   8 17.5512 2.88094   2
  -2   8   8 58.5158 4.11323   2
  -1   8   8 22.6300 3.22804   2
   0   8   8 6.35796 2.67571   2
   1   8   8 14.8028 3.33063   2
   2   8   8 26.4407 4.04143   2
   3   8   8 26.6481 4.19365   2
   4   8   8 8.20515 3.89068   2
   5   8   8 1.65382 3.79922   2
   6   8   8 -0.6976 3.76915   2
   7   8   8 -3.1458 15.6617  -1
   6  10   7 -3.1458 15.6617   2
   7   8   8 0.20164 3.93427   2
   8   8   8 5.82723 16.5502  -1
   7  10   7 5.82723 16.5502   2
   8   8   8 -1.4235 7.69025   2
 -16   9   8 3.89671 3.18419   2
 -14   9   8 -7.1034 5.44761  -1
 -14   9   8 -7.1034 5.44761   2
 -13   9   8 -4.4334 5.03720  -1
 -13   9   8 -4.4334 5.03720   2
 -12   9   8 3.70233 4.42804  -1
 -12   9   8 3.70233 4.42804   2
 -11   9   8 -9.9551 4.17950  -1
 -11   9   8 -9.9551 4.17950   2
 -10   9   8 -0.7114 4.32752  -1
 -10   9   8 -0.7114 4.32752   2
  -9   9   8 4.07531 4.20637  -1
  -9   9   8 4.07531 4.20637   2
  -9   9   8 2.20074 4.20987  -1
 -10   9   8 2.20074 4.20987   2
  -8   9   8 1.91082 3.32748  -1
  -9   9   8 1.91082 3.32748   2
  -8   9   8 3.03924 4.49753  -1
  -8   9   8 3.03924 4.49753   2
  -7   9   8 -4.7390 4.36770  -1
  -7   9   8 -4.7390 4.36770   2
  -7   9   8 -2.2205 2.93829  -1
  -8   9   8 -2.2205 2.93829   2
  -6   9   8 -5.6518 6.36497  -1
  -7   9   8 -5.6518 6.36497   2
  -6   9   8 -5.7951 4.50507  -1
  -6   9   8 -5.7951 4.50507   2
  -5   9   8 -1.1022 1.42941   2
  -4   9   8 6.18782 1.65875   2
  -3   9   8 8.80222 2.79257   2
  -2   9   8 10.8773 3.04414   2
  -1   9   8 6.62593 2.92227   2
   0   9   8 11.0585 3.38538   2
   1   9   8 19.9932 3.95050   2
   2   9   8 9.01071 3.82358   2
   3   9   8 7.89891 4.03410   2
   4   9   8 0.88394 3.92015   2
   5   9   8 4.00213 4.21899   2
   6   9   8 -1.9913 17.6936  -1
   5  11   7 -1.9913 17.6936   2
   6   9   8 0.88611 4.28843   2
   7   9   8 0.08748 4.44220   2
   7   9   8 -6.1145 8.93491  -1
   6  11   7 -6.1145 8.93491   2
 -14  10   8 -3.8669 5.56711  -1
 -15   9   8 -3.8669 5.56711   2
 -13  10   8 7.42245 5.78928  -1
 -13  10   8 7.42245 5.78928   2
 -12  10   8 -1.6459 4.80308  -1
 -12  10   8 -1.6459 4.80308   2
 -11  10   8 -6.0867 4.69275  -1
 -11  10   8 -6.0867 4.69275   2
 -10  10   8 -0.3680 4.67412  -1
 -10  10   8 -0.3680 4.67412   2
 -10  10   8 -4.0826 4.58004  -1
 -11  10   8 -4.0826 4.58004   2
  -9  10   8 3.34598 4.51857  -1
 -10  10   8 3.34598 4.51857   2
  -9  10   8 3.36196 4.84281  -1
  -9  10   8 3.36196 4.84281   2
  -8  10   8 6.35265 3.72466  -1
  -9  10   8 6.35265 3.72466   2
  -8  10   8 -5.3047 5.03546  -1
  -8  10   8 -5.3047 5.03546   2
  -7  10   8 -5.0140 4.78533  -1
  -8  10   8 -5.0140 4.78533   2
  -6  10   8 1.17952 7.72439  -1
  -7  10   8 1.17952 7.72439   2
  -6  10   8 -0.9655 1.57950   2
  -5  10   8 -1.0394 1.58545   2
  -4  10   8 -1.0493 1.61008   2
  -3  10   8 -0.4339 2.81076   2
  -2  10   8 -1.8994 2.95294   2
  -1  10   8 2.53810 3.26162   2
   0  10   8 11.6570 3.88264   2
   1  10   8 12.5134 4.14241   2
   2  10   8 3.82098 3.99592   2
   3  10   8 -0.1368 4.10769   2
   4  10   8 1.72742 4.35095   2
   6  10   8 -1.9804 10.3193  -1
   5  12   7 -1.9804 10.3193   2
 -15  11   8 11.2453 3.79837   2
 -14  11   8 0.34385 5.72922  -1
 -15  10   8 0.34385 5.72922   2
 -14  11   8 24.4513 7.57521  -1
 -14  11   8 24.4513 7.57521   2
 -13  11   8 9.35416 6.39833  -1
 -13  11   8 9.35416 6.39833   2
 -13  11   8 7.82048 5.43776  -1
 -14  10   8 7.82048 5.43776   2
 -12  11   8 15.5228 5.58018  -1
 -12  11   8 15.5228 5.58018   2
 -11  11   8 2.17806 5.20387  -1
 -11  11   8 2.17806 5.20387   2
 -10  11   8 1.14841 5.10971  -1
 -10  11   8 1.14841 5.10971   2
  -8  11   8 15.0768 4.17585  -1
  -9  11   8 15.0768 4.17585   2
  -7  11   8 7.58879 2.06519   2
  -7  11   8 -4.9750 8.67572  -1
  -8  11   8 -4.9750 8.67572   2
  -6  11   8 0.99384 1.88613   2
  -5  11   8 -1.5036 1.85530   2
  -4  11   8 5.24762 2.06399   2
  -3  11   8 2.08503 3.45655   2
  -2  11   8 -2.0216 3.48457   2
  -1  11   8 0.68476 3.75056   2
   0  11   8 4.98804 4.03754   2
   1  11   8 7.98721 10.6473  -1
   0  12   7 7.98721 10.6473   2
   1  11   8 6.75657 4.39058   2
   2  11   8 2.99414 4.45774   2
   2  11   8 3.75960 10.9990  -1
   1  12   7 3.75960 10.9990   2
   3  11   8 -0.0844 4.67082   2
   4  11   8 2.90701 4.90520   2
 -14  12   8 15.5266 8.33703  -1
 -14  12   8 15.5266 8.33703   2
 -13  12   8 15.5741 7.44433  -1
 -13  12   8 15.5741 7.44433   2
 -13  12   8 27.0426 10.4302  -1
 -14  11   8 27.0426 10.4302   2
 -12  12   8 7.06482 4.47407   2
 -11  12   8 6.65992 3.19501   2
 -10  12   8 11.7276 3.22448   2
  -9  12   8 2.09850 2.29557   2
  -8  12   8 1.17513 2.26657   2
  -7  12   8 0.48258 2.26860   2
  -6  12   8 1.47242 2.26557   2
  -5  12   8 -0.2549 2.25317   2
  -4  12   8 1.83253 2.37012   2
  -3  12   8 -2.3486 3.82777   2
  -2  12   8 0.75302 4.16482   2
  -1  12   8 2.81514 4.38168   2
  -1  12   8 31.3491 11.8490  -1
  -2  13   7 31.3491 11.8490   2
   0  12   8 16.9902 8.20908  -1
  -1  13   7 16.9902 8.20908   2
   0  12   8 2.09034 6.59844   2
   1  12   8 0.01119 4.50230   2
   1  12   8 0.68330 8.22966  -1
   0  13   7 0.68330 8.22966   2
   2  12   8 10.8953 8.90464  -1
   1  13   7 10.8953 8.90464   2
   2  12   8 -2.6285 4.69196   2
   3  12   8 1.43991 5.00306   2
 -13  13   8 13.9341 5.23105   2
 -13  13   8 1.65884 10.7688  -1
 -14  12   8 1.65884 10.7688   2
 -12  13   8 19.9268 3.92463   2
 -11  13   8 9.57617 3.57867   2
 -10  13   8 13.1263 3.58227   2
  -9  13   8 1.37705 2.64667   2
  -8  13   8 4.49808 2.72190   2
  -7  13   8 2.58316 2.66262   2
  -6  13   8 3.50819 2.65559   2
  -5  13   8 -1.5269 2.62098   2
  -4  13   8 -2.2008 2.74844   2
  -3  13   8 2.14652 4.48404   2
  -1  13   8 22.0371 8.98213  -1
  -2  14   7 22.0371 8.98213   2
   0  13   8 34.0426 8.78124  -1
  -1  14   7 34.0426 8.78124   2
   1  13   8 29.0319 8.87409  -1
   0  14   7 29.0319 8.87409   2
   2  13   8 22.5521 9.88554  -1
   1  14   7 22.5521 9.88554   2
   2  13   8 -0.9031 5.08160   2
 -12  14   8 0.57707 3.90326   2
 -11  14   8 4.46803 3.86891   2
 -10  14   8 1.15172 3.67754   2
  -8  14   8 5.35024 3.10719   2
  -8  14   8 25.8047 9.83006  -1
  -9  14   7 25.8047 9.83006   2
  -7  14   8 2.23119 3.04000   2
  -6  14   8 0.47150 2.97641   2
  -5  14   8 2.02635 3.07991   2
  -4  14   8 -1.4508 3.08470   2
  -2  14   8 17.4626 14.3627  -1
  -3  15   7 17.4626 14.3627   2
  -1  14   8 24.3957 10.0717  -1
  -2  15   7 24.3957 10.0717   2
   0  14   8 14.9157 9.83482  -1
  -1  15   7 14.9157 9.83482   2
   1  14   8 -1.2762 5.45213   2
   1  14   8 3.33839 9.63051  -1
   0  15   7 3.33839 9.63051   2
 -10  15   8 13.5338 4.27264   2
  -9  15   8 22.3427 14.7176  -1
 -10  15   7 22.3427 14.7176   2
  -8  15   8 33.0927 8.36154  -1
  -9  15   7 33.0927 8.36154   2
  -7  15   8 37.0834 8.86749  -1
  -8  15   7 37.0834 8.86749   2
  -7  15   8 6.30102 3.48130   2
  -6  15   8 18.8521 9.65435  -1
  -7  15   7 18.8521 9.65435   2
  -6  15   8 3.08622 3.35818   2
  -5  15   8 -0.3440 3.46175   2
  -4  15   8 -4.1387 3.45299   2
  -2  15   8 33.3273 16.3861  -1
  -3  16   7 33.3273 16.3861   2
  -1  15   8 18.3902 10.8561  -1
  -2  16   7 18.3902 10.8561   2
  -7  16   8 10.5126 8.73358   2
  -6  16   8 3.93148 5.81730   2
  -6  16   8 15.4656 10.8593  -1
  -7  16   7 15.4656 10.8593   2
  -5  16   8 2.54184 5.84692   2
   0 -16   9 -0.2832 5.27458   2
   1 -16   9 1.07113 5.30462   2
   1 -16   9 8.66695 16.5352  -1
   2 -15  10 8.66695 16.5352   2
   2 -16   9 7.00652 5.48831   2
   2 -16   9 8.78799 11.6558  -1
   3 -15  10 8.78799 11.6558   2
  -5 -15   9 12.3531 9.06572  -1
  -4 -15  10 12.3531 9.06572   2
  -4 -15   9 8.89057 9.47616  -1
  -3 -15  10 8.89057 9.47616   2
  -3 -15   9 -2.9359 10.1780  -1
  -2 -15  10 -2.9359 10.1780   2
  -2 -15   9 -1.1581 14.7044  -1
  -1 -15  10 -1.1581 14.7044   2
   0 -15   9 5.81872 5.04464   2
   1 -15   9 6.31090 4.94399   2
   2 -15   9 7.91205 5.11553   2
   5 -15   9 10.5832 5.57991   2
  -7 -14   9 1.43791 14.0928  -1
  -6 -14  10 1.43791 14.0928   2
  -7 -14   9 4.66150 6.75103   2
  -6 -14   9 15.3981 12.9185  -1
  -5 -14  10 15.3981 12.9185   2
  -5 -14   9 5.11226 8.34354  -1
  -4 -14  10 5.11226 8.34354   2
  -4 -14   9 5.43809 8.49230  -1
  -3 -14  10 5.43809 8.49230   2
  -3 -14   9 6.55642 12.4770  -1
  -2 -14  10 6.55642 12.4770   2
   0 -14   9 5.65444 4.58993   2
   1 -14   9 1.95177 4.53561   2
   2 -14   9 7.65635 4.71016   2
   3 -14   9 15.6220 5.10403   2
   4 -14   9 26.4304 5.66319   2
   5 -14   9 11.2683 5.25224   2
   6 -14   9 5.93368 5.27943   2
  -8 -13   9 10.0338 13.4398  -1
  -7 -13  10 10.0338 13.4398   2
  -7 -13   9 4.09559 6.11390   2
  -7 -13   9 14.3526 12.4657  -1
  -6 -13  10 14.3526 12.4657   2
  -6 -13   9 9.47876 7.44660  -1
  -5 -13  10 9.47876 7.44660   2
  -5 -13   9 14.4180 7.51586  -1
  -4 -13  10 14.4180 7.51586   2
  -4 -13   9 3.24188 10.4227  -1
  -3 -13  10 3.24188 10.4227   2
  -1 -13   9 12.2072 4.27487   2
   0 -13   9 5.17230 4.10708   2
   1 -13   9 5.96355 4.19025   2
   2 -13   9 12.0057 4.49257   2
   3 -13   9 23.0362 4.99984   2
   4 -13   9 9.08747 4.50410   2
   5 -13   9 0.86537 4.41934   2
   6 -13   9 1.37531 4.64179   2
   6 -13   9 8.37412 9.85128  -1
   7 -12   9 8.37412 9.85128   2
   7 -13   9 5.76074 4.93563   2
   7 -13   9 21.8840 12.6498  -1
   8 -12   9 21.8840 12.6498   2
  -8 -12   9 11.7685 11.9114  -1
  -7 -12  10 11.7685 11.9114   2
  -8 -12   9 5.50057 5.47469   2
  -7 -12   9 -0.8094 5.35158   2
  -7 -12   9 10.0182 11.1723  -1
  -6 -12  10 10.0182 11.1723   2
  -6 -12   9 4.95833 5.49023   2
  -6 -12   9 10.2027 6.37379  -1
  -5 -12  10 10.2027 6.37379   2
  -5 -12   9 2.22756 8.25630  -1
  -4 -12  10 2.22756 8.25630   2
  -2 -12   9 15.1709 3.79644   2
  -1 -12   9 6.41050 3.55187   2
   0 -12   9 6.38757 3.72475   2
   1 -12   9 20.1409 4.31380   2
   2 -12   9 12.3946 3.91146   2
   3 -12   9 20.3468 4.37622   2
   4 -12   9 5.73039 4.18308   2
   4 -12   9 14.7330 13.2478  -1
   5 -11   9 14.7330 13.2478   2
   5 -12   9 2.89895 4.34279   2
   5 -12   9 8.07379 8.48916  -1
   6 -11   9 8.07379 8.48916   2
   6 -12   9 21.0231 8.53270  -1
   7 -11   9 21.0231 8.53270   2
   6 -12   9 7.49542 4.72134   2
  -7 -11   9 6.24980 4.99755   2
  -6 -11   9 1.30867 7.29152  -1
  -5 -11  10 1.30867 7.29152   2
  -6 -11   9 3.38506 4.66672   2
  -5 -11   9 0.93898 2.64753   2
  -4 -11   9 1.33785 2.76377   2
  -3 -11   9 3.17973 2.89630   2
  -2 -11   9 12.8245 3.23482   2
  -1 -11   9 15.4435 3.50149   2
   0 -11   9 4.17335 3.06254   2
   1 -11   9 14.0287 3.57579   2
   2 -11   9 6.74549 3.66876   2
   3 -11   9 9.89954 7.09035  -1
   4 -10   9 9.89954 7.09035   2
   3 -11   9 9.31835 3.98770   2
   4 -11   9 18.8897 7.31621  -1
   5 -10   9 18.8897 7.31621   2
   4 -11   9 -0.7107 3.72328   2
   5 -11   9 18.2775 7.68814  -1
   6 -10   9 18.2775 7.68814   2
   6 -11   9 23.9717 8.18679  -1
   7 -10   9 23.9717 8.18679   2
   8 -11   9 7.55934 4.89200   2
   9 -11   9 9.46779 9.27892  -1
  10  -9   9 9.46779 9.27892   2
   9 -11   9 3.20015 4.73391   2
 -11 -10   9 16.2447 6.45290  -1
 -10 -11  10 16.2447 6.45290   2
 -10 -10   9 26.0353 6.32067  -1
  -9 -11  10 26.0353 6.32067   2
  -8 -10   9 2.25918 1.41923   2
  -7 -10   9 -0.0376 1.72882   2
  -6 -10   9 0.72961 1.48574   2
  -5 -10   9 1.06574 1.47445   2
  -4 -10   9 7.81748 2.70894   2
  -3 -10   9 8.32074 2.75096   2
  -2 -10   9 4.34111 1.79383   2
  -1 -10   9 5.25073 2.59998   2
   0 -10   9 -1.1231 2.64595   2
   1 -10   9 -0.1466 2.83725   2
   2 -10   9 9.03484 6.12140  -1
   3  -9   9 9.03484 6.12140   2
   2 -10   9 0.45253 3.03136   2
   3 -10   9 -0.4456 9.65102  -1
   4  -9   9 -0.4456 9.65102   2
   3 -10   9 0.81359 3.25712   2
   4 -10   9 25.2880 6.85585  -1
   5  -9   9 25.2880 6.85585   2
   5 -10   9 26.6511 7.41878  -1
   6  -9   9 26.6511 7.41878   2
   6 -10   9 21.1243 7.47253  -1
   7  -9   9 21.1243 7.47253   2
   8 -10   9 12.5982 4.68807   2
   9 -10   9 3.12353 4.52811   2
 -12  -9   9 18.8394 4.17494  -1
 -11 -10  10 18.8394 4.17494   2
 -11  -9   9 23.8335 5.85730  -1
 -10 -10  10 23.8335 5.85730   2
 -10  -9   9 20.5506 5.30425  -1
  -9 -10  10 20.5506 5.30425   2
  -8  -9   9 -1.1206 1.15699   2
  -7  -9   9 -0.4285 1.17974   2
  -6  -9   9 0.74062 1.08486   2
  -6  -9   9 17.9384 4.89613  -1
  -5  -9   9 17.9384 4.89613   2
  -5  -9   9 17.2460 5.03333  -1
  -4  -9   9 17.2460 5.03333   2
  -4  -9   9 15.8682 5.88255  -1
  -3  -9   9 15.8682 5.88255   2
  -3  -9   9 17.9343 6.78546  -1
  -2  -9   9 17.9343 6.78546   2
  -1  -9   9 -1.0157 2.25073   2
   0  -9   9 0.44385 2.41978   2
   1  -9   9 0.83827 2.47986   2
   1  -9   9 12.0226 5.41706  -1
   2  -8   9 12.0226 5.41706   2
   2  -9   9 17.2821 5.50614  -1
   3  -8   9 17.2821 5.50614   2
   2  -9   9 25.5237 4.70758   2
   3  -9   9 20.1522 9.16702  -1
   4  -8   9 20.1522 9.16702   2
   4  -9   9 57.6700 6.92641  -1
   5  -8   9 57.6700 6.92641   2
   5  -9   9 34.1386 6.79890  -1
   6  -8   9 34.1386 6.79890   2
   6  -9   9 12.4913 7.37283  -1
   7  -8   9 12.4913 7.37283   2
   8  -9   9 1.34699 3.99560   2
   9  -9   9 1.17157 4.03310   2
 -13  -8   9 8.23569 4.07428  -1
 -12  -9  10 8.23569 4.07428   2
 -12  -8   9 0.31536 1.61284   2
 -12  -8   9 2.80503 5.61651  -1
 -11  -9  10 2.80503 5.61651   2
 -11  -8   9 0.27637 1.43764   2
 -11  -8   9 11.0617 5.55069  -1
 -10  -9  10 11.0617 5.55069   2
 -10  -8   9 -2.0886 1.24124   2
  -9  -8   9 -1.8499 1.21015   2
  -8  -8   9 -0.9207 1.07412   2
  -7  -8   9 0.10714 1.14226   2
  -7  -8   9 2.78155 4.31782  -1
  -6  -8   9 2.78155 4.31782   2
  -6  -8   9 -1.6691 4.63536  -1
  -5  -8   9 -1.6691 4.63536   2
  -5  -8   9 -2.1300 2.96357  -1
  -4  -8   9 -2.1300 2.96357   2
  -4  -8   9 8.59589 3.75978  -1
  -3  -8   9 8.59589 3.75978   2
  -3  -8   9 5.36554 4.35146  -1
  -2  -8   9 5.36554 4.35146   2
  -1  -8   9 -0.8606 2.04148   2
   0  -8   9 8.21204 2.42345   2
   1  -8   9 6.01173 2.51261   2
   2  -8   9 24.1613 5.17285  -1
   3  -7   9 24.1613 5.17285   2
   3  -8   9 8.94747 5.02834  -1
   4  -7   9 8.94747 5.02834   2
   4  -8   9 55.7243 10.4960  -1
   5  -7   9 55.7243 10.4960   2
   5  -8   9 24.4708 6.62104  -1
   6  -7   9 24.4708 6.62104   2
   8  -8   9 0.79905 3.64162   2
   9  -8   9 5.93291 4.02496   2
  10  -8   9 -1.9089 7.96600   2
  10  -8   9 10.5072 16.5390  -1
  10  -6   9 10.5072 16.5390   2
 -14  -7   9 -0.5496 1.30804   2
 -13  -7   9 -0.1469 1.08504   2
 -12  -7   9 -0.1316 0.87610   2
 -11  -7   9 0.02440 0.83717   2
 -10  -7   9 2.29292 0.86142   2
  -9  -7   9 9.40026 0.98214   2
  -8  -7   9 15.8346 1.02592   2
  -7  -7   9 0.01957 0.74955   2
  -7  -7   9 5.04652 4.58859  -1
  -6  -7   9 5.04652 4.58859   2
  -6  -7   9 7.76327 2.09957  -1
  -5  -7   9 7.76327 2.09957   2
  -5  -7   9 18.9839 2.12538  -1
  -4  -7   9 18.9839 2.12538   2
  -4  -7   9 47.3289 3.02229  -1
  -3  -7   9 47.3289 3.02229   2
  -3  -7   9 54.8009 3.93795  -1
  -2  -7   9 54.8009 3.93795   2
  -1  -7   9 4.90217 2.19269   2
   0  -7   9 0.90948 2.00706   2
   1  -7   9 0.05503 2.13905   2
   2  -7   9 2.93193 2.23436   2
   7  -7   9 -1.3237 3.11784   2
   8  -7   9 6.17168 3.66191   2
   9  -7   9 15.8005 7.29712  -1
   9  -5   9 15.8005 7.29712   2
   9  -7   9 7.44139 4.18119   2
  10  -7   9 -2.2633 8.09637   2
  10  -7   9 -2.1972 14.4412  -1
  10  -5   9 -2.1972 14.4412   2
 -14  -6   9 -0.7655 1.01451   2
 -10  -6   9 7.82455 0.89268   2
  -9  -6   9 4.52528 0.84188   2
  -8  -6   9 13.2237 0.90911   2
  -8  -6   9 3.83665 4.68232  -1
  -7  -6   9 3.83665 4.68232   2
  -7  -6   9 3.93467 2.18781  -1
  -6  -6   9 3.93467 2.18781   2
  -6  -6   9 2.66910 1.94544  -1
  -5  -6   9 2.66910 1.94544   2
  -5  -6   9 10.9655 1.95172  -1
  -4  -6   9 10.9655 1.95172   2
  -4  -6   9 10.5165 2.24120  -1
  -3  -6   9 10.5165 2.24120   2
  -3  -6   9 10.1741 4.19280  -1
  -2  -6   9 10.1741 4.19280   2
  -1  -6   9 -0.0579 0.94599   2
   0  -6   9 -1.1853 1.82196   2
   1  -6   9 0.07240 1.88312   2
   2  -6   9 0.27658 2.02445   2
   4  -6   9 -0.2872 2.19801   2
   5  -6   9 -0.0664 2.54371   2
   6  -6   9 4.80039 3.07913   2
   7  -6   9 -3.2273 5.58669   2
   8  -6   9 48.5752 12.9192  -1
   8  -4   9 48.5752 12.9192   2
   9  -6   9 11.5108 4.11796   2
   9  -6   9 14.3094 6.26141  -1
   9  -4   9 14.3094 6.26141   2
  10  -6   9 -10.053 13.0457  -1
  10  -4   9 -10.053 13.0457   2
  11  -6   9 0.46572 8.35959   2
  11  -6   9 -1.7726 13.6789  -1
  11  -4   9 -1.7726 13.6789   2
 -15  -5   9 5.14655 2.29034   2
 -14  -5   9 8.42468 0.98302   2
 -14  -5   9 -4.3708 4.24550  -1
 -13  -6   9 -4.3708 4.24550   2
 -13  -5   9 -1.0422 2.68852  -1
 -12  -6   9 -1.0422 2.68852   2
 -12  -5   9 0.00015 3.81658  -1
 -11  -6   9 0.00015 3.81658   2
 -10  -5   9 -1.1289 0.65495   2
  -9  -5   9 -0.2772 0.66509   2
  -8  -5   9 24.0372 1.02695   2
  -7  -5   9 22.1426 2.17367  -1
  -6  -5   9 22.1426 2.17367   2
  -7  -5   9 33.4273 1.32373   2
  -6  -5   9 29.2385 2.07231  -1
  -5  -5   9 29.2385 2.07231   2
  -5  -5   9 5.73626 1.85307  -1
  -4  -5   9 5.73626 1.85307   2
  -4  -5   9 1.15389 1.97797  -1
  -3  -5   9 1.15389 1.97797   2
  -3  -5   9 23.6919 4.08465  -1
  -2  -5   9 23.6919 4.08465   2
  -1  -5   9 -1.1187 0.89035   2
   0  -5   9 5.12420 1.95403   2
   1  -5   9 -0.6237 1.80411   2
   2  -5   9 1.42303 1.97633   2
   2  -5   9 8.64332 5.54735  -1
   2  -4   9 8.64332 5.54735   2
   3  -5   9 3.39557 5.32950  -1
   3  -4   9 3.39557 5.32950   2
   3  -5   9 -0.9539 1.97590   2
   4  -5   9 3.15317 4.53589  -1
   4  -4   9 3.15317 4.53589   2
   4  -5   9 0.78593 2.20254   2
   5  -5   9 1.01985 2.37655   2
   5  -5   9 -3.9563 5.99974  -1
   5  -4   9 -3.9563 5.99974   2
   6  -5   9 1.58195 2.66092   2
   7  -5   9 7.17728 3.20435   2
   8  -5   9 19.5692 11.6469  -1
   8  -3   9 19.5692 11.6469   2
   8  -5   9 8.40381 3.39859   2
   9  -5   9 4.18577 5.84945  -1
   9  -3   9 4.18577 5.84945   2
  10  -5   9 18.2054 13.8541  -1
  10  -3   9 18.2054 13.8541   2
  11  -5   9 -0.7404 7.89610   2
  11  -5   9 -0.1809 11.1015  -1
  11  -3   9 -0.1809 11.1015   2
 -14  -4   9 14.0215 3.94465  -1
 -13  -5   9 14.0215 3.94465   2
 -14  -4   9 12.1409 1.35208   2
 -13  -4   9 11.4427 2.58583  -1
 -12  -5   9 11.4427 2.58583   2
 -12  -4   9 -1.7741 2.45925  -1
 -11  -5   9 -1.7741 2.45925   2
 -10  -4   9 1.60510 0.64305   2
  -9  -4   9 5.25826 0.74192   2
  -8  -4   9 29.9558 1.05338   2
  -7  -4   9 7.24653 0.65841   2
  -6  -4   9 17.5215 3.53563  -1
  -5  -4   9 17.5215 3.53563   2
  -6  -4   9 13.2127 0.79695   2
  -5  -4   9 31.2793 3.80321  -1
  -4  -4   9 31.2793 3.80321   2
  -4  -4   9 11.7732 3.46601  -1
  -3  -4   9 11.7732 3.46601   2
  -2  -4   9 1.15997 0.51747   2
  -1  -4   9 1.90695 0.92300   2
   0  -4   9 7.62530 1.09298   2
   1  -4   9 1.31350 3.73377  -1
   1  -3   9 1.31350 3.73377   2
   1  -4   9 0.35974 1.79249   2
   2  -4   9 4.96899 3.78390  -1
   2  -3   9 4.96899 3.78390   2
   3  -4   9 0.97140 3.89615  -1
   3  -3   9 0.97140 3.89615   2
   4  -4   9 -0.2971 4.34871  -1
   4  -3   9 -0.2971 4.34871   2
   5  -4   9 2.64349 4.72383  -1
   5  -3   9 2.64349 4.72383   2
   6  -4   9 2.69964 2.44967   2
   6  -4   9 5.32642 6.04878  -1
   6  -3   9 5.32642 6.04878   2
   7  -4   9 1.83887 2.69896   2
   8  -4   9 -5.7487 5.49163  -1
   8  -2   9 -5.7487 5.49163   2
   9  -4   9 5.75089 5.68129  -1
   9  -2   9 5.75089 5.68129   2
  10  -4   9 6.07512 12.3659  -1
  10  -2   9 6.07512 12.3659   2
  11  -4   9 0.38088 13.5211  -1
  11  -2   9 0.38088 13.5211   2
 -14  -3   9 -3.7373 3.45774  -1
 -13  -4   9 -3.7373 3.45774   2
 -13  -3   9 1.19461 3.00461  -1
 -12  -4   9 1.19461 3.00461   2
 -13  -3   9 7.00582 1.42678   2
 -12  -3   9 -1.5977 2.20909  -1
 -11  -4   9 -1.5977 2.20909   2
 -11  -3   9 8.92748 0.69753   2
 -10  -3   9 1.66528 0.62256   2
  -9  -3   9 2.72133 0.67470   2
  -8  -3   9 -1.0098 0.58601   2
  -7  -3   9 3.99268 0.57046   2
  -6  -3   9 97.6332 4.39557  -1
  -6  -3   9 97.6332 4.39557   2
  -5  -3   9 41.3347 1.34213   2
  -4  -3   9 47.9695 1.45024   2
  -3  -3   9 33.8465 1.37792   2
  -2  -3   9 16.0935 1.07638   2
  -1  -3   9 6.21399 0.75678   2
   0  -3   9 13.2459 1.26206   2
   0  -3   9 12.2305 3.02236  -1
   0  -2   9 12.2305 3.02236   2
   1  -3   9 1.70034 3.30615  -1
   1  -2   9 1.70034 3.30615   2
   2  -3   9 3.10543 3.47179  -1
   2  -2   9 3.10543 3.47179   2
   3  -3   9 4.49317 3.76586  -1
   3  -2   9 4.49317 3.76586   2
   4  -3   9 -0.7426 4.02872  -1
   4  -2   9 -0.7426 4.02872   2
   5  -3   9 13.9304 5.73592  -1
   5  -2   9 13.9304 5.73592   2
   6  -3   9 -3.5890 6.10398  -1
   6  -2   9 -3.5890 6.10398   2
   7  -3   9 0.98448 2.56399   2
   7  -3   9 -3.8703 10.3179  -1
   7  -1   9 -3.8703 10.3179   2
   9  -3   9 7.92689 5.82125  -1
   9  -1   9 7.92689 5.82125   2
  10  -3   9 14.0184 13.1814  -1
  10  -1   9 14.0184 13.1814   2
 -13  -2   9 15.0166 3.02140  -1
 -12  -3   9 15.0166 3.02140   2
 -12  -2   9 20.0413 0.95081   2
 -11  -2   9 15.6167 0.73451   2
 -10  -2   9 6.30315 0.64026   2
  -9  -2   9 61.3507 3.53566  -1
  -9  -2   9 61.3507 3.53566   2
  -8  -2   9 1.44886 2.99480  -1
  -8  -2   9 1.44886 2.99480   2
  -7  -2   9 22.3813 1.99233  -1
  -7  -2   9 22.3813 1.99233   2
  -6  -2   9 36.2101 2.16616  -1
  -6  -2   9 36.2101 2.16616   2
  -5  -2   9 -2.7453 1.76947  -1
  -5  -2   9 -2.7453 1.76947   2
  -4  -2   9 15.9107 3.37709  -1
  -4  -2   9 15.9107 3.37709   2
  -3  -2   9 137.201 4.93972  -1
  -3  -2   9 137.201 4.93972   2
  -2  -2   9 129.621 5.06202  -1
  -2  -2   9 129.621 5.06202   2
  -1  -2   9 52.7613 4.13049  -1
  -1  -2   9 52.7613 4.13049   2
   0  -2   9 11.1157 3.08217  -1
   0  -1   9 11.1157 3.08217   2
   1  -2   9 -0.5531 2.97337  -1
   1  -1   9 -0.5531 2.97337   2
   2  -2   9 2.80804 2.18328  -1
   2  -1   9 2.80804 2.18328   2
   3  -2   9 4.85796 3.37786  -1
   3  -1   9 4.85796 3.37786   2
   4  -2   9 4.83499 4.93573  -1
   4  -1   9 4.83499 4.93573   2
   5  -2   9 -8.2052 5.32936  -1
   5  -1   9 -8.2052 5.32936   2
   7  -2   9 -0.1804 2.51850   2
  10  -2   9 -0.9483 14.6279  -1
  10   0   9 -0.9483 14.6279   2
 -12  -1   9 46.7002 3.69204   2
 -11  -1   9 85.9764 1.33973   2
 -10  -1   9 38.0324 1.07625   2
  -9  -1   9 46.3747 3.22465  -1
  -9  -1   9 46.3747 3.22465   2
  -8  -1   9 0.06365 2.78106  -1
  -8  -1   9 0.06365 2.78106   2
  -7  -1   9 47.9368 1.63962  -1
  -7  -1   9 47.9368 1.63962   2
  -6  -1   9 7.66433 1.34453  -1
  -6  -1   9 7.66433 1.34453   2
  -5  -1   9 13.5041 2.10248  -1
  -5  -1   9 13.5041 2.10248   2
  -4  -1   9 51.0300 3.65403  -1
  -4  -1   9 51.0300 3.65403   2
  -3  -1   9 121.705 4.79210  -1
  -3  -1   9 121.705 4.79210   2
  -2  -1   9 138.933 5.17500  -1
  -2  -1   9 138.933 5.17500   2
  -1  -1   9 44.3468 3.89384  -1
  -1  -1   9 44.3468 3.89384   2
   0  -1   9 4.88110 2.03429  -1
   0   0   9 4.88110 2.03429   2
   1  -1   9 11.2775 2.01787  -1
   1   0   9 11.2775 2.01787   2
   2  -1   9 3.27359 2.99605  -1
   2   0   9 3.27359 2.99605   2
   3  -1   9 1.32749 3.50952  -1
   3   0   9 1.32749 3.50952   2
   4  -1   9 3.12449 5.01692  -1
   4   0   9 3.12449 5.01692   2
   6  -1   9 4.96222 2.71152   2
   8  -1   9 0.46443 2.88100   2
 -13   0   9 37.0076 3.67981   2
 -12   0   9 48.3766 3.92502   2
 -11   0   9 102.297 1.44993   2
 -10   0   9 45.4610 2.68655  -1
 -10   0   9 45.4610 2.68655   2
  -9   0   9 -5.1312 2.46224  -1
  -9   0   9 -5.1312 2.46224   2
  -8   0   9 51.4391 1.99765  -1
  -8   0   9 51.4391 1.99765   2
  -7   0   9 193.265 2.35437  -1
  -7   0   9 193.265 2.35437   2
  -6   0   9 26.3697 1.33349  -1
  -6   0   9 26.3697 1.33349   2
  -5   0   9 26.9445 2.07185  -1
  -5   0   9 26.9445 2.07185   2
  -4   0   9 37.1340 3.52275  -1
  -4   0   9 37.1340 3.52275   2
  -3   0   9 34.8377 3.64643  -1
  -3   0   9 34.8377 3.64643   2
  -2   0   9 180.830 2.48198   2
  -1   0   9 67.3930 4.18313  -1
  -1   0   9 67.3930 4.18313   2
   0   0   9 43.0991 3.33225  -1
   0   1   9 43.0991 3.33225   2
   1   0   9 15.6012 3.42088  -1
   1   1   9 15.6012 3.42088   2
   2   0   9 1.73140 3.44598  -1
   2   1   9 1.73140 3.44598   2
   3   0   9 14.5230 5.10645  -1
   3   1   9 14.5230 5.10645   2
   5   0   9 -2.1015 2.11440   2
   6   0   9 6.03706 2.77874   2
   7   0   9 1.63476 2.42273   2
   8   0   9 -0.6634 2.62559   2
   9   0   9 3.07620 3.03399   2
 -13   1   9 58.6669 4.33820   2
 -12   1   9 159.902 3.25678   2
 -11   1   9 84.6404 3.02516  -1
 -11   1   9 84.6404 3.02516   2
 -10   1   9 36.8048 2.62023  -1
 -10   1   9 36.8048 2.62023   2
  -9   1   9 0.58033 1.89950  -1
  -9   1   9 0.58033 1.89950   2
  -8   1   9 205.079 4.23790  -1
  -8   1   9 205.079 4.23790   2
  -7   1   9 220.050 2.22705  -1
  -7   1   9 220.050 2.22705   2
  -6   1   9 92.9854 1.68244  -1
  -6   1   9 92.9854 1.68244   2
  -5   1   9 49.5667 1.76719  -1
  -5   1   9 49.5667 1.76719   2
  -4   1   9 16.3809 3.02965  -1
  -4   1   9 16.3809 3.02965   2
  -3   1   9 37.6054 3.67664  -1
  -3   1   9 37.6054 3.67664   2
  -2   1   9 194.524 2.60098   2
  -1   1   9 31.9573 1.51623   2
  -1   1   9 39.9778 4.59290  -1
  -1   2   9 39.9778 4.59290   2
   4   1   9 5.11838 2.29741   2
   5   1   9 0.36764 2.19501   2
   6   1   9 0.09914 2.29980   2
   7   1   9 -0.9922 2.40966   2
   8   1   9 -1.5357 2.74561   2
   9   1   9 4.94401 13.3815   2
  10   1   9 9.06466 7.93386   2
 -12   2   9 102.342 3.31082  -1
 -12   2   9 102.342 3.31082   2
 -11   2   9 42.4213 2.67809  -1
 -11   2   9 42.4213 2.67809   2
 -10   2   9 -1.7474 2.38708  -1
 -10   2   9 -1.7474 2.38708   2
  -9   2   9 62.0918 2.54645  -1
  -9   2   9 62.0918 2.54645   2
  -8   2   9 220.081 3.47906  -1
  -8   2   9 220.081 3.47906   2
  -7   2   9 87.0739 1.40646  -1
  -7   2   9 87.0739 1.40646   2
  -6   2   9 89.8143 1.65771  -1
  -6   2   9 89.8143 1.65771   2
  -5   2   9 69.0297 1.88792  -1
  -5   2   9 69.0297 1.88792   2
  -4   2   9 4.37357 3.12096  -1
  -4   2   9 4.37357 3.12096   2
  -3   2   9 59.6443 4.05636  -1
  -3   2   9 59.6443 4.05636   2
  -2   2   9 87.4266 4.59948  -1
  -2   2   9 87.4266 4.59948   2
  -1   2   9 141.367 5.99439  -1
  -1   3   9 141.367 5.99439   2
   3   2   9 33.5157 4.46566   2
   4   2   9 5.87017 2.51189   2
   5   2   9 0.26240 2.25976   2
   6   2   9 2.11452 2.52277   2
   7   2   9 -1.6193 2.53218   2
   8   2   9 3.06119 3.02676   2
   9   2   9 3.62489 7.89274   2
  10   2   9 0.41119 7.96906   2
 -13   3   9 124.617 6.63248  -1
 -13   2   9 124.617 6.63248   2
 -13   3   9 57.2424 2.87196  -1
 -13   3   9 57.2424 2.87196   2
 -12   3   9 148.906 2.72517  -1
 -12   2   9 148.906 2.72517   2
 -12   3   9 45.9179 2.93155  -1
 -12   3   9 45.9179 2.93155   2
 -11   3   9 34.1891 2.01929  -1
 -11   3   9 34.1891 2.01929   2
 -10   3   9 7.28036 1.88434  -1
 -10   3   9 7.28036 1.88434   2
  -9   3   9 181.839 2.86060  -1
  -9   3   9 181.839 2.86060   2
  -8   3   9 189.056 2.40343  -1
  -8   3   9 189.056 2.40343   2
  -7   3   9 194.477 2.19922  -1
  -7   3   9 194.477 2.19922   2
  -6   3   9 273.019 2.55807  -1
  -6   3   9 273.019 2.55807   2
  -5   3   9 251.398 2.74435  -1
  -5   3   9 251.398 2.74435   2
  -4   3   9 123.785 3.42433  -1
  -4   3   9 123.785 3.42433   2
  -3   3   9 178.887 5.78569  -1
  -3   3   9 178.887 5.78569   2
  -2   3   9 133.209 2.20524   2
   2   3   9 8.04269 2.32811   2
   3   3   9 4.17014 2.34727   2
   4   3   9 -1.6051 2.19500   2
   5   3   9 -0.3426 2.45362   2
   6   3   9 -1.5319 2.52689   2
   7   3   9 -0.2349 2.74106   2
   8   3   9 1.11938 3.09049   2
   9   3   9 0.29603 7.24676   2
 -14   4   9 42.3601 3.14160  -1
 -14   4   9 42.3601 3.14160   2
 -14   4   9 31.8749 2.35334  -1
 -14   3   9 31.8749 2.35334   2
 -13   4   9 69.0277 1.87177  -1
 -13   3   9 69.0277 1.87177   2
 -13   4   9 54.5316 3.32937  -1
 -13   4   9 54.5316 3.32937   2
 -12   4   9 46.5803 2.69197  -1
 -12   3   9 46.5803 2.69197   2
 -12   4   9 49.5651 2.24925  -1
 -12   4   9 49.5651 2.24925   2
 -11   4   9 37.4386 2.26897  -1
 -11   4   9 37.4386 2.26897   2
 -10   4   9 24.0940 2.15615  -1
 -10   4   9 24.0940 2.15615   2
  -9   4   9 81.6373 2.09783  -1
  -9   4   9 81.6373 2.09783   2
  -8   4   9 127.909 2.02619  -1
  -8   4   9 127.909 2.02619   2
  -7   4   9 289.020 2.55722  -1
  -7   4   9 289.020 2.55722   2
  -6   4   9 185.749 2.66381  -1
  -6   4   9 185.749 2.66381   2
  -5   4   9 46.9666 2.12738  -1
  -5   4   9 46.9666 2.12738   2
  -4   4   9 105.503 3.38004  -1
  -4   4   9 105.503 3.38004   2
  -3   4   9 50.5202 1.90887   2
  -2   4   9 87.2776 1.94709   2
   4   4   9 12.4384 3.00914   2
   5   4   9 7.88464 3.21028   2
   6   4   9 -0.7487 2.88214   2
   7   4   9 -3.2319 3.05059   2
   8   4   9 -1.4364 3.28198   2
   9   4   9 0.33570 7.92466   2
 -16   5   9 14.0217 4.01078  -1
 -16   5   9 14.0217 4.01078   2
 -15   5   9 22.4164 3.72267  -1
 -15   5   9 22.4164 3.72267   2
 -15   5   9 27.3364 2.52586  -1
 -15   4   9 27.3364 2.52586   2
 -14   5   9 37.0529 1.96066  -1
 -14   4   9 37.0529 1.96066   2
 -14   5   9 39.7841 3.64935  -1
 -14   5   9 39.7841 3.64935   2
 -13   5   9 47.2486 1.94963  -1
 -13   4   9 47.2486 1.94963   2
 -13   5   9 44.4919 2.48344  -1
 -13   5   9 44.4919 2.48344   2
 -12   5   9 51.1796 4.95165  -1
 -12   4   9 51.1796 4.95165   2
 -12   5   9 184.910 3.83424  -1
 -12   5   9 184.910 3.83424   2
 -11   5   9 71.8837 2.69029  -1
 -11   5   9 71.8837 2.69029   2
 -10   5   9 323.983 4.48367  -1
 -10   5   9 323.983 4.48367   2
  -9   5   9 98.3113 2.09138  -1
  -9   5   9 98.3113 2.09138   2
  -8   5   9 127.299 1.99523  -1
  -8   5   9 127.299 1.99523   2
  -7   5   9 170.104 2.44117  -1
  -7   5   9 170.104 2.44117   2
  -6   5   9 42.2430 1.93669  -1
  -6   5   9 42.2430 1.93669   2
  -5   5   9 7.17738 2.56000  -1
  -5   5   9 7.17738 2.56000   2
  -4   5   9 45.1581 4.35269  -1
  -4   5   9 45.1581 4.35269   2
  -3   5   9 16.2811 0.95746   2
  -2   5   9 96.3277 2.97509   2
  -1   5   9 151.424 7.44110   2
   0   5   9 57.9845 5.32545   2
   1   5   9 -0.3529 2.33207   2
   2   5   9 5.40895 2.69851   2
   3   5   9 9.41698 3.08939   2
   5   5   9 8.93333 3.47069   2
   6   5   9 -0.2457 3.09118   2
   7   5   9 2.60971 3.47331   2
   8   5   9 -4.4731 7.22857   2
 -16   6   9 24.1815 4.86904  -1
 -16   6   9 24.1815 4.86904   2
 -15   6   9 16.6833 2.05264  -1
 -15   5   9 16.6833 2.05264   2
 -15   6   9 19.8416 2.86013  -1
 -15   6   9 19.8416 2.86013   2
 -14   6   9 30.3543 2.17532  -1
 -14   5   9 30.3543 2.17532   2
 -14   6   9 35.8004 2.68361  -1
 -14   6   9 35.8004 2.68361   2
 -13   6   9 55.0523 2.83464  -1
 -13   6   9 55.0523 2.83464   2
 -13   6   9 48.8539 2.89669  -1
 -13   5   9 48.8539 2.89669   2
 -12   6   9 138.602 3.66386  -1
 -12   6   9 138.602 3.66386   2
 -12   6   9 195.038 7.40775  -1
 -12   5   9 195.038 7.40775   2
 -11   6   9 27.3455 2.47528  -1
 -11   6   9 27.3455 2.47528   2
 -10   6   9 151.787 3.19282  -1
 -10   6   9 151.787 3.19282   2
  -9   6   9 0.40174 2.39191  -1
  -9   6   9 0.40174 2.39191   2
  -8   6   9 1.40526 2.14842  -1
  -8   6   9 1.40526 2.14842   2
  -7   6   9 -2.2681 2.10533  -1
  -7   6   9 -2.2681 2.10533   2
  -6   6   9 11.0078 4.08137  -1
  -6   6   9 11.0078 4.08137   2
  -5   6   9 120.971 5.42150  -1
  -5   6   9 120.971 5.42150   2
  -4   6   9 45.5502 1.47748   2
  -3   6   9 48.3813 1.91690   2
  -2   6   9 181.348 6.10184   2
  -1   6   9 269.122 10.4508   2
   0   6   9 76.3132 6.04547   2
   1   6   9 7.99884 4.69250   2
   5   6   9 12.7852 3.92497   2
   6   6   9 3.20164 3.46736   2
   7   6   9 3.43890 3.96523   2
   8   6   9 -2.2647 7.69651   2
 -16   7   9 12.7366 3.82750  -1
 -16   6   9 12.7366 3.82750   2
 -16   7   9 21.0018 5.27875  -1
 -16   7   9 21.0018 5.27875   2
 -15   7   9 14.5385 2.55104  -1
 -15   6   9 14.5385 2.55104   2
 -15   7   9 19.8052 3.37121  -1
 -15   7   9 19.8052 3.37121   2
 -14   7   9 33.7939 2.47047  -1
 -14   6   9 33.7939 2.47047   2
 -14   7   9 55.4065 3.21335  -1
 -14   7   9 55.4065 3.21335   2
 -13   7   9 44.8378 5.94157  -1
 -13   6   9 44.8378 5.94157   2
 -13   7   9 77.9931 3.34025  -1
 -13   7   9 77.9931 3.34025   2
 -12   7   9 81.2414 3.32464  -1
 -12   7   9 81.2414 3.32464   2
 -11   7   9 118.260 3.65552  -1
 -11   7   9 118.260 3.65552   2
 -10   7   9 108.010 3.58404  -1
 -10   7   9 108.010 3.58404   2
  -9   7   9 24.6082 3.97005  -1
  -9   7   9 24.6082 3.97005   2
  -8   7   9 1.35391 3.73985  -1
  -8   7   9 1.35391 3.73985   2
  -7   7   9 35.6106 4.31783  -1
  -7   7   9 35.6106 4.31783   2
  -6   7   9 61.8267 4.76579  -1
  -6   7   9 61.8267 4.76579   2
  -5   7   9 102.252 5.59789  -1
  -5   7   9 102.252 5.59789   2
  -4   7   9 -0.2784 1.34029   2
  -3   7   9 55.4023 2.55757   2
  -2   7   9 197.170 6.63516   2
  -1   7   9 132.571 5.69815   2
   0   7   9 7.82755 2.97198   2
   1   7   9 5.01973 3.08902   2
   2   7   9 5.91819 3.54943   2
   3   7   9 15.3922 4.13607   2
   4   7   9 -2.6948 7.00981   2
   5   7   9 13.7451 4.44753   2
   6   7   9 4.73037 4.07863   2
   7   7   9 5.72976 4.29674   2
 -16   8   9 8.87489 2.99363   2
 -15   8   9 11.8486 5.79779  -1
 -15   8   9 11.8486 5.79779   2
 -15   8   9 17.5614 4.41412  -1
 -15   7   9 17.5614 4.41412   2
 -14   8   9 40.7151 5.40844  -1
 -14   8   9 40.7151 5.40844   2
 -13   8   9 52.1620 5.04461  -1
 -13   8   9 52.1620 5.04461   2
 -12   8   9 48.6184 4.60956  -1
 -12   8   9 48.6184 4.60956   2
 -11   8   9 142.088 6.00105  -1
 -11   8   9 142.088 6.00105   2
 -10   8   9 31.6710 4.40887  -1
 -10   8   9 31.6710 4.40887   2
  -9   8   9 22.5129 4.41102  -1
  -9   8   9 22.5129 4.41102   2
  -9   8   9 36.9658 4.49694  -1
 -10   8   9 36.9658 4.49694   2
  -8   8   9 21.9567 3.39628  -1
  -9   8   9 21.9567 3.39628   2
  -8   8   9 54.5771 4.76599  -1
  -8   8   9 54.5771 4.76599   2
  -7   8   9 143.756 6.19017  -1
  -7   8   9 143.756 6.19017   2
  -7   8   9 58.0322 3.96414  -1
  -8   8   9 58.0322 3.96414   2
  -6   8   9 148.122 6.28458  -1
  -6   8   9 148.122 6.28458   2
  -5   8   9 68.1770 2.76146   2
  -4   8   9 42.6266 2.53635   2
  -3   8   9 90.2381 3.06549   2
  -2   8   9 99.5680 5.11497   2
  -1   8   9 19.7355 3.59864   2
   0   8   9 0.21974 3.18725   2
   1   8   9 27.7083 4.31817   2
   2   8   9 17.2052 4.22095   2
   3   8   9 17.3143 4.47233   2
   4   8   9 5.25211 4.24525   2
   5   8   9 3.41555 4.26831   2
   6   8   9 2.16739 4.33677   2
   6   8   9 4.33920 16.2472  -1
   5  10   8 4.33920 16.2472   2
   7   8   9 1.39955 9.26671  -1
   6  10   8 1.39955 9.26671   2
   7   8   9 -0.9946 4.18295   2
 -16   9   9 8.61093 3.37112   2
 -15   9   9 22.2529 6.63028  -1
 -15   9   9 22.2529 6.63028   2
 -14   9   9 40.4614 6.04707  -1
 -14   9   9 40.4614 6.04707   2
 -13   9   9 41.7861 5.58965  -1
 -13   9   9 41.7861 5.58965   2
 -12   9   9 42.0664 4.97311  -1
 -12   9   9 42.0664 4.97311   2
 -11   9   9 50.9620 5.18563  -1
 -11   9   9 50.9620 5.18563   2
 -10   9   9 47.2036 5.04144  -1
 -10   9   9 47.2036 5.04144   2
  -9   9   9 68.7122 5.24159  -1
  -9   9   9 68.7122 5.24159   2
  -9   9   9 41.6222 4.07224  -1
 -10   9   9 41.6222 4.07224   2
  -8   9   9 62.2299 4.13358  -1
  -9   9   9 62.2299 4.13358   2
  -8   9   9 171.133 7.00972  -1
  -8   9   9 171.133 7.00972   2
  -7   9   9 164.182 6.92750  -1
  -8   9   9 164.182 6.92750   2
  -6   9   9 74.3754 2.97711   2
  -6   9   9 158.881 10.5216  -1
  -7   9   9 158.881 10.5216   2
  -5   9   9 3.89430 1.59776   2
  -4   9   9 8.76991 1.77252   2
  -3   9   9 10.3661 1.93302   2
  -2   9   9 13.9533 3.41527   2
  -1   9   9 25.0047 4.06330   2
   0   9   9 46.0830 4.94180   2
   1   9   9 39.7855 5.11049   2
   2   9   9 18.5531 4.65190   2
   3   9   9 14.1718 4.71839   2
   4   9   9 1.19713 4.39031   2
   5   9   9 2.90913 4.70066   2
   6   9   9 3.99456 4.97780   2
   6   9   9 -2.5591 9.93348  -1
   5  11   8 -2.5591 9.93348   2
 -15  10   9 22.1352 7.49093  -1
 -15  10   9 22.1352 7.49093   2
 -14  10   9 19.2903 6.77650  -1
 -14  10   9 19.2903 6.77650   2
 -13  10   9 16.6253 5.94637  -1
 -13  10   9 16.6253 5.94637   2
 -12  10   9 54.4787 5.58751  -1
 -12  10   9 54.4787 5.58751   2
 -11  10   9 36.1451 5.31061  -1
 -11  10   9 36.1451 5.31061   2
 -10  10   9 40.6577 5.19148  -1
 -11  10   9 40.6577 5.19148   2
 -10  10   9 70.2815 5.87090  -1
 -10  10   9 70.2815 5.87090   2
  -9  10   9 71.0063 5.34723  -1
 -10  10   9 71.0063 5.34723   2
  -9  10   9 87.2261 6.01443  -1
  -9  10   9 87.2261 6.01443   2
  -8  10   9 77.7295 4.31597  -1
  -9  10   9 77.7295 4.31597   2
  -7  10   9 39.7147 2.65327   2
  -7  10   9 86.6703 9.67437  -1
  -8  10   9 86.6703 9.67437   2
  -6  10   9 41.6745 2.67416   2
  -5  10   9 34.6132 2.44559   2
  -4  10   9 11.7499 2.03355   2
  -3  10   9 16.5362 3.89410   2
  -2  10   9 14.0922 3.94080   2
  -1  10   9 54.8352 5.23161   2
   0  10   9 46.9219 5.09099   2
   1  10   9 16.5707 4.78299   2
   2  10   9 9.71342 4.77622   2
   3  10   9 6.53176 4.85908   2
   4  10   9 5.48780 4.85085   2
   5  10   9 1.21393 18.8001  -1
   4  12   8 1.21393 18.8001   2
 -14  11   9 15.5693 6.49698  -1
 -15  10   9 15.5693 6.49698   2
 -14  11   9 20.5875 7.57296  -1
 -14  11   9 20.5875 7.57296   2
 -13  11   9 17.8283 6.62713  -1
 -13  11   9 17.8283 6.62713   2
 -12  11   9 25.7456 5.83125  -1
 -12  11   9 25.7456 5.83125   2
 -11  11   9 11.1626 3.09540   2
  -9  11   9 21.9045 5.88296  -1
 -10  11   9 21.9045 5.88296   2
  -8  11   9 33.4275 4.45642  -1
  -9  11   9 33.4275 4.45642   2
  -7  11   9 46.9212 2.98072   2
  -7  11   9 38.9375 10.1731  -1
  -8  11   9 38.9375 10.1731   2
  -6  11   9 49.2055 3.04998   2
  -5  11   9 48.6800 3.09970   2
  -4  11   9 8.24205 2.25429   2
  -3  11   9 23.0932 4.49277   2
  -2  11   9 7.12466 4.12454   2
  -1  11   9 36.9018 5.21775   2
   0  11   9 29.2842 5.24524   2
   1  11   9 9.71500 4.98756   2
   2  11   9 13.2846 5.34997   2
   3  11   9 6.65294 5.21445   2
 -14  12   9 6.48113 5.15636   2
 -13  12   9 18.8281 10.5904  -1
 -14  11   9 18.8281 10.5904   2
 -13  12   9 6.84920 4.93722   2
 -12  12   9 8.93775 4.54032   2
 -11  12   9 7.03921 3.31305   2
  -9  12   9 11.8978 6.42895  -1
 -10  12   9 11.8978 6.42895   2
  -8  12   9 25.2302 2.83674   2
  -8  12   9 27.6580 7.32968  -1
  -9  12   9 27.6580 7.32968   2
  -7  12   9 32.0758 3.00842   2
  -6  12   9 16.8711 2.70721   2
  -5  12   9 16.3790 2.69620   2
  -4  12   9 15.1901 2.78374   2
  -3  12   9 12.4505 4.64736   2
  -2  12   9 4.76527 4.58560   2
  -1  12   9 4.67451 8.57668  -1
  -2  13   8 4.67451 8.57668   2
   0  12   9 28.3590 5.64092   2
   0  12   9 1.99595 8.60649  -1
  -1  13   8 1.99595 8.60649   2
   1  12   9 -0.2658 8.91974  -1
   0  13   8 -0.2658 8.91974   2
   1  12   9 20.4245 5.55375   2
   2  12   9 -0.7667 15.1036  -1
   1  13   8 -0.7667 15.1036   2
   2  12   9 15.4840 5.89302   2
 -13  13   9 7.56350 5.25713   2
 -12  13   9 1.68201 3.67888   2
 -11  13   9 3.54564 3.57271   2
 -10  13   9 5.84849 3.54392   2
  -9  13   9 12.7287 2.97322   2
  -8  13   9 17.8690 3.07111   2
  -7  13   9 13.6757 2.97678   2
  -6  13   9 12.4613 3.00128   2
  -5  13   9 8.89752 2.90025   2
  -4  13   9 33.8348 3.40912   2
  -2  13   9 1.12823 9.48479  -1
  -3  14   8 1.12823 9.48479   2
  -1  13   9 11.1699 9.06201  -1
  -2  14   8 11.1699 9.06201   2
   0  13   9 -3.2025 8.81728  -1
  -1  14   8 -3.2025 8.81728   2
   1  13   9 -8.4493 9.47118  -1
   0  14   8 -8.4493 9.47118   2
   1  13   9 11.0891 5.78345   2
  -8  14   9 11.1079 3.33192   2
  -8  14   9 1.04607 10.7477  -1
  -9  14   8 1.04607 10.7477   2
  -7  14   9 5.35540 3.15754   2
  -6  14   9 7.64129 3.25661   2
  -5  14   9 3.20801 3.22849   2
  -2  14   9 2.57253 10.2749  -1
  -3  15   8 2.57253 10.2749   2
  -1  14   9 7.59729 9.81558  -1
  -2  15   8 7.59729 9.81558   2
   0  14   9 2.34088 7.36975   2
   0  14   9 -1.7846 13.1162  -1
  -1  15   8 -1.7846 13.1162   2
  -9  15   9 8.64997 3.56294   2
  -8  15   9 9.53111 3.64434   2
  -8  15   9 21.6780 9.47569  -1
  -9  15   8 21.6780 9.47569   2
  -7  15   9 -0.5632 3.51298   2
  -7  15   9 15.1565 15.4589  -1
  -8  15   8 15.1565 15.4589   2
  -6  15   9 0.18482 3.52030   2
  -5  15   9 2.96491 3.56139   2
  -3 -15  10 9.09185 14.9996  -1
  -2 -15  11 9.09185 14.9996   2
   0 -15  10 2.38882 5.24254   2
   1 -15  10 4.29711 5.25993   2
  -6 -14  10 11.2627 13.8303  -1
  -5 -14  11 11.2627 13.8303   2
  -5 -14  10 -7.8804 8.57644  -1
  -4 -14  11 -7.8804 8.57644   2
  -4 -14  10 -7.6196 8.99482  -1
  -3 -14  11 -7.6196 8.99482   2
  -1 -14  10 9.73177 4.95958   2
   0 -14  10 10.3000 4.92831   2
   1 -14  10 3.43141 4.81689   2
   2 -14  10 4.39828 4.87885   2
   3 -14  10 5.67459 5.08118   2
   4 -14  10 -0.0520 5.12112   2
   5 -14  10 1.05033 5.03799   2
  -8 -13  10 -6.3144 13.0535  -1
  -7 -13  11 -6.3144 13.0535   2
  -7 -13  10 12.9532 12.7645  -1
  -6 -13  11 12.9532 12.7645   2
  -6 -13  10 -6.3145 12.5822  -1
  -5 -13  11 -6.3145 12.5822   2
  -5 -13  10 1.25117 7.78167  -1
  -4 -13  11 1.25117 7.78167   2
  -4 -13  10 -7.8169 11.0472  -1
  -3 -13  11 -7.8169 11.0472   2
  -2 -13  10 17.7125 4.62308   2
  -1 -13  10 15.2363 4.67853   2
   0 -13  10 9.68719 4.51057   2
   1 -13  10 7.59684 4.57181   2
   2 -13  10 7.08972 4.45793   2
   3 -13  10 2.45790 4.50175   2
   4 -13  10 3.35433 4.68016   2
   5 -13  10 -0.6228 4.77386   2
   6 -13  10 1.43519 5.11761   2
   6 -13  10 7.86395 13.3533  -1
   7 -12  10 7.86395 13.3533   2
  -8 -12  10 -3.4109 11.3922  -1
  -7 -12  11 -3.4109 11.3922   2
  -7 -12  10 -3.1589 11.7646  -1
  -6 -12  11 -3.1589 11.7646   2
  -6 -12  10 -6.1259 6.85604  -1
  -5 -12  11 -6.1259 6.85604   2
  -5 -12  10 -5.6306 9.41090  -1
  -4 -12  11 -5.6306 9.41090   2
  -3 -12  10 6.60010 3.73508   2
  -2 -12  10 22.7256 4.28356   2
  -1 -12  10 12.6577 4.05535   2
   0 -12  10 4.72010 3.87156   2
   1 -12  10 10.0327 4.10336   2
   2 -12  10 7.60429 4.22769   2
   3 -12  10 9.85944 4.53944   2
   4 -12  10 2.56634 4.61598   2
   4 -12  10 16.4753 8.58753  -1
   5 -11  10 16.4753 8.58753   2
   5 -12  10 9.91768 8.87523  -1
   6 -11  10 9.91768 8.87523   2
   5 -12  10 7.50844 4.87810   2
   6 -12  10 -5.0624 11.8937  -1
   7 -11  10 -5.0624 11.8937   2
   6 -12  10 6.03848 5.20185   2
  -8 -11  10 -2.2884 10.7278  -1
  -7 -11  11 -2.2884 10.7278   2
  -8 -11  10 15.5162 5.64841   2
  -7 -11  10 16.8931 5.56059   2
  -6 -11  10 12.7499 5.35102   2
  -6 -11  10 -1.7376 7.63001  -1
  -5 -11  11 -1.7376 7.63001   2
  -4 -11  10 6.09507 3.12068   2
  -3 -11  10 23.7021 3.72538   2
  -2 -11  10 16.4968 3.74738   2
  -1 -11  10 3.37743 3.24905   2
   0 -11  10 11.7944 3.73738   2
   1 -11  10 9.75396 3.94736   2
   2 -11  10 3.76877 3.96275   2
   2 -11  10 8.05874 11.2272  -1
   3 -10  10 8.05874 11.2272   2
   3 -11  10 14.9130 7.89726  -1
   4 -10  10 14.9130 7.89726   2
   3 -11  10 11.2924 4.39486   2
   4 -11  10 22.2282 8.00657  -1
   5 -10  10 22.2282 8.00657   2
   4 -11  10 5.11054 4.30785   2
   5 -11  10 25.5582 8.72984  -1
   6 -10  10 25.5582 8.72984   2
   6 -11  10 28.4274 15.5827  -1
   7 -10  10 28.4274 15.5827   2
   8 -11  10 -0.3538 4.90620   2
   8 -11  10 7.92354 9.98152  -1
   9  -9  10 7.92354 9.98152   2
 -11 -10  10 4.30296 7.12779  -1
 -10 -11  11 4.30296 7.12779   2
  -8 -10  10 11.6370 2.11544   2
  -7 -10  10 10.8483 2.14626   2
  -6 -10  10 23.0559 5.11347   2
  -5 -10  10 10.1474 2.94620   2
  -4 -10  10 14.1625 3.19410   2
  -3 -10  10 32.5112 3.74631   2
  -2 -10  10 6.17843 2.79315   2
  -1 -10  10 -0.2064 2.88286   2
   0 -10  10 9.76400 3.44596   2
   1 -10  10 7.22075 3.58930   2
   1 -10  10 13.1130 10.6249  -1
   2  -9  10 13.1130 10.6249   2
   2 -10  10 12.9032 6.96184  -1
   3  -9  10 12.9032 6.96184   2
   2 -10  10 10.0132 3.84062   2
   3 -10  10 29.9444 7.30643  -1
   4  -9  10 29.9444 7.30643   2
   4 -10  10 26.0511 7.68736  -1
   5  -9  10 26.0511 7.68736   2
   5 -10  10 33.8761 8.40835  -1
   6  -9  10 33.8761 8.40835   2
   6 -10  10 23.4928 14.7768  -1
   7  -9  10 23.4928 14.7768   2
   8 -10  10 9.88862 4.93363   2
 -12  -9  10 9.29929 6.66738  -1
 -11 -10  11 9.29929 6.66738   2
 -11  -9  10 -2.2204 6.35059  -1
 -10 -10  11 -2.2204 6.35059   2
  -9  -9  10 6.35946 1.50631   2
  -8  -9  10 0.16941 1.28277   2
  -7  -9  10 15.3367 1.67701   2
  -7  -9  10 51.7384 5.74040  -1
  -6  -9  10 51.7384 5.74040   2
  -5  -9  10 33.5096 3.43003   2
  -4  -9  10 47.6177 7.53250  -1
  -3  -9  10 47.6177 7.53250   2
   0  -9  10 13.8366 3.06334   2
   1  -9  10 21.6182 6.41098  -1
   2  -8  10 21.6182 6.41098   2
   1  -9  10 11.6443 3.33014   2
   2  -9  10 23.3183 6.37403  -1
   3  -8  10 23.3183 6.37403   2
   3  -9  10 74.9221 9.93474  -1
   4  -8  10 74.9221 9.93474   2
   4  -9  10 47.0370 7.65303  -1
   5  -8  10 47.0370 7.65303   2
   5  -9  10 44.5892 8.13027  -1
   6  -8  10 44.5892 8.13027   2
   8  -9  10 2.52216 4.51201   2
 -13  -8  10 -0.7334 1.93863   2
 -13  -8  10 2.44241 4.40927  -1
 -12  -9  11 2.44241 4.40927   2
 -12  -8  10 7.57458 6.50870  -1
 -11  -9  11 7.57458 6.50870   2
 -12  -8  10 4.79222 1.80433   2
 -11  -8  10 12.5729 1.78493   2
 -10  -8  10 8.24551 1.54245   2
  -9  -8  10 7.68948 1.52713   2
  -8  -8  10 0.26827 1.19060   2
  -7  -8  10 70.8727 2.73380   2
  -7  -8  10 69.9790 5.45044  -1
  -6  -8  10 69.9790 5.45044   2
  -5  -8  10 186.520 5.02882  -1
  -4  -8  10 186.520 5.02882   2
  -5  -8  10 172.550 4.87724   2
  -3  -8  10 38.8482 6.99368  -1
  -2  -8  10 38.8482 6.99368   2
  -1  -8  10 30.0794 4.73879   2
   0  -8  10 3.09438 2.57261   2
   1  -8  10 4.18572 2.75610   2
   1  -8  10 8.89794 5.50095  -1
   2  -7  10 8.89794 5.50095   2
   2  -8  10 12.7364 5.55850  -1
   3  -7  10 12.7364 5.55850   2
   3  -8  10 29.6106 6.76180  -1
   4  -7  10 29.6106 6.76180   2
   4  -8  10 70.5340 12.6169  -1
   5  -7  10 70.5340 12.6169   2
   5  -8  10 24.6900 7.68116  -1
   6  -7  10 24.6900 7.68116   2
   7  -8  10 4.61774 4.19630   2
   8  -8  10 4.70695 4.26873   2
   9  -8  10 5.61540 4.54284   2
   9  -8  10 10.1870 17.1102  -1
   9  -6  10 10.1870 17.1102   2
 -14  -7  10 -2.3392 2.00426   2
 -13  -7  10 -0.7839 1.25212   2
 -12  -7  10 3.69578 1.16898   2
 -12  -7  10 14.8741 6.04758  -1
 -11  -8  11 14.8741 6.04758   2
 -11  -7  10 4.36737 1.40489   2
 -10  -7  10 1.21643 1.27216   2
  -9  -7  10 14.6722 1.61115   2
  -8  -7  10 43.8970 2.22285   2
  -8  -7  10 252.387 7.94779  -1
  -7  -7  10 252.387 7.94779   2
  -7  -7  10 139.301 4.37483  -1
  -6  -7  10 139.301 4.37483   2
  -6  -7  10 239.639 3.95549  -1
  -5  -7  10 239.639 3.95549   2
  -5  -7  10 123.583 3.81366  -1
  -4  -7  10 123.583 3.81366   2
  -3  -7  10 12.6230 6.50337  -1
  -2  -7  10 12.6230 6.50337   2
   3  -7  10 70.1611 8.51000  -1
   4  -6  10 70.1611 8.51000   2
   7  -7  10 4.31038 3.92899   2
   8  -7  10 3.87976 4.06862   2
   8  -7  10 22.8270 8.17970  -1
   8  -5  10 22.8270 8.17970   2
   9  -7  10 2.53891 4.36252   2
   9  -7  10 9.00983 8.45931  -1
   9  -5  10 9.00983 8.45931   2
  10  -7  10 3.73498 16.0198  -1
  10  -5  10 3.73498 16.0198   2
 -14  -6  10 0.67888 1.20953   2
 -11  -6  10 6.01792 0.91426   2
 -10  -6  10 20.6835 1.14368   2
  -9  -6  10 22.6715 1.20068   2
  -8  -6  10 62.0219 1.73941   2
  -8  -6  10 0.64792 3.16713  -1
  -7  -6  10 0.64792 3.16713   2
  -7  -6  10 5.14255 2.41191  -1
  -6  -6  10 5.14255 2.41191   2
  -6  -6  10 11.5205 2.42979  -1
  -5  -6  10 11.5205 2.42979   2
  -5  -6  10 14.5626 2.44358  -1
  -4  -6  10 14.5626 2.44358   2
  -4  -6  10 23.6356 2.63761  -1
  -3  -6  10 23.6356 2.63761   2
  -2  -6  10 67.4977 3.30660   2
   2  -6  10 9.11645 2.66707   2
   3  -6  10 32.6753 4.83097   2
   5  -6  10 14.4950 3.64976   2
   6  -6  10 13.1332 3.85001   2
   7  -6  10 62.8008 13.3174  -1
   7  -4  10 62.8008 13.3174   2
   8  -6  10 28.1319 7.31377  -1
   8  -4  10 28.1319 7.31377   2
   8  -6  10 13.6238 4.39414   2
   9  -6  10 15.3956 7.16110  -1
   9  -4  10 15.3956 7.16110   2
  10  -6  10 30.2846 14.7525  -1
  10  -4  10 30.2846 14.7525   2
  10  -6  10 -2.1779 8.48588   2
 -15  -5  10 -0.4798 2.28339   2
 -15  -5  10 2.13103 4.86220  -1
 -14  -6  11 2.13103 4.86220   2
 -14  -5  10 24.2388 3.54896  -1
 -13  -6  10 24.2388 3.54896   2
 -13  -5  10 12.2819 3.04515  -1
 -12  -6  10 12.2819 3.04515   2
 -10  -5  10 9.42696 0.92225   2
  -9  -5  10 0.74675 0.71612   2
  -8  -5  10 34.3676 1.35788   2
  -8  -5  10 -0.6129 2.75085  -1
  -7  -5  10 -0.6129 2.75085   2
  -7  -5  10 103.584 2.67360  -1
  -6  -5  10 103.584 2.67360   2
  -6  -5  10 99.3267 2.76180  -1
  -5  -5  10 99.3267 2.76180   2
  -5  -5  10 93.7607 3.70890  -1
  -4  -5  10 93.7607 3.70890   2
  -4  -5  10 154.539 6.10262  -1
  -3  -5  10 154.539 6.10262   2
  -3  -5  10 123.103 5.96889  -1
  -2  -5  10 123.103 5.96889   2
   2  -5  10 73.3116 7.21712  -1
   2  -4  10 73.3116 7.21712   2
   3  -5  10 19.3279 6.42370  -1
   3  -4  10 19.3279 6.42370   2
   4  -5  10 6.78313 2.98485   2
   4  -5  10 19.8774 6.81980  -1
   4  -4  10 19.8774 6.81980   2
   5  -5  10 3.75063 3.03811   2
   7  -5  10 18.8383 4.13064   2
   7  -5  10 52.2277 12.4139  -1
   7  -3  10 52.2277 12.4139   2
   8  -5  10 24.6238 6.83451  -1
   8  -3  10 24.6238 6.83451   2
   9  -5  10 25.8009 6.52118  -1
   9  -3  10 25.8009 6.52118   2
  10  -5  10 14.0020 11.9761  -1
  10  -3  10 14.0020 11.9761   2
 -15  -4  10 0.93514 4.63783  -1
 -14  -5  10 0.93514 4.63783   2
 -14  -4  10 0.64872 3.16255  -1
 -13  -5  10 0.64872 3.16255   2
 -14  -4  10 3.05715 1.16540   2
 -13  -4  10 1.08717 2.73515  -1
 -12  -5  10 1.08717 2.73515   2
 -12  -4  10 5.05638 4.07420  -1
 -11  -5  10 5.05638 4.07420   2
 -10  -4  10 0.93833 0.68772   2
  -9  -4  10 2.29671 0.71018   2
  -8  -4  10 11.1102 0.90624   2
  -8  -4  10 15.6117 3.83964  -1
  -7  -4  10 15.6117 3.83964   2
  -7  -4  10 36.5630 2.47489  -1
  -6  -4  10 36.5630 2.47489   2
  -6  -4  10 34.6884 2.43790  -1
  -5  -4  10 34.6884 2.43790   2
  -5  -4  10 74.4860 3.44909  -1
  -4  -4  10 74.4860 3.44909   2
  -4  -4  10 127.039 5.62831  -1
  -3  -4  10 127.039 5.62831   2
  -2  -4  10 33.3756 2.70290   2
  -1  -4  10 157.615 4.37305   2
   0  -4  10 119.466 7.69696  -1
   0  -3  10 119.466 7.69696   2
   2  -4  10 75.8486 5.28416  -1
   2  -3  10 75.8486 5.28416   2
   3  -4  10 14.6511 4.73887  -1
   3  -3  10 14.6511 4.73887   2
   4  -4  10 23.9576 5.49853  -1
   4  -3  10 23.9576 5.49853   2
   5  -4  10 15.5014 3.48312   2
   5  -4  10 53.7618 7.84081  -1
   5  -3  10 53.7618 7.84081   2
   7  -4  10 27.8947 6.30251  -1
   7  -2  10 27.8947 6.30251   2
   8  -4  10 15.2083 6.56260  -1
   8  -2  10 15.2083 6.56260   2
   9  -4  10 21.4698 6.80235  -1
   9  -2  10 21.4698 6.80235   2
  10  -4  10 -0.8673 13.5927  -1
  10  -2  10 -0.8673 13.5927   2
 -14  -3  10 -4.0108 2.57916  -1
 -13  -4  10 -4.0108 2.57916   2
 -14  -3  10 0.58838 1.51818   2
 -13  -3  10 0.38938 2.52366  -1
 -12  -4  10 0.38938 2.52366   2
 -12  -3  10 12.5424 0.84203   2
 -12  -3  10 12.4023 3.55175  -1
 -11  -4  10 12.4023 3.55175   2
 -11  -3  10 11.8069 0.80275   2
 -10  -3  10 5.40637 0.72527   2
  -9  -3  10 52.3248 1.42102   2
  -8  -3  10 2.45585 0.72165   2
  -7  -3  10 50.7698 1.23815   2
  -6  -3  10 12.9344 0.92784   2
  -5  -3  10 68.8916 1.90318   2
  -4  -3  10 123.298 2.11809   2
  -3  -3  10 101.071 2.23202   2
  -2  -3  10 7.90502 1.40140   2
  -1  -3  10 78.7013 2.49531   2
  -1  -3  10 82.4912 7.32534  -1
  -1  -2  10 82.4912 7.32534   2
   0  -3  10 140.108 5.88152  -1
   0  -2  10 140.108 5.88152   2
   1  -3  10 58.9926 6.19657  -1
   1  -2  10 58.9926 6.19657   2
   2  -3  10 99.4045 7.04237  -1
   2  -2  10 99.4045 7.04237   2
   3  -3  10 9.53029 5.39818  -1
   3  -2  10 9.53029 5.39818   2
   4  -3  10 13.2557 6.11128  -1
   4  -2  10 13.2557 6.11128   2
   5  -3  10 45.8558 7.60361  -1
   5  -2  10 45.8558 7.60361   2
   6  -3  10 12.7734 3.61150   2
   6  -3  10 29.6818 11.3407  -1
   6  -1  10 29.6818 11.3407   2
   7  -3  10 10.8937 11.9431  -1
   7  -1  10 10.8937 11.9431   2
   8  -3  10 15.4179 6.56387  -1
   8  -1  10 15.4179 6.56387   2
   9  -3  10 13.0535 6.85206  -1
   9  -1  10 13.0535 6.85206   2
  10  -3  10 2.53958 15.2771  -1
  10  -1  10 2.53958 15.2771   2
 -14  -2  10 -1.5072 3.42744  -1
 -13  -3  10 -1.5072 3.42744   2
 -13  -2  10 3.55513 1.00287   2
 -12  -2  10 6.71059 0.69262   2
 -11  -2  10 0.46860 0.61560   2
 -10  -2  10 16.9396 2.78462  -1
 -10  -2  10 16.9396 2.78462   2
  -9  -2  10 42.8368 3.67902  -1
  -9  -2  10 42.8368 3.67902   2
  -8  -2  10 -0.5495 3.22091  -1
  -8  -2  10 -0.5495 3.22091   2
  -7  -2  10 -0.3721 2.43536  -1
  -7  -2  10 -0.3721 2.43536   2
  -6  -2  10 29.4895 2.31481  -1
  -6  -2  10 29.4895 2.31481   2
  -5  -2  10 67.4363 4.86523  -1
  -5  -2  10 67.4363 4.86523   2
  -4  -2  10 53.1545 4.11270  -1
  -4  -2  10 53.1545 4.11270   2
  -3  -2  10 39.1050 4.15574  -1
  -3  -2  10 39.1050 4.15574   2
  -2  -2  10 13.6620 1.66627   2
  -1  -2  10 64.7108 6.57091  -1
  -1  -1  10 64.7108 6.57091   2
   1  -2  10 49.1780 4.12228  -1
   1  -1  10 49.1780 4.12228   2
   3  -2  10 10.7010 4.33624  -1
   3  -1  10 10.7010 4.33624   2
   4  -2  10 6.58154 5.67476  -1
   4  -1  10 6.58154 5.67476   2
   6  -2  10 10.5563 3.33928   2
   9  -2  10 -1.0049 14.4756  -1
   9   0  10 -1.0049 14.4756   2
 -13  -1  10 -0.5262 1.31120   2
 -12  -1  10 2.49543 0.62306   2
 -11  -1  10 3.50475 2.68750  -1
 -11  -1  10 3.50475 2.68750   2
 -10  -1  10 42.1139 3.33058  -1
 -10  -1  10 42.1139 3.33058   2
  -9  -1  10 -4.3251 2.96193  -1
  -9  -1  10 -4.3251 2.96193   2
  -8  -1  10 13.7200 1.83192  -1
  -8  -1  10 13.7200 1.83192   2
  -7  -1  10 3.01780 1.55111  -1
  -7  -1  10 3.01780 1.55111   2
  -6  -1  10 88.6587 1.98910  -1
  -6  -1  10 88.6587 1.98910   2
  -5  -1  10 30.0086 4.30606  -1
  -5  -1  10 30.0086 4.30606   2
  -4  -1  10 17.9806 3.69540  -1
  -4  -1  10 17.9806 3.69540   2
  -3  -1  10 53.8841 4.30298  -1
  -3  -1  10 53.8841 4.30298   2
  -2  -1  10 127.326 2.88121   2
  -1  -1  10 65.9224 4.43729  -1
  -1   0  10 65.9224 4.43729   2
   0  -1  10 8.41185 3.22415  -1
   0   0  10 8.41185 3.22415   2
   1  -1  10 42.8958 3.87312  -1
   1   0  10 42.8958 3.87312   2
   2  -1  10 24.3806 3.91435  -1
   2   0  10 24.3806 3.91435   2
   3  -1  10 60.2277 6.41934  -1
   3   0  10 60.2277 6.41934   2
   4  -1  10 23.6420 6.03260  -1
   4   0  10 23.6420 6.03260   2
   5  -1  10 16.8175 3.44358   2
 -13   0  10 0.66597 2.11274   2
 -12   0  10 0.80714 0.61479   2
 -11   0  10 7.54055 0.70152   2
 -10   0  10 1.28354 2.60321  -1
 -10   0  10 1.28354 2.60321   2
  -9   0  10 6.80333 2.29150  -1
  -9   0  10 6.80333 2.29150   2
  -8   0  10 37.8119 1.62563  -1
  -8   0  10 37.8119 1.62563   2
  -7   0  10 5.75844 1.50351  -1
  -7   0  10 5.75844 1.50351   2
  -6   0  10 20.2797 1.51395  -1
  -6   0  10 20.2797 1.51395   2
  -5   0  10 -3.6404 1.80355  -1
  -5   0  10 -3.6404 1.80355   2
  -4   0  10 21.3794 3.59068  -1
  -4   0  10 21.3794 3.59068   2
  -3   0  10 63.5565 4.45840  -1
  -3   0  10 63.5565 4.45840   2
  -2   0  10 57.0246 2.22001   2
  -1   0  10 32.3903 3.90422  -1
  -1   1  10 32.3903 3.90422   2
   0   0  10 1.26153 3.29053  -1
   0   1  10 1.26153 3.29053   2
   1   0  10 56.0354 4.52609  -1
   1   1  10 56.0354 4.52609   2
   2   0  10 25.4943 4.36583  -1
   2   1  10 25.4943 4.36583   2
   3   0  10 119.351 8.12866  -1
   3   1  10 119.351 8.12866   2
   5   0  10 15.0551 3.38282   2
   7   0  10 12.5449 3.84563   2
   8   0  10 7.85027 3.77487   2
 -13   1  10 1.79256 2.03307  -1
 -13   1  10 1.79256 2.03307   2
 -12   1  10 7.12597 2.30256  -1
 -12   1  10 7.12597 2.30256   2
 -11   1  10 0.53966 2.39583  -1
 -11   1  10 0.53966 2.39583   2
 -10   1  10 -0.1930 2.52676  -1
 -10   1  10 -0.1930 2.52676   2
  -9   1  10 7.15667 2.19191  -1
  -9   1  10 7.15667 2.19191   2
  -8   1  10 4.74335 1.42138  -1
  -8   1  10 4.74335 1.42138   2
  -7   1  10 1.23802 0.97398  -1
  -7   1  10 1.23802 0.97398   2
  -6   1  10 -2.7558 1.32832  -1
  -6   1  10 -2.7558 1.32832   2
  -5   1  10 7.76948 2.37659  -1
  -5   1  10 7.76948 2.37659   2
  -4   1  10 74.2822 4.29421  -1
  -4   1  10 74.2822 4.29421   2
  -3   1  10 56.5768 2.14771   2
  -2   1  10 1.94897 0.98869   2
  -2   1  10 -4.2486 4.28013  -1
  -2   2  10 -4.2486 4.28013   2
   1   1  10 89.5442 5.48199  -1
   1   2  10 89.5442 5.48199   2
   2   1  10 98.4494 7.73197  -1
   2   2  10 98.4494 7.73197   2
   5   1  10 6.71505 3.11383   2
   6   1  10 9.72635 3.55321   2
   7   1  10 0.78754 3.13139   2
   8   1  10 0.11061 3.37556   2
   9   1  10 -3.5296 7.63984   2
 -13   2  10 -2.5085 2.58476  -1
 -13   1  10 -2.5085 2.58476   2
 -13   2  10 1.68154 2.24397  -1
 -13   2  10 1.68154 2.24397   2
 -12   2  10 3.43516 2.46438  -1
 -12   2  10 3.43516 2.46438   2
 -12   2  10 7.15271 2.99830  -1
 -12   1  10 7.15271 2.99830   2
 -11   2  10 -2.8678 2.48502  -1
 -11   2  10 -2.8678 2.48502   2
 -10   2  10 3.67114 2.59813  -1
 -10   2  10 3.67114 2.59813   2
  -9   2  10 25.3945 2.32457  -1
  -9   2  10 25.3945 2.32457   2
  -8   2  10 0.98588 1.29051  -1
  -8   2  10 0.98588 1.29051   2
  -7   2  10 4.25913 0.81331  -1
  -7   2  10 4.25913 0.81331   2
  -6   2  10 4.02533 1.18212  -1
  -6   2  10 4.02533 1.18212   2
  -5   2  10 25.7792 3.50501  -1
  -5   2  10 25.7792 3.50501   2
  -4   2  10 0.48285 3.53854  -1
  -4   2  10 0.48285 3.53854   2
  -3   2  10 0.46071 0.62957   2
  -1   2  10 5.45873 2.10660   2
   3   2  10 9.98020 2.90577   2
   4   2  10 -0.0940 2.63892   2
   5   2  10 1.32038 2.77181   2
   6   2  10 -0.6728 3.08333   2
   7   2  10 0.15942 3.28475   2
   8   2  10 2.65122 3.63017   2
   9   2  10 0.77140 8.02248   2
 -14   3  10 7.86183 2.50630  -1
 -14   3  10 7.86183 2.50630   2
 -14   3  10 1.48691 1.91073  -1
 -14   2  10 1.48691 1.91073   2
 -13   3  10 4.71869 1.55170  -1
 -13   2  10 4.71869 1.55170   2
 -13   3  10 0.69616 2.45643  -1
 -13   3  10 0.69616 2.45643   2
 -12   3  10 -0.6892 2.99039  -1
 -12   2  10 -0.6892 2.99039   2
 -12   3  10 -0.8282 2.60041  -1
 -12   3  10 -0.8282 2.60041   2
 -11   3  10 4.47205 1.96445  -1
 -11   3  10 4.47205 1.96445   2
 -10   3  10 2.61607 1.69853  -1
 -10   3  10 2.61607 1.69853   2
  -9   3  10 1.61450 1.37889  -1
  -9   3  10 1.61450 1.37889   2
  -8   3  10 0.12500 1.10049  -1
  -8   3  10 0.12500 1.10049   2
  -7   3  10 6.96843 1.03810  -1
  -7   3  10 6.96843 1.03810   2
  -6   3  10 14.7566 1.25971  -1
  -6   3  10 14.7566 1.25971   2
  -5   3  10 4.77157 1.88161  -1
  -5   3  10 4.77157 1.88161   2
  -4   3  10 0.20317 0.79565   2
  -3   3  10 44.4061 1.84238   2
  -1   3  10 1.95329 2.04938   2
   0   3  10 11.6684 2.50419   2
   1   3  10 4.08490 2.34397   2
   2   3  10 0.19071 2.34556   2
   3   3  10 -0.4212 2.44640   2
   4   3  10 -0.3426 2.76792   2
   5   3  10 -0.0983 3.05970   2
   6   3  10 4.91550 3.41790   2
   7   3  10 5.33947 3.71748   2
   8   3  10 2.90255 3.94107   2
   9   3  10 -0.1829 8.34327   2
 -15   4  10 11.6502 3.18990  -1
 -15   4  10 11.6502 3.18990   2
 -15   4  10 -1.8575 2.76658  -1
 -15   3  10 -1.8575 2.76658   2
 -14   4  10 6.42455 1.58005  -1
 -14   3  10 6.42455 1.58005   2
 -14   4  10 17.1651 3.13291  -1
 -14   4  10 17.1651 3.13291   2
 -13   4  10 6.50707 1.88395  -1
 -13   3  10 6.50707 1.88395   2
 -13   4  10 8.05633 2.90243  -1
 -13   4  10 8.05633 2.90243   2
 -12   4  10 5.44816 2.15934  -1
 -12   4  10 5.44816 2.15934   2
 -12   4  10 -3.4552 4.65609  -1
 -12   3  10 -3.4552 4.65609   2
 -11   4  10 10.2767 1.94547  -1
 -11   4  10 10.2767 1.94547   2
 -10   4  10 7.07659 1.87153  -1
 -10   4  10 7.07659 1.87153   2
  -9   4  10 42.4288 1.59444  -1
  -9   4  10 42.4288 1.59444   2
  -8   4  10 1.04215 1.27317  -1
  -8   4  10 1.04215 1.27317   2
  -7   4  10 10.4460 1.16058  -1
  -7   4  10 10.4460 1.16058   2
  -6   4  10 3.43797 1.28563  -1
  -6   4  10 3.43797 1.28563   2
  -5   4  10 9.72851 2.59977  -1
  -5   4  10 9.72851 2.59977   2
  -4   4  10 3.88751 4.14403  -1
  -4   4  10 3.88751 4.14403   2
  -3   4  10 1.69006 0.67292   2
  -2   4  10 20.3782 1.56608   2
  -1   4  10 22.7360 3.99937   2
   0   4  10 0.80825 2.24628   2
   1   4  10 10.1318 2.75140   2
   2   4  10 5.18089 2.69623   2
   3   4  10 3.11949 2.86416   2
   4   4  10 0.88258 2.97885   2
   5   4  10 2.11260 3.34114   2
   6   4  10 3.11928 3.58503   2
   7   4  10 1.79429 3.89112   2
   8   4  10 8.05054 4.29588   2
 -16   5  10 6.37305 4.08822  -1
 -16   5  10 6.37305 4.08822   2
 -15   5  10 18.4572 3.85939  -1
 -15   5  10 18.4572 3.85939   2
 -15   5  10 6.43700 3.05959  -1
 -15   4  10 6.43700 3.05959   2
 -14   5  10 16.5185 2.52357  -1
 -14   5  10 16.5185 2.52357   2
 -14   5  10 11.9956 2.04263  -1
 -14   4  10 11.9956 2.04263   2
 -13   5  10 27.5110 2.49882  -1
 -13   5  10 27.5110 2.49882   2
 -13   5  10 3.01188 4.62808  -1
 -13   4  10 3.01188 4.62808   2
 -12   5  10 90.8981 3.08819  -1
 -12   5  10 90.8981 3.08819   2
 -11   5  10 22.2522 2.14219  -1
 -11   5  10 22.2522 2.14219   2
 -10   5  10 39.0350 1.78163  -1
 -10   5  10 39.0350 1.78163   2
  -9   5  10 13.4297 1.60989  -1
  -9   5  10 13.4297 1.60989   2
  -8   5  10 -0.9470 1.49758  -1
  -8   5  10 -0.9470 1.49758   2
  -7   5  10 5.85588 1.71116  -1
  -7   5  10 5.85588 1.71116   2
  -6   5  10 2.14440 2.14664  -1
  -6   5  10 2.14440 2.14664   2
  -5   5  10 22.0521 4.25785  -1
  -5   5  10 22.0521 4.25785   2
  -4   5  10 1.60047 0.77551   2
  -3   5  10 1.03550 1.21279   2
  -2   5  10 1.37620 1.22785   2
  -1   5  10 10.6044 2.81720   2
   0   5  10 2.84036 2.59949   2
   1   5  10 7.12130 2.98173   2
   2   5  10 3.30677 2.89666   2
   3   5  10 0.96459 3.16215   2
   4   5  10 1.80508 3.35289   2
   5   5  10 -0.2103 3.53286   2
   6   5  10 1.23296 3.70395   2
   7   5  10 1.42752 3.99484   2
   8   5  10 -1.9239 8.29627   2
 -16   6  10 1.00174 3.15280  -1
 -16   5  10 1.00174 3.15280   2
 -16   6  10 17.5751 5.02926  -1
 -16   6  10 17.5751 5.02926   2
 -15   6  10 16.1214 3.19627  -1
 -15   6  10 16.1214 3.19627   2
 -15   6  10 4.63741 2.31673  -1
 -15   5  10 4.63741 2.31673   2
 -14   6  10 9.84611 2.71062  -1
 -14   6  10 9.84611 2.71062   2
 -14   6  10 13.4571 2.33472  -1
 -14   5  10 13.4571 2.33472   2
 -13   6  10 15.1960 2.71280  -1
 -13   6  10 15.1960 2.71280   2
 -13   6  10 33.2176 4.97138  -1
 -13   5  10 33.2176 4.97138   2
 -12   6  10 15.9623 2.61614  -1
 -12   6  10 15.9623 2.61614   2
 -12   6  10 89.3534 5.93302  -1
 -12   5  10 89.3534 5.93302   2
 -11   6  10 -0.9933 2.40439  -1
 -11   6  10 -0.9933 2.40439   2
 -10   6  10 11.8121 2.19377  -1
 -10   6  10 11.8121 2.19377   2
  -9   6  10 -3.6046 2.51461  -1
  -9   6  10 -3.6046 2.51461   2
  -8   6  10 16.1071 2.70049  -1
  -8   6  10 16.1071 2.70049   2
  -7   6  10 13.3600 2.86475  -1
  -7   6  10 13.3600 2.86475   2
  -6   6  10 2.51363 3.97552  -1
  -6   6  10 2.51363 3.97552   2
  -5   6  10 1.22250 4.30949  -1
  -5   6  10 1.22250 4.30949   2
  -4   6  10 2.47744 1.39096   2
  -3   6  10 5.54150 1.43320   2
  -2   6  10 -0.6510 1.35070   2
  -1   6  10 1.71312 2.77857   2
   0   6  10 3.36072 2.95983   2
   1   6  10 -2.1396 2.96164   2
   2   6  10 0.92674 3.23275   2
   3   6  10 3.05910 3.50331   2
   4   6  10 1.96224 3.70546   2
   5   6  10 -1.9556 3.62479   2
   6   6  10 0.77612 4.01369   2
   7   6  10 0.80639 4.12785   2
 -16   7  10 20.7222 5.41742  -1
 -16   7  10 20.7222 5.41742   2
 -16   7  10 8.02024 3.85934  -1
 -16   6  10 8.02024 3.85934   2
 -15   7  10 7.22509 2.69143  -1
 -15   6  10 7.22509 2.69143   2
 -15   7  10 11.7626 4.56172  -1
 -15   7  10 11.7626 4.56172   2
 -14   7  10 16.9963 3.05391  -1
 -14   7  10 16.9963 3.05391   2
 -13   7  10 34.6122 4.27767  -1
 -13   7  10 34.6122 4.27767   2
 -12   7  10 51.2669 4.27055  -1
 -12   7  10 51.2669 4.27055   2
 -11   7  10 65.0937 4.48038  -1
 -11   7  10 65.0937 4.48038   2
 -10   7  10 88.2111 4.92696  -1
 -10   7  10 88.2111 4.92696   2
  -9   7  10 6.99925 3.90538  -1
  -9   7  10 6.99925 3.90538   2
  -8   7  10 13.6115 4.18233  -1
  -8   7  10 13.6115 4.18233   2
  -7   7  10 28.4481 4.50137  -1
  -7   7  10 28.4481 4.50137   2
  -6   7  10 13.0163 4.40594  -1
  -6   7  10 13.0163 4.40594   2
  -5   7  10 4.24292 1.50314   2
  -4   7  10 -0.4961 1.33840   2
  -3   7  10 -0.3579 1.40681   2
  -2   7  10 4.63618 1.64024   2
  -1   7  10 4.43739 3.24294   2
   0   7  10 -3.1634 3.15736   2
   1   7  10 -3.1996 3.41747   2
   2   7  10 1.82364 3.74309   2
   3   7  10 2.19507 3.81923   2
   4   7  10 -0.3725 3.88819   2
   5   7  10 -2.6834 3.89241   2
   6   7  10 3.08798 4.22069   2
 -16   8  10 5.27302 3.13535   2
 -16   8  10 11.2297 4.44887  -1
 -16   7  10 11.2297 4.44887   2
 -15   8  10 6.32037 5.99176  -1
 -15   8  10 6.32037 5.99176   2
 -14   8  10 26.5010 5.54598  -1
 -14   8  10 26.5010 5.54598   2
 -13   8  10 44.8932 4.81971  -1
 -13   8  10 44.8932 4.81971   2
 -12   8  10 18.9613 4.35829  -1
 -12   8  10 18.9613 4.35829   2
 -11   8  10 52.6460 4.66253  -1
 -11   8  10 52.6460 4.66253   2
 -10   8  10 23.6029 4.47948  -1
 -10   8  10 23.6029 4.47948   2
  -9   8  10 20.7598 4.49438  -1
  -9   8  10 20.7598 4.49438   2
  -9   8  10 16.9601 4.48458  -1
 -10   8  10 16.9601 4.48458   2
  -8   8  10 14.1886 4.40286  -1
  -9   8  10 14.1886 4.40286   2
  -8   8  10 72.0527 5.17960  -1
  -8   8  10 72.0527 5.17960   2
  -7   8  10 87.3721 5.74521  -1
  -7   8  10 87.3721 5.74521   2
  -6   8  10 39.2106 2.54544   2
  -5   8  10 12.7094 1.80524   2
  -4   8  10 0.40001 1.49972   2
  -3   8  10 -1.0558 1.58623   2
  -2   8  10 0.68415 3.17795   2
  -1   8  10 4.31556 3.68903   2
   0   8  10 -1.6024 3.58094   2
   1   8  10 3.56586 4.02231   2
   2   8  10 0.25935 4.09295   2
   3   8  10 0.24733 4.25642   2
   4   8  10 -1.5922 4.33028   2
   5   8  10 -0.5329 4.44468   2
   6   8  10 -0.5554 4.55615   2
   6   8  10 8.81753 17.4508  -1
   5  10   9 8.81753 17.4508   2
 -15   9  10 34.1371 7.05666  -1
 -15   9  10 34.1371 7.05666   2
 -14   9  10 51.7667 6.23585  -1
 -14   9  10 51.7667 6.23585   2
 -13   9  10 37.4603 5.77078  -1
 -13   9  10 37.4603 5.77078   2
 -12   9  10 24.2924 4.86527  -1
 -12   9  10 24.2924 4.86527   2
 -11   9  10 42.5612 4.98233  -1
 -11   9  10 42.5612 4.98233   2
 -10   9  10 23.4430 4.90651  -1
 -10   9  10 23.4430 4.90651   2
 -10   9  10 33.5445 4.20131  -1
 -11   9  10 33.5445 4.20131   2
  -9   9  10 19.7589 4.01038  -1
 -10   9  10 19.7589 4.01038   2
  -9   9  10 36.4197 5.05892  -1
  -9   9  10 36.4197 5.05892   2
  -8   9  10 38.3290 8.68048  -1
  -9   9  10 38.3290 8.68048   2
  -7   9  10 56.7033 9.37253  -1
  -8   9  10 56.7033 9.37253   2
  -7   9  10 18.9738 2.11036   2
  -6   9  10 10.2185 1.90269   2
  -5   9  10 16.1173 2.01443   2
  -4   9  10 7.00367 1.86832   2
  -3   9  10 1.64254 1.87832   2
  -2   9  10 4.43532 3.81724   2
  -1   9  10 3.55708 4.02578   2
   0   9  10 9.02473 4.47206   2
   1   9  10 1.32556 4.33601   2
   2   9  10 2.77801 4.53193   2
   3   9  10 1.67540 4.73518   2
   4   9  10 -1.9691 4.70123   2
   5   9  10 13.0130 10.5560  -1
   4  11   9 13.0130 10.5560   2
   5   9  10 2.26487 4.87730   2
 -15  10  10 22.0164 7.62571  -1
 -15  10  10 22.0164 7.62571   2
 -14  10  10 14.0640 6.98776  -1
 -14  10  10 14.0640 6.98776   2
 -13  10  10 10.1787 5.99958  -1
 -13  10  10 10.1787 5.99958   2
 -12  10  10 9.91183 5.34455  -1
 -12  10  10 9.91183 5.34455   2
 -11  10  10 36.3944 5.22808  -1
 -11  10  10 36.3944 5.22808   2
 -10  10  10 18.2987 4.97439  -1
 -10  10  10 18.2987 4.97439   2
 -10  10  10 33.0123 9.92501  -1
 -11  10  10 33.0123 9.92501   2
  -9  10  10 19.2106 5.39356  -1
 -10  10  10 19.2106 5.39356   2
  -8  10  10 43.5888 6.01656  -1
  -9  10  10 43.5888 6.01656   2
  -7  10  10 27.0413 2.41829   2
  -7  10  10 51.1937 10.6550  -1
  -8  10  10 51.1937 10.6550   2
  -6  10  10 38.3736 2.81737   2
  -5  10  10 32.1957 2.54000   2
  -4  10  10 5.61398 2.03813   2
  -3  10  10 9.71234 2.21967   2
  -2  10  10 2.38924 4.18101   2
  -1  10  10 -0.1513 4.35783   2
   0  10  10 6.51958 4.71956   2
   1  10  10 1.99384 4.89579   2
   2  10  10 1.08768 4.98841   2
   3  10  10 -1.9673 5.08543   2
   4  10  10 14.5370 19.9229  -1
   3  12   9 14.5370 19.9229   2
 -14  11  10 13.4570 7.78998  -1
 -14  11  10 13.4570 7.78998   2
 -13  11  10 20.5278 6.77998  -1
 -13  11  10 20.5278 6.77998   2
 -12  11  10 14.0939 4.56601   2
 -10  11  10 27.2938 5.88778  -1
 -11  11  10 27.2938 5.88778   2
  -9  11  10 22.4990 6.09605  -1
 -10  11  10 22.4990 6.09605   2
  -8  11  10 20.5687 2.60750   2
  -8  11  10 34.0190 5.44782  -1
  -9  11  10 34.0190 5.44782   2
  -7  11  10 31.2945 2.77691   2
  -6  11  10 38.5627 2.89215   2
  -5  11  10 11.4948 2.36132   2
  -4  11  10 3.75395 2.26526   2
  -3  11  10 15.3048 2.60695   2
  -2  11  10 5.00012 4.59767   2
  -1  11  10 -0.0214 4.69784   2
   0  11  10 0.40168 4.96864   2
   0  11  10 18.3218 12.6023  -1
  -1  12   9 18.3218 12.6023   2
   1  11  10 1.97066 5.36826   2
   2  11  10 3.12599 5.37307   2
 -13  12  10 3.00503 4.90316   2
 -12  12  10 23.9163 4.94228   2
 -10  12  10 15.7180 6.93825  -1
 -11  12  10 15.7180 6.93825   2
  -9  12  10 8.61004 6.50330  -1
 -10  12  10 8.61004 6.50330   2
  -8  12  10 11.0459 7.49433  -1
  -9  12  10 11.0459 7.49433   2
  -8  12  10 8.92642 2.66368   2
  -7  12  10 20.0480 2.90746   2
  -6  12  10 16.6474 2.84923   2
  -5  12  10 4.02393 2.56145   2
  -4  12  10 21.8395 3.00103   2
  -2  12  10 12.4022 9.06703  -1
  -3  13   9 12.4022 9.06703   2
  -1  12  10 12.2837 5.49610   2
  -1  12  10 16.3672 9.01973  -1
  -2  13   9 16.3672 9.01973   2
   0  12  10 11.9610 5.71459   2
   0  12  10 28.7889 9.64309  -1
  -1  13   9 28.7889 9.64309   2
   1  12  10 3.08458 5.68927   2
   1  12  10 23.5587 13.4152  -1
   0  13   9 23.5587 13.4152   2
 -12  13  10 19.0358 5.03525   2
 -10  13  10 18.7001 3.91248   2
 -10  13  10 17.7790 13.0176  -1
 -11  13  10 17.7790 13.0176   2
  -9  13  10 27.3846 3.39259   2
  -8  13  10 31.6854 3.47015   2
  -7  13  10 25.0387 3.30560   2
  -6  13  10 10.5677 3.04808   2
  -5  13  10 10.3319 3.07148   2
  -4  13  10 19.9234 3.30869   2
  -3  13  10 11.0689 10.1941  -1
  -4  14   9 11.0689 10.1941   2
  -2  13  10 -3.0401 9.38084  -1
  -3  14   9 -3.0401 9.38084   2
  -1  13  10 9.38092 8.85124  -1
  -2  14   9 9.38092 8.85124   2
   0  13  10 11.3305 9.99085  -1
  -1  14   9 11.3305 9.99085   2
   0  13  10 7.02621 5.95656   2
 -10  14  10 21.6242 4.34930   2
 -10  14  10 12.2109 14.7126  -1
 -11  14   9 12.2109 14.7126   2
  -9  14  10 23.2315 3.62947   2
  -9  14  10 21.2458 14.5563  -1
 -10  14   9 21.2458 14.5563   2
  -8  14  10 6.85359 15.1098  -1
  -9  14   9 6.85359 15.1098   2
  -8  14  10 24.7471 3.64763   2
  -7  14  10 10.5825 3.42691   2
  -6  14  10 6.20748 3.31655   2
  -3  14  10 0.73232 7.18227  -1
  -4  15   9 0.73232 7.18227   2
  -2  14  10 -2.9864 10.1514  -1
  -3  15   9 -2.9864 10.1514   2
  -2  14  10 11.8487 6.06660   2
  -1 -15  11 5.74186 5.56731   2
   0 -15  11 4.67546 5.60492   2
  -5 -14  11 3.33985 12.8997  -1
  -4 -14  12 3.33985 12.8997   2
  -4 -14  11 12.4344 14.0662  -1
  -3 -14  12 12.4344 14.0662   2
  -2 -14  11 -1.5679 4.81409   2
  -1 -14  11 2.51287 5.03146   2
   0 -14  11 1.84923 4.96943   2
   1 -14  11 -0.7979 5.04301   2
   2 -14  11 -1.4615 5.02563   2
   3 -14  11 6.00057 4.45981   2
  -7 -13  11 -0.2417 12.9694  -1
  -6 -13  12 -0.2417 12.9694   2
  -6 -13  11 3.14067 13.6975  -1
  -5 -13  12 3.14067 13.6975   2
  -5 -13  11 3.15122 13.2437  -1
  -4 -13  12 3.15122 13.2437   2
  -2 -13  11 -2.6810 4.40898   2
  -1 -13  11 0.19194 4.49279   2
   0 -13  11 -2.5977 4.49313   2
   1 -13  11 0.30910 4.44307   2
   2 -13  11 -2.2644 4.54243   2
   3 -13  11 0.79320 4.76491   2
   4 -13  11 -1.2197 4.95187   2
   5 -13  11 -0.5666 5.16381   2
  -7 -12  11 -1.9425 12.6912  -1
  -6 -12  12 -1.9425 12.6912   2
  -6 -12  11 -7.9282 12.4259  -1
  -5 -12  12 -7.9282 12.4259   2
  -3 -12  11 0.70343 3.87397   2
  -2 -12  11 -2.6835 3.82983   2
  -1 -12  11 0.79631 3.25399   2
   0 -12  11 -0.5198 3.98710   2
   1 -12  11 -0.1404 4.20077   2
   2 -12  11 -1.8618 4.35966   2
   3 -12  11 -0.0257 4.64941   2
   3 -12  11 -0.7528 14.2721  -1
   4 -11  11 -0.7528 14.2721   2
   4 -12  11 0.87627 9.25985  -1
   5 -11  11 0.87627 9.25985   2
   4 -12  11 -0.7922 4.92274   2
   5 -12  11 2.50806 5.14086   2
   5 -12  11 0.90780 9.85752  -1
   6 -11  11 0.90780 9.85752   2
   6 -12  11 0.65871 5.28665   2
  -8 -11  11 -2.9854 11.8177  -1
  -7 -11  12 -2.9854 11.8177   2
  -6 -11  11 1.95223 5.42565   2
  -4 -11  11 0.05146 3.20418   2
  -3 -11  11 -0.0618 3.32602   2
  -2 -11  11 -2.3773 3.31657   2
  -1 -11  11 -0.9970 3.64856   2
   0 -11  11 0.18716 3.85209   2
   1 -11  11 -9.0481 12.1355  -1
   2 -10  11 -9.0481 12.1355   2
   1 -11  11 -1.8012 4.01714   2
   2 -11  11 -0.1931 4.07007   2
   2 -11  11 -3.8265 8.00764  -1
   3 -10  11 -3.8265 8.00764   2
   3 -11  11 1.16764 4.35417   2
   3 -11  11 -0.8915 8.35846  -1
   4 -10  11 -0.8915 8.35846   2
   4 -11  11 0.12332 8.87666  -1
   5 -10  11 0.12332 8.87666   2
   5 -11  11 5.90131 9.56521  -1
   6 -10  11 5.90131 9.56521   2
   7 -11  11 -1.2396 5.08019   2
   7 -11  11 -2.1281 10.4809  -1
   8  -9  11 -2.1281 10.4809   2
  -9 -10  11 -3.8158 2.20312   2
  -8 -10  11 5.61866 2.08863   2
  -7 -10  11 2.82305 4.79915   2
  -6 -10  11 6.18006 4.84983   2
  -5 -10  11 4.46152 2.98513   2
  -4 -10  11 2.95695 2.25303   2
  -3 -10  11 1.79256 2.82807   2
  -2 -10  11 -0.2991 3.19600   2
  -1 -10  11 1.42949 3.42926   2
   0 -10  11 -1.8054 3.44292   2
   0 -10  11 -4.5867 10.9190  -1
   1  -9  11 -4.5867 10.9190   2
   1 -10  11 -3.2164 7.44665  -1
   2  -9  11 -3.2164 7.44665   2
   1 -10  11 -0.4489 3.61065   2
   2 -10  11 -2.8024 7.54612  -1
   3  -9  11 -2.8024 7.54612   2
   3 -10  11 -4.1752 8.05808  -1
   4  -9  11 -4.1752 8.05808   2
   4 -10  11 1.08132 8.40290  -1
   5  -9  11 1.08132 8.40290   2
   5 -10  11 7.03518 15.1166  -1
   6  -9  11 7.03518 15.1166   2
   7 -10  11 0.05898 4.78591   2
 -10  -9  11 0.26907 1.63529   2
  -9  -9  11 0.87562 1.48223   2
  -8  -9  11 12.3246 2.14338   2
  -7  -9  11 10.9216 2.14790   2
  -6  -9  11 14.1452 2.93110   2
  -5  -9  11 5.90384 2.10490   2
  -5  -9  11 9.56467 6.98832  -1
  -4  -9  11 9.56467 6.98832   2
  -4  -9  11 29.9735 8.03329  -1
  -3  -9  11 29.9735 8.03329   2
  -2  -9  11 1.00793 2.82947   2
  -1  -9  11 2.70109 3.08724   2
   0  -9  11 -0.7181 6.98023  -1
   1  -8  11 -0.7181 6.98023   2
   0  -9  11 -0.5992 3.14821   2
   1  -9  11 1.62527 6.76018  -1
   2  -8  11 1.62527 6.76018   2
   2  -9  11 -1.1085 6.90466  -1
   3  -8  11 -1.1085 6.90466   2
   3  -9  11 -3.5854 7.50982  -1
   4  -8  11 -3.5854 7.50982   2
   4  -9  11 -1.8198 7.95590  -1
   5  -8  11 -1.8198 7.95590   2
   5  -9  11 -5.3860 8.63246  -1
   6  -8  11 -5.3860 8.63246   2
   7  -9  11 -0.5276 4.63033   2
 -13  -8  11 2.51798 3.19239   2
 -12  -8  11 -7.3961 6.88145  -1
 -11  -9  12 -7.3961 6.88145   2
 -12  -8  11 8.00596 2.01933   2
 -10  -8  11 6.15954 1.64225   2
  -9  -8  11 9.59908 1.62352   2
  -8  -8  11 6.30743 1.41115   2
  -8  -8  11 40.7555 5.28951  -1
  -7  -8  11 40.7555 5.28951   2
  -7  -8  11 32.1329 3.96066  -1
  -6  -8  11 32.1329 3.96066   2
  -6  -8  11 28.1373 6.34886  -1
  -5  -8  11 28.1373 6.34886   2
  -5  -8  11 25.1449 5.30086  -1
  -4  -8  11 25.1449 5.30086   2
  -4  -8  11 29.3916 5.48922  -1
  -3  -8  11 29.3916 5.48922   2
  -2  -8  11 4.30165 2.64429   2
  -1  -8  11 -0.5816 2.66032   2
   0  -8  11 5.49276 6.13158  -1
   1  -7  11 5.49276 6.13158   2
   0  -8  11 4.67297 3.00031   2
   1  -8  11 11.3687 6.27398  -1
   2  -7  11 11.3687 6.27398   2
   2  -8  11 -4.3386 6.63603  -1
   3  -7  11 -4.3386 6.63603   2
   3  -8  11 -6.8490 7.16081  -1
   4  -7  11 -6.8490 7.16081   2
   4  -8  11 -9.8680 8.12724  -1
   5  -7  11 -9.8680 8.12724   2
   7  -8  11 -1.1840 4.37202   2
   8  -8  11 -3.9308 4.49614   2
 -13  -7  11 6.64963 1.93272   2
 -13  -7  11 -6.6559 7.13306  -1
 -12  -8  12 -6.6559 7.13306   2
 -12  -7  11 12.8810 1.86834   2
 -11  -7  11 13.6655 1.75441   2
 -10  -7  11 10.6853 1.60148   2
  -9  -7  11 1.41759 1.33994   2
  -9  -7  11 -2.9857 4.80540  -1
  -8  -7  11 -2.9857 4.80540   2
  -8  -7  11 61.8182 5.70824  -1
  -7  -7  11 61.8182 5.70824   2
  -7  -7  11 55.2020 3.16577  -1
  -6  -7  11 55.2020 3.16577   2
  -6  -7  11 63.9758 3.84781  -1
  -5  -7  11 63.9758 3.84781   2
  -5  -7  11 13.0465 4.10987  -1
  -4  -7  11 13.0465 4.10987   2
  -4  -7  11 30.4914 5.10461  -1
  -3  -7  11 30.4914 5.10461   2
  -2  -7  11 31.1532 4.72198   2
  -1  -7  11 3.75560 2.57385   2
   0  -7  11 13.4431 2.99486   2
   0  -7  11 32.0527 8.81480  -1
   1  -6  11 32.0527 8.81480   2
   3  -7  11 13.8683 9.05143  -1
   4  -6  11 13.8683 9.05143   2
   6  -7  11 -1.1396 3.83076   2
   7  -7  11 -3.5319 3.98471   2
   7  -7  11 -0.0124 14.9148  -1
   7  -5  11 -0.0124 14.9148   2
   8  -7  11 -3.7279 4.25640   2
   8  -7  11 -6.6905 8.92279  -1
   8  -5  11 -6.6905 8.92279   2
   9  -7  11 0.48304 5.22658   2
   9  -7  11 -0.2865 9.24721  -1
   9  -5  11 -0.2865 9.24721   2
 -11  -6  11 6.41329 0.99212   2
 -10  -6  11 7.49452 1.16992   2
  -9  -6  11 16.4483 4.98830  -1
  -8  -6  11 16.4483 4.98830   2
  -9  -6  11 1.28815 1.26753   2
  -8  -6  11 -0.3101 3.28621  -1
  -7  -6  11 -0.3101 3.28621   2
  -7  -6  11 13.6442 2.52416  -1
  -6  -6  11 13.6442 2.52416   2
  -6  -6  11 19.8153 2.58942  -1
  -5  -6  11 19.8153 2.58942   2
  -5  -6  11 20.8902 2.62937  -1
  -4  -6  11 20.8902 2.62937   2
  -4  -6  11 10.3013 6.16584  -1
  -3  -6  11 10.3013 6.16584   2
  -1  -6  11 24.4505 4.35981   2
   2  -6  11 10.5172 3.20731   2
   3  -6  11 6.56026 3.35054   2
   5  -6  11 3.57063 3.62047   2
   6  -6  11 3.64519 3.85287   2
   7  -6  11 -2.2247 3.89016   2
   7  -6  11 0.66534 7.93231  -1
   7  -4  11 0.66534 7.93231   2
   8  -6  11 -0.6792 7.93235  -1
   8  -4  11 -0.6792 7.93235   2
   8  -6  11 -0.3186 4.12222   2
   9  -6  11 0.06985 4.32775   2
   9  -6  11 -3.7511 8.39906  -1
   9  -4  11 -3.7511 8.39906   2
 -14  -5  11 9.62049 3.91238  -1
 -13  -6  11 9.62049 3.91238   2
 -13  -5  11 7.97748 5.19560  -1
 -12  -6  11 7.97748 5.19560   2
 -11  -5  11 30.3997 1.39160   2
 -10  -5  11 36.6175 1.62591   2
  -9  -5  11 15.2334 1.08717   2
  -9  -5  11 58.0199 4.63217  -1
  -8  -5  11 58.0199 4.63217   2
  -8  -5  11 -1.0263 2.95025  -1
  -7  -5  11 -1.0263 2.95025   2
  -7  -5  11 39.0231 2.79979  -1
  -6  -5  11 39.0231 2.79979   2
  -6  -5  11 69.1986 3.15118  -1
  -5  -5  11 69.1986 3.15118   2
  -5  -5  11 63.5917 3.74954  -1
  -4  -5  11 63.5917 3.74954   2
  -3  -5  11 19.9385 2.08434   2
  -2  -5  11 9.56622 2.36387   2
   1  -5  11 77.9641 8.25991  -1
   1  -4  11 77.9641 8.25991   2
   2  -5  11 5.19647 2.84156   2
   2  -5  11 4.28807 7.07774  -1
   2  -4  11 4.28807 7.07774   2
   3  -5  11 3.23410 3.01656   2
   3  -5  11 12.9155 7.56734  -1
   3  -4  11 12.9155 7.56734   2
   4  -5  11 4.25471 3.26779   2
   5  -5  11 -0.3707 3.27583   2
   6  -5  11 -0.8476 12.9311  -1
   6  -3  11 -0.8476 12.9311   2
   6  -5  11 1.65439 3.71248   2
   7  -5  11 9.45958 7.49889  -1
   7  -3  11 9.45958 7.49889   2
   8  -5  11 15.0639 7.26594  -1
   8  -3  11 15.0639 7.26594   2
   9  -5  11 -0.6683 7.57495  -1
   9  -3  11 -0.6683 7.57495   2
 -15  -4  11 5.16727 2.32018   2
 -15  -4  11 0.91917 3.71678  -1
 -14  -5  11 0.91917 3.71678   2
 -14  -4  11 3.45203 3.38981  -1
 -13  -5  11 3.45203 3.38981   2
 -13  -4  11 9.59506 3.05989  -1
 -12  -5  11 9.59506 3.05989   2
 -11  -4  11 35.0108 1.49670   2
 -10  -4  11 22.9648 1.18506   2
  -9  -4  11 16.7783 1.00710   2
  -9  -4  11 40.4675 4.37179  -1
  -8  -4  11 40.4675 4.37179   2
  -8  -4  11 -2.3607 1.98238  -1
  -7  -4  11 -2.3607 1.98238   2
  -7  -4  11 42.1528 2.56227  -1
  -6  -4  11 42.1528 2.56227   2
  -6  -4  11 69.5515 3.56817  -1
  -5  -4  11 69.5515 3.56817   2
  -5  -4  11 48.8839 3.51772  -1
  -4  -4  11 48.8839 3.51772   2
  -3  -4  11 55.5468 2.32489   2
  -1  -4  11 45.4355 7.03065  -1
  -1  -3  11 45.4355 7.03065   2
   0  -4  11 50.7819 7.06383  -1
   0  -3  11 50.7819 7.06383   2
   2  -4  11 2.11641 5.15280  -1
   2  -3  11 2.11641 5.15280   2
   3  -4  11 16.6250 5.99942  -1
   3  -3  11 16.6250 5.99942   2
   4  -4  11 0.29746 3.10814   2
   4  -4  11 -0.6240 7.74965  -1
   4  -3  11 -0.6240 7.74965   2
   5  -4  11 4.79443 3.56020   2
   6  -4  11 5.16039 3.77314   2
   6  -4  11 10.4939 13.1301  -1
   6  -2  11 10.4939 13.1301   2
   7  -4  11 12.2361 7.48114  -1
   7  -2  11 12.2361 7.48114   2
   8  -4  11 1.94375 7.54087  -1
   8  -2  11 1.94375 7.54087   2
   9  -4  11 -3.4377 13.8983  -1
   9  -2  11 -3.4377 13.8983   2
 -15  -3  11 20.7992 3.53025  -1
 -14  -4  11 20.7992 3.53025   2
 -14  -3  11 4.78094 3.08460  -1
 -13  -4  11 4.78094 3.08460   2
 -13  -3  11 24.7887 2.99692  -1
 -12  -4  11 24.7887 2.99692   2
 -12  -3  11 59.8262 1.60088   2
 -11  -3  11 57.2620 1.57964   2
 -10  -3  11 65.2220 1.56104   2
  -9  -3  11 92.8037 1.93539   2
  -8  -3  11 36.8578 1.41108   2
  -7  -3  11 24.1336 3.90728  -1
  -7  -3  11 24.1336 3.90728   2
  -6  -3  11 76.0902 1.82207   2
  -6  -3  11 97.8552 5.10497  -1
  -5  -3  11 97.8552 5.10497   2
  -4  -3  11 40.7823 2.07842   2
  -3  -3  11 41.7400 2.08452   2
  -2  -3  11 37.9783 3.17954   2
  -1  -3  11 59.0336 4.94818  -1
  -1  -2  11 59.0336 4.94818   2
   0  -3  11 43.7588 7.00988  -1
   0  -2  11 43.7588 7.00988   2
   1  -3  11 6.00681 4.23723  -1
   1  -2  11 6.00681 4.23723   2
   2  -3  11 7.41513 4.87173  -1
   2  -2  11 7.41513 4.87173   2
   3  -3  11 24.4379 7.07788  -1
   3  -2  11 24.4379 7.07788   2
   4  -3  11 3.73897 7.72525  -1
   4  -2  11 3.73897 7.72525   2
   5  -3  11 7.25435 3.47513   2
   5  -3  11 14.5887 12.0655  -1
   5  -1  11 14.5887 12.0655   2
   6  -3  11 15.0820 12.5374  -1
   6  -1  11 15.0820 12.5374   2
   7  -3  11 9.58089 7.23446  -1
   7  -1  11 9.58089 7.23446   2
   8  -3  11 0.19646 7.07261  -1
   8  -1  11 0.19646 7.07261   2
   9  -3  11 0.98982 15.1927  -1
   9  -1  11 0.98982 15.1927   2
 -15  -2  11 19.3233 4.37848  -1
 -14  -3  11 19.3233 4.37848   2
 -14  -2  11 32.7848 3.04986  -1
 -13  -3  11 32.7848 3.04986   2
 -14  -2  11 22.3644 1.50159   2
 -13  -2  11 25.7745 1.19986   2
 -12  -2  11 36.4087 1.27590   2
 -11  -2  11 49.3295 1.37460   2
 -10  -2  11 90.6297 1.92703   2
  -9  -2  11 86.9153 4.39977  -1
  -9  -2  11 86.9153 4.39977   2
  -8  -2  11 1.55443 2.53176  -1
  -8  -2  11 1.55443 2.53176   2
  -7  -2  11 41.2136 2.55540  -1
  -7  -2  11 41.2136 2.55540   2
  -6  -2  11 155.476 3.50353  -1
  -6  -2  11 155.476 3.50353   2
  -5  -2  11 3.11812 2.66683  -1
  -5  -2  11 3.11812 2.66683   2
  -4  -2  11 84.2990 2.51452   2
  -3  -2  11 40.0179 2.01714   2
  -2  -2  11 75.7541 7.09465  -1
  -2  -1  11 75.7541 7.09465   2
  -1  -2  11 71.2375 6.87394  -1
  -1  -1  11 71.2375 6.87394   2
   0  -2  11 42.9280 5.74141  -1
   0  -1  11 42.9280 5.74141   2
   1  -2  11 21.0443 3.77185  -1
   1  -1  11 21.0443 3.77185   2
   2  -2  11 26.5504 4.74340  -1
   2  -1  11 26.5504 4.74340   2
   3  -2  11 11.5549 6.46048  -1
   3  -1  11 11.5549 6.46048   2
   4  -2  11 23.2961 7.68723  -1
   4  -1  11 23.2961 7.68723   2
   5  -2  11 3.60277 3.41428   2
   8  -2  11 5.28448 14.8805  -1
   8   0  11 5.28448 14.8805   2
 -14  -1  11 17.7166 1.35309   2
 -13  -1  11 17.1043 0.92621   2
 -12  -1  11 48.5976 3.66315  -1
 -12  -1  11 48.5976 3.66315   2
 -11  -1  11 160.678 5.20051  -1
 -11  -1  11 160.678 5.20051   2
 -10  -1  11 163.036 5.35095  -1
 -10  -1  11 163.036 5.35095   2
  -9  -1  11 27.5616 2.23551  -1
  -9  -1  11 27.5616 2.23551   2
  -8  -1  11 0.37227 1.62929  -1
  -8  -1  11 0.37227 1.62929   2
  -7  -1  11 91.7171 2.11032  -1
  -7  -1  11 91.7171 2.11032   2
  -6  -1  11 237.767 4.05600  -1
  -6  -1  11 237.767 4.05600   2
  -5  -1  11 26.4363 3.26445  -1
  -5  -1  11 26.4363 3.26445   2
  -4  -1  11 115.824 2.78260   2
  -3  -1  11 61.7133 2.41305   2
  -2  -1  11 56.8198 4.54999  -1
  -2   0  11 56.8198 4.54999   2
  -1  -1  11 162.010 6.10877  -1
  -1   0  11 162.010 6.10877   2
   0  -1  11 48.8454 6.42389  -1
   0   0  11 48.8454 6.42389   2
   2  -1  11 92.3891 7.54223  -1
   2   0  11 92.3891 7.54223   2
   3  -1  11 26.3288 6.71591  -1
   3   0  11 26.3288 6.71591   2
 -14   0  11 20.4809 1.41405   2
 -13   0  11 38.9207 1.20827   2
 -12   0  11 77.5662 3.78135  -1
 -12   0  11 77.5662 3.78135   2
 -11   0  11 139.780 4.81299  -1
 -11   0  11 139.780 4.81299   2
 -10   0  11 66.3152 3.90172  -1
 -10   0  11 66.3152 3.90172   2
  -9   0  11 -3.2150 1.65405  -1
  -9   0  11 -3.2150 1.65405   2
  -8   0  11 21.4931 1.63848  -1
  -8   0  11 21.4931 1.63848   2
  -7   0  11 97.4375 2.04418  -1
  -7   0  11 97.4375 2.04418   2
  -6   0  11 113.446 2.46476  -1
  -6   0  11 113.446 2.46476   2
  -5   0  11 59.3245 4.14339  -1
  -5   0  11 59.3245 4.14339   2
  -4   0  11 122.228 2.99425   2
  -3   0  11 124.522 3.05866   2
  -2   0  11 61.6888 6.70945  -1
  -2   1  11 61.6888 6.70945   2
  -1   0  11 166.002 6.24907  -1
  -1   1  11 166.002 6.24907   2
   1   0  11 244.854 7.92681  -1
   1   1  11 244.854 7.92681   2
   2   0  11 84.7968 7.63868  -1
   2   1  11 84.7968 7.63868   2
   4   0  11 17.7490 3.80618   2
   5   0  11 9.90936 3.77002   2
   6   0  11 4.43798 3.57242   2
   7   0  11 0.52258 3.62769   2
 -14   1  11 12.3325 1.30868   2
 -13   1  11 29.1297 2.74923  -1
 -13   1  11 29.1297 2.74923   2
 -12   1  11 60.5139 3.40585  -1
 -12   1  11 60.5139 3.40585   2
 -11   1  11 43.4928 3.37703  -1
 -11   1  11 43.4928 3.37703   2
 -10   1  11 22.3093 3.03392  -1
 -10   1  11 22.3093 3.03392   2
  -9   1  11 -0.6794 1.57145  -1
  -9   1  11 -0.6794 1.57145   2
  -8   1  11 72.5014 1.89067  -1
  -8   1  11 72.5014 1.89067   2
  -7   1  11 147.551 2.36940  -1
  -7   1  11 147.551 2.36940   2
  -6   1  11 113.861 2.27435  -1
  -6   1  11 113.861 2.27435   2
  -5   1  11 202.525 3.71097   2
  -4   1  11 162.710 3.42620   2
  -3   1  11 145.756 3.26673   2
   0   1  11 76.4974 7.91348  -1
   0   2  11 76.4974 7.91348   2
   1   1  11 127.366 9.05350  -1
   1   2  11 127.366 9.05350   2
   3   1  11 6.18938 3.07490   2
   4   1  11 2.76094 3.07714   2
   5   1  11 3.50982 3.27463   2
   6   1  11 5.32541 3.68841   2
   7   1  11 3.20981 3.87075   2
   8   1  11 3.60822 4.07083   2
 -14   2  11 8.71358 2.71438  -1
 -14   2  11 8.71358 2.71438   2
 -13   2  11 42.0237 3.63780  -1
 -13   1  11 42.0237 3.63780   2
 -13   2  11 24.1157 2.85567  -1
 -13   2  11 24.1157 2.85567   2
 -12   2  11 25.7492 3.19948  -1
 -12   2  11 25.7492 3.19948   2
 -11   2  11 49.4017 3.49430  -1
 -11   2  11 49.4017 3.49430   2
 -10   2  11 33.0036 3.19624  -1
 -10   2  11 33.0036 3.19624   2
  -9   2  11 50.7607 1.66716  -1
  -9   2  11 50.7607 1.66716   2
  -8   2  11 60.7463 1.50980  -1
  -8   2  11 60.7463 1.50980   2
  -7   2  11 129.187 2.19218  -1
  -7   2  11 129.187 2.19218   2
  -6   2  11 115.506 2.52674  -1
  -6   2  11 115.506 2.52674   2
  -5   2  11 161.668 3.41657   2
  -4   2  11 82.1545 2.62108   2
  -3   2  11 92.0521 3.47758   2
   3   2  11 14.7502 3.67889   2
   4   2  11 4.86879 3.40804   2
   5   2  11 6.72506 3.64193   2
   6   2  11 7.72464 4.07606   2
   7   2  11 5.13345 4.09985   2
   8   2  11 1.49082 4.15166   2
 -15   3  11 5.13448 3.11147  -1
 -15   3  11 5.13448 3.11147   2
 -15   3  11 3.34306 3.40229  -1
 -15   2  11 3.34306 3.40229   2
 -14   3  11 9.58067 3.00106  -1
 -14   3  11 9.58067 3.00106   2
 -14   3  11 15.9192 2.21779  -1
 -14   2  11 15.9192 2.21779   2
 -13   3  11 17.7686 3.44361  -1
 -13   2  11 17.7686 3.44361   2
 -13   3  11 16.1384 3.01472  -1
 -13   3  11 16.1384 3.01472   2
 -12   3  11 29.6107 3.36925  -1
 -12   3  11 29.6107 3.36925   2
 -11   3  11 150.330 4.00187  -1
 -11   3  11 150.330 4.00187   2
 -10   3  11 65.5452 2.27244  -1
 -10   3  11 65.5452 2.27244   2
  -9   3  11 208.528 2.55198  -1
  -9   3  11 208.528 2.55198   2
  -8   3  11 73.7374 1.57791  -1
  -8   3  11 73.7374 1.57791   2
  -7   3  11 105.965 2.34188  -1
  -7   3  11 105.965 2.34188   2
  -6   3  11 82.5295 2.37994  -1
  -6   3  11 82.5295 2.37994   2
  -5   3  11 25.0940 1.29394   2
  -4   3  11 1.34846 1.12724   2
  -3   3  11 2.54538 2.10702   2
  -2   3  11 23.9648 4.14340   2
  -1   3  11 3.61396 2.31936   2
   3   3  11 14.6729 3.75926   2
   4   3  11 9.37924 3.86218   2
   5   3  11 11.4388 4.18656   2
   6   3  11 8.53638 4.16293   2
   7   3  11 5.60664 4.28683   2
   8   3  11 3.02649 4.30347   2
 -16   4  11 -2.4295 3.93021  -1
 -16   4  11 -2.4295 3.93021   2
 -15   4  11 7.16780 2.32425  -1
 -15   3  11 7.16780 2.32425   2
 -15   4  11 3.73807 3.52613  -1
 -15   4  11 3.73807 3.52613   2
 -14   4  11 7.04290 1.98854  -1
 -14   3  11 7.04290 1.98854   2
 -14   4  11 8.92927 3.19145  -1
 -14   4  11 8.92927 3.19145   2
 -13   4  11 12.4889 2.22935  -1
 -13   3  11 12.4889 2.22935   2
 -13   4  11 12.9321 2.42195  -1
 -13   4  11 12.9321 2.42195   2
 -12   4  11 41.3467 2.33322  -1
 -12   4  11 41.3467 2.33322   2
 -11   4  11 140.484 3.10371  -1
 -11   4  11 140.484 3.10371   2
 -10   4  11 58.7568 2.00637  -1
 -10   4  11 58.7568 2.00637   2
  -9   4  11 194.236 2.83483  -1
  -9   4  11 194.236 2.83483   2
  -8   4  11 25.9076 1.76645  -1
  -8   4  11 25.9076 1.76645   2
  -7   4  11 -1.2822 1.95796  -1
  -7   4  11 -1.2822 1.95796   2
  -6   4  11 0.63080 2.08782  -1
  -6   4  11 0.63080 2.08782   2
  -5   4  11 -2.5361 4.03372  -1
  -5   4  11 -2.5361 4.03372   2
  -4   4  11 27.9788 4.18157   2
  -3   4  11 28.0700 4.35315   2
   2   4  11 36.9900 5.65522   2
   3   4  11 10.3185 3.74737   2
   4   4  11 12.2139 4.13304   2
   5   4  11 16.7737 4.61646   2
   6   4  11 7.11080 4.41362   2
   7   4  11 11.6878 4.49743   2
 -16   5  11 6.80261 4.39551  -1
 -16   5  11 6.80261 4.39551   2
 -15   5  11 3.27452 2.04279  -1
 -15   4  11 3.27452 2.04279   2
 -15   5  11 8.43740 4.02844  -1
 -15   5  11 8.43740 4.02844   2
 -14   5  11 6.41234 2.36867  -1
 -14   4  11 6.41234 2.36867   2
 -14   5  11 4.90839 2.65348  -1
 -14   5  11 4.90839 2.65348   2
 -13   5  11 14.4131 4.89653  -1
 -13   4  11 14.4131 4.89653   2
 -13   5  11 5.98005 2.51924  -1
 -13   5  11 5.98005 2.51924   2
 -12   5  11 23.7200 2.20922  -1
 -12   5  11 23.7200 2.20922   2
 -11   5  11 13.4437 2.13178  -1
 -11   5  11 13.4437 2.13178   2
 -10   5  11 42.1283 2.27487  -1
 -10   5  11 42.1283 2.27487   2
  -9   5  11 52.2728 2.58583  -1
  -9   5  11 52.2728 2.58583   2
  -8   5  11 10.2006 1.96251  -1
  -8   5  11 10.2006 1.96251   2
  -7   5  11 2.25728 1.95694  -1
  -7   5  11 2.25728 1.95694   2
  -6   5  11 33.9878 4.03981  -1
  -6   5  11 33.9878 4.03981   2
  -5   5  11 92.5168 5.34512  -1
  -5   5  11 92.5168 5.34512   2
  -3   5  11 32.0273 4.71825   2
  -2   5  11 22.7214 4.50574   2
   1   5  11 5.43559 3.32725   2
   2   5  11 6.93676 3.67900   2
   3   5  11 16.2339 4.17443   2
   4   5  11 18.3458 4.44245   2
   5   5  11 17.3699 4.75531   2
   6   5  11 5.46808 4.65683   2
   7   5  11 5.72321 4.56889   2
 -16   6  11 -2.2326 3.66240  -1
 -16   5  11 -2.2326 3.66240   2
 -16   6  11 11.8069 5.21024  -1
 -16   6  11 11.8069 5.21024   2
 -15   6  11 1.12076 2.62889  -1
 -15   5  11 1.12076 2.62889   2
 -15   6  11 4.45022 3.30937  -1
 -15   6  11 4.45022 3.30937   2
 -14   6  11 6.77663 2.87982  -1
 -14   6  11 6.77663 2.87982   2
 -14   6  11 2.66221 3.45351  -1
 -14   5  11 2.66221 3.45351   2
 -13   6  11 7.34248 2.67563  -1
 -13   6  11 7.34248 2.67563   2
 -12   6  11 27.8121 3.93339  -1
 -12   6  11 27.8121 3.93339   2
 -11   6  11 12.7515 3.58707  -1
 -11   6  11 12.7515 3.58707   2
 -10   6  11 93.5752 3.56648  -1
 -10   6  11 93.5752 3.56648   2
  -9   6  11 37.9284 2.60597  -1
  -9   6  11 37.9284 2.60597   2
  -8   6  11 41.9601 3.17464  -1
  -8   6  11 41.9601 3.17464   2
  -7   6  11 58.5288 3.41340  -1
  -7   6  11 58.5288 3.41340   2
  -6   6  11 127.386 5.75330  -1
  -6   6  11 127.386 5.75330   2
  -5   6  11 80.8605 3.17617   2
  -4   6  11 39.4642 2.59749   2
  -3   6  11 2.66715 2.71906   2
  -2   6  11 7.85590 3.10721   2
  -1   6  11 14.4723 3.61919   2
   0   6  11 0.64908 3.27406   2
   1   6  11 1.88936 3.50157   2
   2   6  11 15.3927 4.24108   2
   3   6  11 17.5801 4.50988   2
   4   6  11 12.9534 4.55007   2
   5   6  11 4.65684 4.43211   2
   6   6  11 5.11195 4.66078   2
 -16   7  11 0.55137 1.75091   2
 -16   7  11 -1.5801 4.20154  -1
 -16   6  11 -1.5801 4.20154   2
 -15   7  11 7.56917 5.98382  -1
 -15   7  11 7.56917 5.98382   2
 -15   7  11 2.21179 3.16596  -1
 -15   6  11 2.21179 3.16596   2
 -14   7  11 0.71667 5.34343  -1
 -14   7  11 0.71667 5.34343   2
 -13   7  11 1.59838 4.66557  -1
 -13   7  11 1.59838 4.66557   2
 -12   7  11 0.51308 4.17469  -1
 -12   7  11 0.51308 4.17469   2
 -11   7  11 4.75833 4.06604  -1
 -11   7  11 4.75833 4.06604   2
 -10   7  11 19.4279 4.44131  -1
 -10   7  11 19.4279 4.44131   2
  -9   7  11 12.4566 4.30232  -1
  -9   7  11 12.4566 4.30232   2
  -8   7  11 41.1920 4.54585  -1
  -8   7  11 41.1920 4.54585   2
  -7   7  11 107.253 5.70030  -1
  -7   7  11 107.253 5.70030   2
  -6   7  11 92.7544 3.49090   2
  -5   7  11 38.6477 2.77846   2
  -4   7  11 8.61012 1.68316   2
  -3   7  11 9.14289 3.32208   2
  -2   7  11 19.3494 3.91752   2
  -1   7  11 -0.1324 3.60655   2
   0   7  11 2.43466 3.83222   2
   1   7  11 7.91774 4.19987   2
   2   7  11 11.0099 4.50005   2
   3   7  11 14.3486 4.70304   2
   4   7  11 6.22403 4.60206   2
   5   7  11 4.00282 4.79283   2
 -15   8  11 1.23951 2.50117   2
 -14   8  11 13.1248 6.22121  -1
 -14   8  11 13.1248 6.22121   2
 -13   8  11 2.13939 5.21616  -1
 -13   8  11 2.13939 5.21616   2
 -12   8  11 0.02260 4.61985  -1
 -12   8  11 0.02260 4.61985   2
 -11   8  11 16.7429 4.59124  -1
 -11   8  11 16.7429 4.59124   2
 -10   8  11 7.34798 4.57030  -1
 -11   8  11 7.34798 4.57030   2
 -10   8  11 8.21912 4.54668  -1
 -10   8  11 8.21912 4.54668   2
  -9   8  11 17.4211 4.84220  -1
  -9   8  11 17.4211 4.84220   2
  -9   8  11 6.28562 4.38489  -1
 -10   8  11 6.28562 4.38489   2
  -8   8  11 27.8602 4.70988  -1
  -8   8  11 27.8602 4.70988   2
  -7   8  11 33.4680 2.63980   2
  -6   8  11 14.0494 1.88655   2
  -5   8  11 28.7835 2.45384   2
  -4   8  11 23.8882 2.18535   2
  -3   8  11 10.9361 3.83450   2
  -2   8  11 10.0861 4.01308   2
  -1   8  11 1.73171 3.93780   2
   0   8  11 5.80608 4.48125   2
   1   8  11 10.8118 4.72376   2
   2   8  11 9.38522 4.83640   2
   3   8  11 4.63663 4.76576   2
   4   8  11 2.14431 4.82884   2
   5   8  11 -4.4528 17.8312  -1
   4  10  10 -4.4528 17.8312   2
   5   8  11 5.04328 4.91305   2
 -15   9  11 6.20588 7.22501  -1
 -15   9  11 6.20588 7.22501   2
 -14   9  11 0.01422 6.14956  -1
 -14   9  11 0.01422 6.14956   2
 -13   9  11 0.70042 5.61953  -1
 -13   9  11 0.70042 5.61953   2
 -12   9  11 -1.3205 5.13116  -1
 -12   9  11 -1.3205 5.13116   2
 -11   9  11 -4.0566 4.67605  -1
 -11   9  11 -4.0566 4.67605   2
 -10   9  11 -3.5093 8.58990  -1
 -11   9  11 -3.5093 8.58990   2
 -10   9  11 -1.6678 4.63126  -1
 -10   9  11 -1.6678 4.63126   2
  -9   9  11 3.19120 8.64080  -1
 -10   9  11 3.19120 8.64080   2
  -8   9  11 8.39728 2.06486   2
  -8   9  11 4.58893 8.81094  -1
  -9   9  11 4.58893 8.81094   2
  -7   9  11 11.9442 2.05641   2
  -6   9  11 15.7196 2.16397   2
  -5   9  11 36.2948 2.79117   2
  -4   9  11 20.4032 2.31978   2
  -3   9  11 5.59191 4.28148   2
  -2   9  11 10.0411 4.47505   2
  -1   9  11 10.1381 4.69044   2
   0   9  11 11.5474 4.85209   2
   1   9  11 4.05341 4.93677   2
   2   9  11 3.43967 4.98615   2
   3   9  11 3.32469 5.17002   2
   4   9  11 7.52885 18.6046  -1
   3  11  10 7.52885 18.6046   2
   4   9  11 0.08923 5.15297   2
 -14  10  11 8.57550 7.23003  -1
 -14  10  11 8.57550 7.23003   2
 -13  10  11 1.65616 6.32102  -1
 -13  10  11 1.65616 6.32102   2
 -12  10  11 7.89930 5.76615  -1
 -12  10  11 7.89930 5.76615   2
 -10  10  11 -2.2941 9.30979  -1
 -11  10  11 -2.2941 9.30979   2
  -9  10  11 9.24763 5.31619  -1
 -10  10  11 9.24763 5.31619   2
  -8  10  11 6.37132 2.16646   2
  -8  10  11 -2.5646 9.62959  -1
  -9  10  11 -2.5646 9.62959   2
  -7  10  11 6.26077 2.08740   2
  -6  10  11 7.13853 2.15529   2
  -5  10  11 9.23465 2.22436   2
  -4  10  11 3.99560 2.07537   2
  -3  10  11 10.4049 4.63108   2
  -2  10  11 9.99709 4.81868   2
  -1  10  11 6.51446 4.96585   2
   0  10  11 0.35198 4.98381   2
   1  10  11 6.17470 5.53353   2
   2  10  11 6.08152 5.55784   2
   3  10  11 0.45720 5.72972   2
 -13  11  11 0.85284 4.53521   2
 -12  11  11 -1.1573 4.24627   2
 -10  11  11 4.41611 6.32178  -1
 -11  11  11 4.41611 6.32178   2
  -9  11  11 5.44152 7.09990  -1
 -10  11  11 5.44152 7.09990   2
  -8  11  11 0.30874 2.31156   2
  -8  11  11 -2.1429 11.3337  -1
  -9  11  11 -2.1429 11.3337   2
  -7  11  11 2.10590 2.28521   2
  -6  11  11 0.98014 2.29621   2
  -5  11  11 4.51189 2.26581   2
  -2  11  11 7.59545 5.42126   2
  -2  11  11 15.4655 14.2875  -1
  -3  12  10 15.4655 14.2875   2
  -1  11  11 5.97635 10.0327  -1
  -2  12  10 5.97635 10.0327   2
  -1  11  11 4.89597 5.39956   2
   0  11  11 11.7351 5.59501   2
   1  11  11 8.85501 5.83434   2
 -11  12  11 0.30516 9.56964  -1
 -12  12  11 0.30516 9.56964   2
 -10  12  11 0.84603 6.98768  -1
 -11  12  11 0.84603 6.98768   2
  -9  12  11 -0.2975 3.13081   2
  -9  12  11 -0.1622 7.97964  -1
 -10  12  11 -0.1622 7.97964   2
  -8  12  11 0.96840 2.69909   2
  -7  12  11 0.81282 2.67095   2
  -2  12  11 6.21883 5.65204   2
  -2  12  11 -5.9649 9.18043  -1
  -3  13  10 -5.9649 9.18043   2
  -1  12  11 16.0009 10.1950  -1
  -2  13  10 16.0009 10.1950   2
  -1  12  11 0.03606 5.70909   2
   0  12  11 22.1651 14.4164  -1
  -1  13  10 22.1651 14.4164   2
   0  12  11 6.45686 5.92388   2
 -10  13  11 -0.0375 3.61694   2
 -10  13  11 1.74839 8.02740  -1
 -11  13  11 1.74839 8.02740   2
  -9  13  11 -2.4165 3.46029   2
  -8  13  11 -0.2709 3.07736   2
  -7  13  11 -1.6792 3.02321   2
  -4  13  11 7.56001 15.3736  -1
  -5  14  10 7.56001 15.3736   2
  -3  13  11 6.68252 6.52267  -1
  -4  14  10 6.68252 6.52267   2
  -2  13  11 0.22366 5.95132   2
  -2  13  11 1.64485 9.17660  -1
  -3  14  10 1.64485 9.17660   2
  -8  14  11 -1.5197 3.37479   2
  -7  14  11 1.36716 3.33407   2
  -5  14  11 -2.9948 3.23401   2
  -2 -14  12 5.08691 5.31665   2
  -1 -14  12 11.2501 5.58785   2
   0 -14  12 2.61089 5.30936   2
   1 -14  12 5.58546 7.34364   2
  -3 -13  12 -1.3018 4.58479   2
  -2 -13  12 9.77093 5.02277   2
  -1 -13  12 11.3184 5.09636   2
   0 -13  12 2.48402 4.78598   2
   1 -13  12 -2.7922 4.74107   2
   2 -13  12 6.20158 5.18389   2
   3 -13  12 0.26091 5.20328   2
  -8 -12  12 0.54431 13.7274  -1
  -7 -12  13 0.54431 13.7274   2
  -7 -12  12 7.30132 13.4819  -1
  -6 -12  13 7.30132 13.4819   2
  -4 -12  12 5.49483 4.28501   2
  -3 -12  12 11.2489 4.52830   2
  -2 -12  12 16.1835 4.76551   2
  -1 -12  12 4.72987 4.39973   2
   0 -12  12 2.28780 4.49279   2
   1 -12  12 0.31099 4.64700   2
   2 -12  12 2.24372 4.89891   2
   3 -12  12 -1.3446 5.07363   2
   3 -12  12 1.59560 15.8782  -1
   4 -11  12 1.59560 15.8782   2
   4 -12  12 8.31806 10.3022  -1
   5 -11  12 8.31806 10.3022   2
   4 -12  12 1.70189 5.37417   2
  -8 -11  12 2.11181 12.2960  -1
  -7 -11  13 2.11181 12.2960   2
  -6 -11  12 -0.3143 5.89173   2
  -5 -11  12 5.42387 3.56112   2
  -4 -11  12 14.3462 4.11190   2
  -3 -11  12 11.2008 3.72631   2
  -2 -11  12 38.5516 7.24561   2
  -1 -11  12 8.45983 4.31232   2
   0 -11  12 9.53036 4.57596   2
   1 -11  12 21.9414 13.0052  -1
   2 -10  12 21.9414 13.0052   2
   1 -11  12 9.60129 4.74174   2
   2 -11  12 -0.8562 4.42197   2
   2 -11  12 19.1206 9.03891  -1
   3 -10  12 19.1206 9.03891   2
   3 -11  12 9.33030 9.47421  -1
   4 -10  12 9.33030 9.47421   2
   3 -11  12 2.53309 4.87542   2
   4 -11  12 16.6584 10.1411  -1
   5 -10  12 16.6584 10.1411   2
   5 -11  12 13.2565 18.3923  -1
   6 -10  12 13.2565 18.3923   2
 -10 -10  12 1.10880 3.00972   2
  -9 -10  12 6.95738 2.88635   2
  -8 -10  12 3.64968 5.31206   2
  -7 -10  12 -1.4166 5.20081   2
  -6 -10  12 2.02411 5.25216   2
  -5 -10  12 10.3576 3.39978   2
  -4 -10  12 24.8581 6.08191   2
  -3 -10  12 13.6003 3.67652   2
  -2 -10  12 9.41068 3.87817   2
  -1 -10  12 7.62782 4.13115   2
   0 -10  12 7.27064 4.20387   2
   0 -10  12 14.1055 12.1307  -1
   1  -9  12 14.1055 12.1307   2
   1 -10  12 20.0807 8.16391  -1
   2  -9  12 20.0807 8.16391   2
   1 -10  12 5.54735 4.22452   2
   2 -10  12 8.06873 8.44207  -1
   3  -9  12 8.06873 8.44207   2
   3 -10  12 8.88140 9.01877  -1
   4  -9  12 8.88140 9.01877   2
   4 -10  12 5.48924 9.47228  -1
   5  -9  12 5.48924 9.47228   2
 -10  -9  12 0.02470 2.66172   2
  -9  -9  12 2.74309 2.40681   2
  -8  -9  12 5.37580 2.11262   2
  -7  -9  12 7.84969 5.09617   2
  -6  -9  12 30.9137 7.34305  -1
  -5  -9  12 30.9137 7.34305   2
  -6  -9  12 26.8192 5.70614   2
  -5  -9  12 13.7747 8.04834  -1
  -4  -9  12 13.7747 8.04834   2
  -3  -9  12 10.5990 3.33950   2
  -2  -9  12 1.66520 3.36756   2
  -1  -9  12 5.33331 3.56477   2
  -1  -9  12 16.6585 7.73211  -1
   0  -8  12 16.6585 7.73211   2
   0  -9  12 16.9393 7.77521  -1
   1  -8  12 16.9393 7.77521   2
   0  -9  12 9.19149 3.97611   2
   1  -9  12 27.7465 7.76916  -1
   2  -8  12 27.7465 7.76916   2
   2  -9  12 17.4606 8.36879  -1
   3  -8  12 17.4606 8.36879   2
   3  -9  12 10.2910 8.64465  -1
   4  -8  12 10.2910 8.64465   2
   4  -9  12 10.0104 9.34906  -1
   5  -8  12 10.0104 9.34906   2
   6  -9  12 7.05963 6.17459   2
   7  -9  12 -1.6782 5.07383   2
 -11  -8  12 -0.6163 1.70179   2
 -10  -8  12 1.33603 1.57936   2
  -9  -8  12 2.40661 1.51346   2
  -9  -8  12 14.6180 5.43486  -1
  -8  -8  12 14.6180 5.43486   2
  -8  -8  12 -0.0297 5.04200  -1
  -7  -8  12 -0.0297 5.04200   2
  -6  -8  12 4.90070 4.33079   2
  -6  -8  12 1.53307 5.44246  -1
  -5  -8  12 1.53307 5.44246   2
  -5  -8  12 1.62491 5.66098  -1
  -4  -8  12 1.62491 5.66098   2
  -4  -8  12 4.81535 7.47121  -1
  -3  -8  12 4.81535 7.47121   2
  -2  -8  12 -0.8559 2.92700   2
  -1  -8  12 7.16355 3.37074   2
  -1  -8  12 14.7030 7.14606  -1
   0  -7  12 14.7030 7.14606   2
   0  -8  12 17.2632 7.26429  -1
   1  -7  12 17.2632 7.26429   2
   1  -8  12 30.0143 6.13909  -1
   2  -7  12 30.0143 6.13909   2
   2  -8  12 24.0212 10.9197  -1
   3  -7  12 24.0212 10.9197   2
   3  -8  12 5.62069 8.44333  -1
   4  -7  12 5.62069 8.44333   2
   4  -8  12 18.0159 9.25537  -1
   5  -7  12 18.0159 9.25537   2
   6  -8  12 1.99241 4.78277   2
   7  -8  12 2.62103 4.95935   2
 -13  -7  12 -1.9744 1.91172   2
 -12  -7  12 0.80920 1.74955   2
 -11  -7  12 -0.2881 1.57953   2
 -10  -7  12 -2.3729 1.35263   2
 -10  -7  12 -8.4988 5.19782  -1
  -9  -7  12 -8.4988 5.19782   2
  -9  -7  12 -11.406 4.92839  -1
  -8  -7  12 -11.406 4.92839   2
  -8  -7  12 -2.8094 4.93800  -1
  -7  -7  12 -2.8094 4.93800   2
  -7  -7  12 -5.5182 3.35598  -1
  -6  -7  12 -5.5182 3.35598   2
  -6  -7  12 -1.5125 4.80198  -1
  -5  -7  12 -1.5125 4.80198   2
  -5  -7  12 0.15945 5.04626  -1
  -4  -7  12 0.15945 5.04626   2
  -3  -7  12 3.10385 4.06792   2
  -2  -7  12 9.43285 3.00889   2
  -1  -7  12 7.07296 3.16596   2
  -1  -7  12 7.85807 6.24141  -1
   0  -6  12 7.85807 6.24141   2
   0  -7  12 7.13766 6.48461  -1
   1  -6  12 7.13766 6.48461   2
   1  -7  12 11.0150 6.84389  -1
   2  -6  12 11.0150 6.84389   2
   2  -7  12 25.7436 9.89047  -1
   3  -6  12 25.7436 9.89047   2
   3  -7  12 1.32563 10.6806  -1
   4  -6  12 1.32563 10.6806   2
   6  -7  12 0.81888 4.44741   2
   7  -7  12 3.70805 4.88933   2
   7  -7  12 1.94271 9.70601  -1
   7  -5  12 1.94271 9.70601   2
 -14  -6  12 -0.2816 2.03609   2
 -12  -6  12 0.77698 1.63146   2
 -11  -6  12 3.51109 1.50501   2
 -10  -6  12 -6.7692 4.95533  -1
  -9  -6  12 -6.7692 4.95533   2
 -10  -6  12 -0.1058 1.33178   2
  -9  -6  12 -4.9014 3.22695  -1
  -8  -6  12 -4.9014 3.22695   2
  -8  -6  12 15.4272 3.10242  -1
  -7  -6  12 15.4272 3.10242   2
  -7  -6  12 2.13441 2.47694  -1
  -6  -6  12 2.13441 2.47694   2
  -6  -6  12 19.9394 4.07619  -1
  -5  -6  12 19.9394 4.07619   2
  -5  -6  12 -0.8726 4.79355  -1
  -4  -6  12 -0.8726 4.79355   2
  -3  -6  12 0.85639 2.43894   2
  -2  -6  12 28.9345 4.96233   2
  -1  -6  12 4.90010 2.82718   2
   5  -6  12 2.76985 4.21328   2
   6  -6  12 7.35282 4.54673   2
   6  -6  12 13.4710 8.73369  -1
   6  -4  12 13.4710 8.73369   2
   7  -6  12 0.28455 4.65733   2
   7  -6  12 -0.1373 8.72050  -1
   7  -4  12 -0.1373 8.72050   2
   8  -6  12 -1.1453 8.87417  -1
   8  -4  12 -1.1453 8.87417   2
   8  -6  12 -2.1003 4.66336   2
 -14  -5  12 -3.7780 6.51453  -1
 -13  -6  12 -3.7780 6.51453   2
 -12  -5  12 -0.4028 1.16266   2
 -11  -5  12 -0.2895 0.87395   2
 -10  -5  12 -1.4024 1.19423   2
 -10  -5  12 2.41516 4.33905  -1
  -9  -5  12 2.41516 4.33905   2
  -9  -5  12 -2.8457 3.03958  -1
  -8  -5  12 -2.8457 3.03958   2
  -8  -5  12 -2.7869 2.72375  -1
  -7  -5  12 -2.7869 2.72375   2
  -7  -5  12 -4.8965 3.21183  -1
  -6  -5  12 -4.8965 3.21183   2
  -6  -5  12 0.55289 2.73962  -1
  -5  -5  12 0.55289 2.73962   2
  -5  -5  12 12.3615 5.12745  -1
  -4  -5  12 12.3615 5.12745   2
  -3  -5  12 9.19566 2.47868   2
  -2  -5  12 6.83985 2.51319   2
  -1  -5  12 0.10794 2.41434   2
   0  -5  12 1.41124 2.61984   2
   1  -5  12 3.11582 7.88128  -1
   1  -4  12 3.11582 7.88128   2
   1  -5  12 1.63159 2.93322   2
   2  -5  12 2.19604 3.22848   2
   3  -5  12 10.7248 3.78084   2
   4  -5  12 8.39114 3.98193   2
   5  -5  12 2.73250 4.02182   2
   6  -5  12 12.5924 8.12660  -1
   6  -3  12 12.5924 8.12660   2
   6  -5  12 6.98141 4.36625   2
   7  -5  12 2.14986 8.34384  -1
   7  -3  12 2.14986 8.34384   2
   8  -5  12 1.95149 8.35344  -1
   8  -3  12 1.95149 8.35344   2
   8  -5  12 -0.8961 4.42173   2
 -15  -4  12 -1.8042 5.63218  -1
 -14  -5  12 -1.8042 5.63218   2
 -15  -4  12 5.04823 2.57186   2
 -14  -4  12 -4.2149 3.75992  -1
 -13  -5  12 -4.2149 3.75992   2
 -11  -4  12 1.39962 0.88470   2
 -10  -4  12 21.2472 1.20078   2
 -10  -4  12 10.2853 4.09655  -1
  -9  -4  12 10.2853 4.09655   2
  -9  -4  12 1.41357 3.81994  -1
  -8  -4  12 1.41357 3.81994   2
  -8  -4  12 -3.8122 2.84643  -1
  -7  -4  12 -3.8122 2.84643   2
  -7  -4  12 -1.8157 2.89223  -1
  -6  -4  12 -1.8157 2.89223   2
  -6  -4  12 -5.8684 3.02171  -1
  -5  -4  12 -5.8684 3.02171   2
  -4  -4  12 11.8766 1.89254   2
  -3  -4  12 5.17067 2.24911   2
  -2  -4  12 -1.2093 2.17030   2
  -2  -4  12 9.20052 7.16352  -1
  -2  -3  12 9.20052 7.16352   2
  -1  -4  12 8.84082 5.01371  -1
  -1  -3  12 8.84082 5.01371   2
  -1  -4  12 1.34110 2.33086   2
   0  -4  12 3.13811 2.62472   2
   0  -4  12 6.33265 5.09455  -1
   0  -3  12 6.33265 5.09455   2
   1  -4  12 1.33872 5.66040  -1
   1  -3  12 1.33872 5.66040   2
   2  -4  12 6.03044 3.31670   2
   2  -4  12 5.17736 6.58280  -1
   2  -3  12 5.17736 6.58280   2
   3  -4  12 2.89293 3.43885   2
   3  -4  12 -2.4826 8.99138  -1
   3  -3  12 -2.4826 8.99138   2
   4  -4  12 4.01135 3.68602   2
   5  -4  12 -7.2594 14.1189  -1
   5  -2  12 -7.2594 14.1189   2
   5  -4  12 1.48846 3.91052   2
   6  -4  12 13.6828 7.82212  -1
   6  -2  12 13.6828 7.82212   2
   7  -4  12 2.10216 8.11593  -1
   7  -2  12 2.10216 8.11593   2
   8  -4  12 9.12182 8.02683  -1
   8  -2  12 9.12182 8.02683   2
 -15  -3  12 1.54660 3.71050  -1
 -14  -4  12 1.54660 3.71050   2
 -15  -3  12 3.41519 2.36806   2
 -14  -3  12 -5.6779 3.47201  -1
 -13  -4  12 -5.6779 3.47201   2
 -13  -3  12 -7.4991 4.08105  -1
 -12  -4  12 -7.4991 4.08105   2
 -12  -3  12 7.00513 0.94303   2
 -11  -3  12 11.6747 1.00894   2
 -10  -3  12 29.2973 1.38069   2
  -9  -3  12 1.23519 0.85906   2
  -8  -3  12 6.65634 2.88430  -1
  -7  -3  12 6.65634 2.88430   2
  -8  -3  12 -0.4411 0.88146   2
  -7  -3  12 6.22332 3.77034  -1
  -6  -3  12 6.22332 3.77034   2
  -6  -3  12 -1.4227 3.99937  -1
  -5  -3  12 -1.4227 3.99937   2
  -4  -3  12 0.09508 1.03298   2
  -3  -3  12 3.32060 2.12206   2
  -2  -3  12 6.45016 4.66322  -1
  -2  -2  12 6.45016 4.66322   2
  -1  -3  12 11.4525 4.53315  -1
  -1  -2  12 11.4525 4.53315   2
   0  -3  12 2.64959 4.78906  -1
   0  -2  12 2.64959 4.78906   2
   1  -3  12 -4.1850 5.21704  -1
   1  -2  12 -4.1850 5.21704   2
   2  -3  12 0.73709 7.76975  -1
   2  -2  12 0.73709 7.76975   2
   3  -3  12 3.13027 8.56442  -1
   3  -2  12 3.13027 8.56442   2
   4  -3  12 2.26172 3.57822   2
   5  -3  12 0.98948 3.81099   2
   5  -3  12 5.22188 13.2288  -1
   5  -1  12 5.22188 13.2288   2
   6  -3  12 1.86607 7.70207  -1
   6  -1  12 1.86607 7.70207   2
   7  -3  12 1.03522 7.75744  -1
   7  -1  12 1.03522 7.75744   2
   8  -3  12 7.90104 8.57537  -1
   8  -1  12 7.90104 8.57537   2
 -15  -2  12 12.4097 3.70232  -1
 -14  -3  12 12.4097 3.70232   2
 -15  -2  12 3.28448 2.29284   2
 -14  -2  12 13.1509 1.06816   2
 -14  -2  12 -0.5125 3.24714  -1
 -13  -3  12 -0.5125 3.24714   2
 -13  -2  12 3.61170 0.89080   2
 -12  -2  12 3.62605 0.87464   2
 -11  -2  12 9.60096 3.69231  -1
 -11  -2  12 9.60096 3.69231   2
 -10  -2  12 12.1542 1.16293   2
  -9  -2  12 5.95931 3.54132  -1
  -9  -2  12 5.95931 3.54132   2
  -8  -2  12 5.63150 3.42394  -1
  -8  -2  12 5.63150 3.42394   2
  -7  -2  12 1.12559 4.57370  -1
  -7  -2  12 1.12559 4.57370   2
  -6  -2  12 10.0091 1.33001   2
  -5  -2  12 9.52225 1.31372   2
  -4  -2  12 6.40159 1.19138   2
  -3  -2  12 -0.5189 2.01113   2
  -2  -2  12 2.26253 3.88309  -1
  -2  -1  12 2.26253 3.88309   2
  -1  -2  12 0.87406 3.79259  -1
  -1  -1  12 0.87406 3.79259   2
   0  -2  12 0.09756 3.41466  -1
   0  -1  12 0.09756 3.41466   2
   1  -2  12 2.03564 4.76785  -1
   1  -1  12 2.03564 4.76785   2
   2  -2  12 3.15785 7.13675  -1
   2  -1  12 3.15785 7.13675   2
   3  -2  12 5.91138 8.21857  -1
   3  -1  12 5.91138 8.21857   2
   4  -2  12 2.19109 3.62081   2
   7  -2  12 11.7192 15.1547  -1
   7   0  12 11.7192 15.1547   2
 -15  -1  12 15.1612 2.40033   2
 -14  -1  12 10.3935 0.99824   2
 -13  -1  12 12.6252 3.68135  -1
 -13  -1  12 12.6252 3.68135   2
 -12  -1  12 10.3781 3.69399  -1
 -12  -1  12 10.3781 3.69399   2
 -11  -1  12 44.7247 4.04391  -1
 -11  -1  12 44.7247 4.04391   2
 -10  -1  12 8.01568 2.72442  -1
 -10  -1  12 8.01568 2.72442   2
  -9  -1  12 18.7153 2.06510  -1
  -9  -1  12 18.7153 2.06510   2
  -8  -1  12 0.94567 1.90371  -1
  -8  -1  12 0.94567 1.90371   2
  -7  -1  12 -0.7580 2.43744  -1
  -7  -1  12 -0.7580 2.43744   2
  -6  -1  12 45.1287 5.06392  -1
  -6  -1  12 45.1287 5.06392   2
  -5  -1  12 72.7901 2.38101   2
  -4  -1  12 20.9753 1.61500   2
  -3  -1  12 5.90926 3.97428  -1
  -3   0  12 5.90926 3.97428   2
  -3  -1  12 -0.8156 2.62533   2
  -2  -1  12 -1.9224 3.71930  -1
  -2   0  12 -1.9224 3.71930   2
  -1  -1  12 1.55163 3.75658  -1
  -1   0  12 1.55163 3.75658   2
   0  -1  12 0.60363 3.91021  -1
   0   0  12 0.60363 3.91021   2
   1  -1  12 -1.6025 4.73331  -1
   1   0  12 -1.6025 4.73331   2
   2  -1  12 -0.7985 7.19938  -1
   2   0  12 -0.7985 7.19938   2
   3  -1  12 -1.8259 8.28606  -1
   3   0  12 -1.8259 8.28606   2
   4  -1  12 7.10717 3.92786   2
 -15   0  12 30.8235 2.12646   2
 -14   0  12 8.73023 3.66935  -1
 -14   0  12 8.73023 3.66935   2
 -13   0  12 14.2295 3.37407  -1
 -13   0  12 14.2295 3.37407   2
 -12   0  12 14.0602 3.40940  -1
 -12   0  12 14.0602 3.40940   2
 -11   0  12 39.8533 3.90913  -1
 -11   0  12 39.8533 3.90913   2
 -10   0  12 9.92681 2.65080  -1
 -10   0  12 9.92681 2.65080   2
  -9   0  12 5.43972 1.60694  -1
  -9   0  12 5.43972 1.60694   2
  -8   0  12 4.78902 1.64507  -1
  -8   0  12 4.78902 1.64507   2
  -7   0  12 11.7628 2.20652  -1
  -7   0  12 11.7628 2.20652   2
  -6   0  12 22.4659 4.61974  -1
  -6   0  12 22.4659 4.61974   2
  -5   0  12 42.9083 2.24304   2
  -4   0  12 6.35789 1.20560   2
  -3   0  12 9.82928 5.90809  -1
  -3   1  12 9.82928 5.90809   2
  -2   0  12 0.96655 3.76881  -1
  -2   1  12 0.96655 3.76881   2
  -1   0  12 7.22259 3.74818  -1
  -1   1  12 7.22259 3.74818   2
   0   0  12 2.62086 4.34179  -1
   0   1  12 2.62086 4.34179   2
   1   0  12 9.19343 5.27726  -1
   1   1  12 9.19343 5.27726   2
   2   0  12 4.46582 7.60522  -1
   2   1  12 4.46582 7.60522   2
   4   0  12 0.73148 3.52516   2
   5   0  12 -1.6505 3.68134   2
   6   0  12 0.29711 3.97295   2
 -15   1  12 14.4010 1.57030   2
 -14   1  12 10.3027 0.99482   2
 -13   1  12 11.1865 3.06862  -1
 -13   1  12 11.1865 3.06862   2
 -12   1  12 23.7563 3.30479  -1
 -12   1  12 23.7563 3.30479   2
 -11   1  12 21.8732 3.43866  -1
 -11   1  12 21.8732 3.43866   2
 -10   1  12 51.5530 2.33730  -1
 -10   1  12 51.5530 2.33730   2
  -9   1  12 13.6000 1.59384  -1
  -9   1  12 13.6000 1.59384   2
  -8   1  12 14.7395 1.76146  -1
  -8   1  12 14.7395 1.76146   2
  -7   1  12 58.2275 2.47483  -1
  -7   1  12 58.2275 2.47483   2
  -6   1  12 37.4210 4.60289  -1
  -6   1  12 37.4210 4.60289   2
  -5   1  12 56.6035 2.39640   2
  -4   1  12 54.7158 3.04396   2
  -2   1  12 2.84478 4.18253  -1
  -2   2  12 2.84478 4.18253   2
  -1   1  12 8.15377 4.72511  -1
  -1   2  12 8.15377 4.72511   2
   1   1  12 36.9921 8.56417  -1
   1   2  12 36.9921 8.56417   2
   3   1  12 -2.2605 3.34513   2
   4   1  12 1.45321 3.64190   2
   5   1  12 0.07817 3.68946   2
   6   1  12 -2.3745 3.91568   2
   7   1  12 -1.1579 4.14603   2
 -16   2  12 55.6120 3.73506   2
 -14   2  12 19.7574 3.31894  -1
 -14   2  12 19.7574 3.31894   2
 -13   2  12 23.6787 3.28398  -1
 -13   2  12 23.6787 3.28398   2
 -12   2  12 19.4286 2.75867  -1
 -12   2  12 19.4286 2.75867   2
 -11   2  12 26.9850 3.51211  -1
 -11   2  12 26.9850 3.51211   2
 -10   2  12 90.2691 2.25619  -1
 -10   2  12 90.2691 2.25619   2
  -9   2  12 62.2908 1.82609  -1
  -9   2  12 62.2908 1.82609   2
  -8   2  12 70.0660 2.55578  -1
  -8   2  12 70.0660 2.55578   2
  -7   2  12 16.5081 2.08602  -1
  -7   2  12 16.5081 2.08602   2
  -6   2  12 2.71344 3.98317  -1
  -6   2  12 2.71344 3.98317   2
  -5   2  12 0.08164 1.05883   2
  -4   2  12 5.35556 2.24786   2
  -3   2  12 2.48493 2.29301   2
  -1   2  12 1.45271 7.25537  -1
  -1   3  12 1.45271 7.25537   2
   0   2  12 9.73109 8.00255  -1
   0   3  12 9.73109 8.00255   2
   2   2  12 0.57774 3.27350   2
   3   2  12 1.20353 3.39852   2
   4   2  12 -0.5223 3.56935   2
   5   2  12 2.93862 4.03881   2
   6   2  12 -1.0787 4.14071   2
   7   2  12 -2.6922 4.34363   2
 -16   3  12 24.2688 4.11115  -1
 -16   3  12 24.2688 4.11115   2
 -15   3  12 10.2925 3.64040  -1
 -15   3  12 10.2925 3.64040   2
 -15   3  12 11.3507 3.69480  -1
 -15   2  12 11.3507 3.69480   2
 -14   3  12 20.2659 2.84249  -1
 -14   2  12 20.2659 2.84249   2
 -14   3  12 34.7500 3.82370  -1
 -14   3  12 34.7500 3.82370   2
 -13   3  12 62.5935 3.97341  -1
 -13   3  12 62.5935 3.97341   2
 -12   3  12 59.7553 3.93674  -1
 -12   3  12 59.7553 3.93674   2
 -11   3  12 198.065 6.04296  -1
 -11   3  12 198.065 6.04296   2
 -10   3  12 91.8885 2.25585  -1
 -10   3  12 91.8885 2.25585   2
  -9   3  12 111.465 2.88182  -1
  -9   3  12 111.465 2.88182   2
  -8   3  12 45.0244 2.33004  -1
  -8   3  12 45.0244 2.33004   2
  -7   3  12 -1.5426 1.96422  -1
  -7   3  12 -1.5426 1.96422   2
  -6   3  12 1.34780 1.08939   2
  -5   3  12 5.10646 1.53655   2
  -4   3  12 30.9401 4.47182   2
  -3   3  12 3.89644 2.34767   2
  -2   3  12 1.87084 2.47977   2
   1   3  12 1.36141 3.26359   2
   2   3  12 -0.1609 3.49919   2
   3   3  12 -2.1054 3.72390   2
   4   3  12 -0.8096 3.90358   2
   5   3  12 1.36205 3.98896   2
   6   3  12 -0.3184 4.25321   2
 -16   4  12 8.94594 4.47061  -1
 -16   4  12 8.94594 4.47061   2
 -15   4  12 10.5038 2.07799  -1
 -15   3  12 10.5038 2.07799   2
 -15   4  12 29.9550 4.27140  -1
 -15   4  12 29.9550 4.27140   2
 -14   4  12 26.7306 2.39227  -1
 -14   3  12 26.7306 2.39227   2
 -14   4  12 27.6565 3.97504  -1
 -14   4  12 27.6565 3.97504   2
 -13   4  12 18.0605 3.61811  -1
 -13   4  12 18.0605 3.61811   2
 -12   4  12 11.8069 2.34336  -1
 -12   4  12 11.8069 2.34336   2
 -11   4  12 63.9807 2.47394  -1
 -11   4  12 63.9807 2.47394   2
 -10   4  12 7.61260 2.32682  -1
 -10   4  12 7.61260 2.32682   2
  -9   4  12 85.8394 2.84529  -1
  -9   4  12 85.8394 2.84529   2
  -8   4  12 62.2109 2.74595  -1
  -8   4  12 62.2109 2.74595   2
  -7   4  12 28.8731 2.34903  -1
  -7   4  12 28.8731 2.34903   2
  -6   4  12 38.1404 2.01761   2
  -5   4  12 32.8626 4.70772   2
  -4   4  12 8.77040 2.48648   2
  -3   4  12 5.37712 2.52592   2
  -2   4  12 6.05006 2.71586   2
  -1   4  12 5.18795 2.98008   2
   0   4  12 16.2709 3.55613   2
   1   4  12 9.08548 3.69645   2
   2   4  12 4.55956 3.77922   2
   3   4  12 3.22843 3.94403   2
   4   4  12 1.34182 4.12649   2
   5   4  12 2.56260 4.29767   2
   6   4  12 3.17420 4.50598   2
 -16   5  12 9.53643 4.94916  -1
 -16   5  12 9.53643 4.94916   2
 -16   5  12 7.46879 3.89847  -1
 -16   4  12 7.46879 3.89847   2
 -15   5  12 24.0457 2.40523  -1
 -15   4  12 24.0457 2.40523   2
 -15   5  12 18.2268 4.56599  -1
 -15   5  12 18.2268 4.56599   2
 -14   5  12 12.3637 2.93127  -1
 -14   5  12 12.3637 2.93127   2
 -14   5  12 25.4773 3.12534  -1
 -14   4  12 25.4773 3.12534   2
 -13   5  12 11.3731 3.09484  -1
 -13   5  12 11.3731 3.09484   2
 -12   5  12 68.4344 4.54013  -1
 -12   5  12 68.4344 4.54013   2
 -11   5  12 88.5054 3.45001  -1
 -11   5  12 88.5054 3.45001   2
 -10   5  12 198.435 4.15044  -1
 -10   5  12 198.435 4.15044   2
  -9   5  12 182.763 4.06669  -1
  -9   5  12 182.763 4.06669   2
  -8   5  12 66.7724 2.98137  -1
  -8   5  12 66.7724 2.98137   2
  -7   5  12 19.9209 2.60096  -1
  -7   5  12 19.9209 2.60096   2
  -6   5  12 40.1497 2.64376   2
  -4   5  12 25.7812 5.02105   2
  -3   5  12 4.47659 2.67705   2
  -2   5  12 3.42231 3.02782   2
  -1   5  12 0.28313 3.25135   2
   0   5  12 11.1017 3.76767   2
   1   5  12 7.60905 3.84418   2
   2   5  12 6.10341 4.06693   2
   3   5  12 0.71288 4.11197   2
   4   5  12 0.95588 4.30642   2
   5   5  12 1.64494 4.69038   2
 -16   6  12 1.00796 2.26498   2
 -16   6  12 -5.7392 4.30754  -1
 -16   5  12 -5.7392 4.30754   2
 -15   6  12 11.7554 3.18713  -1
 -15   5  12 11.7554 3.18713   2
 -15   6  12 14.6227 5.73782  -1
 -15   6  12 14.6227 5.73782   2
 -14   6  12 36.0524 5.25969  -1
 -14   6  12 36.0524 5.25969   2
 -13   6  12 74.3383 5.10926  -1
 -13   6  12 74.3383 5.10926   2
 -12   6  12 157.377 6.14192  -1
 -12   6  12 157.377 6.14192   2
 -11   6  12 24.6055 2.93098  -1
 -11   6  12 24.6055 2.93098   2
 -10   6  12 129.202 3.70911  -1
 -10   6  12 129.202 3.70911   2
  -9   6  12 43.5087 3.31938  -1
  -9   6  12 43.5087 3.31938   2
  -8   6  12 39.3276 3.89384  -1
  -8   6  12 39.3276 3.89384   2
  -7   6  12 114.489 5.67499  -1
  -7   6  12 114.489 5.67499   2
  -3   6  12 6.07981 3.09352   2
  -2   6  12 -0.6542 3.20649   2
  -2   6  12 -11.207 11.2900  -1
  -3   7  12 -11.207 11.2900   2
  -1   6  12 3.67528 3.55860   2
   0   6  12 5.55933 3.86114   2
   1   6  12 3.66980 3.98101   2
   2   6  12 4.82334 4.25024   2
   3   6  12 1.69378 4.28798   2
   4   6  12 2.73373 4.58314   2
   5   6  12 -0.7996 4.66401   2
 -15   7  12 21.3125 6.71374  -1
 -15   7  12 21.3125 6.71374   2
 -14   7  12 31.2312 5.68587  -1
 -14   7  12 31.2312 5.68587   2
 -13   7  12 52.7303 5.43113  -1
 -13   7  12 52.7303 5.43113   2
 -12   7  12 53.0425 4.94350  -1
 -12   7  12 53.0425 4.94350   2
 -11   7  12 1.59091 3.94140  -1
 -11   7  12 1.59091 3.94140   2
 -10   7  12 54.1717 4.76587  -1
 -10   7  12 54.1717 4.76587   2
  -9   7  12 51.5608 4.86569  -1
  -9   7  12 51.5608 4.86569   2
  -8   7  12 67.2746 3.42225   2
  -7   7  12 116.251 3.93693   2
  -4   7  12 18.5337 3.82874   2
  -2   7  12 -2.9558 3.53890   2
  -1   7  12 4.68580 4.07492   2
   0   7  12 -0.5355 3.99625   2
   1   7  12 1.46255 4.28321   2
   2   7  12 5.50425 4.66023   2
   3   7  12 1.11024 4.61625   2
   4   7  12 2.61877 4.89475   2
 -15   8  12 10.7903 7.20284  -1
 -15   8  12 10.7903 7.20284   2
 -14   8  12 14.7740 6.44650  -1
 -14   8  12 14.7740 6.44650   2
 -13   8  12 41.8768 5.72772  -1
 -13   8  12 41.8768 5.72772   2
 -12   8  12 20.1955 5.12549  -1
 -12   8  12 20.1955 5.12549   2
 -11   8  12 37.6733 4.83494  -1
 -11   8  12 37.6733 4.83494   2
 -10   8  12 20.8470 4.81352  -1
 -10   8  12 20.8470 4.81352   2
  -9   8  12 37.3591 3.00789   2
  -8   8  12 53.1638 3.40112   2
  -7   8  12 69.2647 3.46661   2
  -6   8  12 40.1470 2.82069   2
  -5   8  12 60.8753 7.48297   2
  -4   8  12 50.1048 7.13591   2
  -3   8  12 11.6402 4.40420   2
  -2   8  12 7.95326 4.56798   2
  -1   8  12 3.49216 4.49716   2
   0   8  12 -3.3987 4.42536   2
   1   8  12 4.67643 4.82706   2
   2   8  12 13.5061 5.25474   2
   3   8  12 4.84842 5.12572   2
 -14   9  12 13.8815 6.96717  -1
 -14   9  12 13.8815 6.96717   2
 -13   9  12 15.5572 6.50790  -1
 -13   9  12 15.5572 6.50790   2
 -12   9  12 14.7948 5.86845  -1
 -12   9  12 14.7948 5.86845   2
 -11   9  12 48.6031 5.61853  -1
 -11   9  12 48.6031 5.61853   2
 -10   9  12 26.7047 9.68621  -1
 -11   9  12 26.7047 9.68621   2
  -9   9  12 25.5810 9.65210  -1
 -10   9  12 25.5810 9.65210   2
  -8   9  12 41.1086 3.05484   2
  -8   9  12 27.5882 10.8781  -1
  -9   9  12 27.5882 10.8781   2
  -7   9  12 34.7643 2.94757   2
  -6   9  12 45.9650 3.34180   2
  -5   9  12 42.2834 7.08465   2
  -4   9  12 22.3741 4.99680   2
  -3   9  12 2.37964 4.54316   2
  -2   9  12 15.3012 5.15512   2
  -1   9  12 -0.3613 4.87306   2
   0   9  12 0.75157 5.12196   2
   1   9  12 10.6134 5.49558   2
   2   9  12 8.84611 5.42388   2
 -14  10  12 16.9446 5.18206   2
 -13  10  12 7.43214 7.39141  -1
 -13  10  12 7.43214 7.39141   2
 -12  10  12 17.0362 4.37238   2
 -10  10  12 15.1573 6.09840  -1
 -11  10  12 15.1573 6.09840   2
  -9  10  12 26.3157 10.8913  -1
 -10  10  12 26.3157 10.8913   2
  -8  10  12 19.2506 2.59537   2
  -8  10  12 17.5737 11.6192  -1
  -9  10  12 17.5737 11.6192   2
  -7  10  12 19.8048 2.48587   2
  -6  10  12 30.0855 2.73470   2
  -5  10  12 15.4176 4.91565   2
  -4  10  12 7.81180 4.97863   2
  -3  10  12 20.7098 5.45884   2
  -3  10  12 -5.8419 14.7961  -1
  -4  11  11 -5.8419 14.7961   2
  -2  10  12 12.1590 5.50691   2
  -2  10  12 31.6924 16.4723  -1
  -3  11  11 31.6924 16.4723   2
  -1  10  12 3.15334 5.37198   2
   0  10  12 2.88288 5.60771   2
   1  10  12 7.98868 5.76877   2
 -13  11  12 -4.2142 4.54412   2
 -11  11  12 22.5522 8.90150  -1
 -12  11  12 22.5522 8.90150   2
 -10  11  12 18.0577 6.58630  -1
 -11  11  12 18.0577 6.58630   2
  -9  11  12 20.2680 3.37478   2
  -9  11  12 21.7776 6.21039  -1
 -10  11  12 21.7776 6.21039   2
  -8  11  12 39.6536 3.63482   2
  -7  11  12 36.8395 3.46572   2
  -5  11  12 -0.6187 14.0327  -1
  -6  12  11 -0.6187 14.0327   2
  -4  11  12 8.63169 5.43066   2
  -4  11  12 -2.0794 13.7641  -1
  -5  12  11 -2.0794 13.7641   2
  -3  11  12 36.0002 6.56017   2
  -3  11  12 -4.4410 14.9362  -1
  -4  12  11 -4.4410 14.9362   2
  -2  11  12 -6.3975 10.5755  -1
  -3  12  11 -6.3975 10.5755   2
  -2  11  12 9.65203 5.59273   2
  -1  11  12 8.56766 5.95693   2
   0  11  12 8.60226 6.21027   2
 -10  12  12 38.7791 6.51774  -1
 -11  12  12 38.7791 6.51774   2
  -9  12  12 36.4812 8.34424  -1
 -10  12  12 36.4812 8.34424   2
  -9  12  12 23.8407 3.71104   2
  -8  12  12 38.0665 3.53463   2
  -5  12  12 -14.501 14.5208  -1
  -6  13  11 -14.501 14.5208   2
  -4  12  12 -0.7125 15.2515  -1
  -5  13  11 -0.7125 15.2515   2
  -3  12  12 4.43690 10.0533  -1
  -4  13  11 4.43690 10.0533   2
  -2  12  12 -1.6600 6.02154   2
  -2  12  12 -4.0150 10.4607  -1
  -3  13  11 -4.0150 10.4607   2
  -9  13  12 14.8440 3.91723   2
  -8  13  12 25.6193 3.53383   2
  -5  13  12 2.45211 6.11962   2
  -5  13  12 1.35762 16.5388  -1
  -6  14  11 1.35762 16.5388   2
  -4 -13  13 5.88925 4.98984   2
  -3 -13  13 3.52450 5.04823   2
  -2 -13  13 8.18921 5.24573   2
  -1 -13  13 2.57563 4.18091   2
   0 -13  13 -0.1835 5.05988   2
   1 -13  13 0.35033 5.29618   2
  -5 -12  13 11.1632 7.22901   2
  -4 -12  13 10.5066 4.75788   2
  -3 -12  13 7.73621 4.75850   2
  -2 -12  13 3.52696 4.54475   2
  -1 -12  13 -1.4490 4.76937   2
   0 -12  13 -0.4679 4.98703   2
   1 -12  13 3.02309 5.17618   2
   2 -12  13 0.13486 5.28348   2
   3 -12  13 -3.4516 5.33632   2
  -6 -11  13 2.95842 6.35374   2
  -5 -11  13 9.46494 4.22870   2
  -4 -11  13 21.1642 4.76750   2
  -3 -11  13 13.8430 4.24707   2
  -2 -11  13 11.5638 4.63119   2
  -1 -11  13 8.81850 4.85489   2
   0 -11  13 1.48683 4.73348   2
   0 -11  13 7.69061 14.0536  -1
   1 -10  13 7.69061 14.0536   2
   1 -11  13 2.29361 4.90193   2
   1 -11  13 8.56686 9.60199  -1
   2 -10  13 8.56686 9.60199   2
   2 -11  13 1.20251 9.89518  -1
   3 -10  13 1.20251 9.89518   2
   2 -11  13 -2.3591 4.88859   2
   3 -11  13 1.64753 10.1306  -1
   4 -10  13 1.64753 10.1306   2
   3 -11  13 2.51056 5.21199   2
   4 -11  13 -1.4295 5.25671   2
   4 -11  13 -4.8327 11.0656  -1
   5 -10  13 -4.8327 11.0656   2
 -10 -10  13 5.11462 3.54021   2
  -7 -10  13 0.16312 5.64469   2
  -6 -10  13 12.8141 6.23482   2
  -5 -10  13 12.1402 3.45717   2
  -4 -10  13 15.2722 3.90021   2
  -3 -10  13 47.3540 7.52799   2
  -2 -10  13 14.9662 4.54590   2
  -1 -10  13 14.1500 13.0758  -1
   0  -9  13 14.1500 13.0758   2
  -1 -10  13 6.80615 4.43869   2
   0 -10  13 14.5514 8.83504  -1
   1  -9  13 14.5514 8.83504   2
   0 -10  13 -2.1941 4.33487   2
   1 -10  13 11.9753 8.78551  -1
   2  -9  13 11.9753 8.78551   2
   2 -10  13 4.47265 9.48355  -1
   3  -9  13 4.47265 9.48355   2
   3 -10  13 4.61849 10.2445  -1
   4  -9  13 4.61849 10.2445   2
   4 -10  13 -4.0099 10.5641  -1
   5  -9  13 -4.0099 10.5641   2
 -11  -9  13 -1.0881 3.38086   2
 -10  -9  13 9.79249 3.26963   2
  -9  -9  13 11.1906 3.05968   2
  -8  -9  13 17.3482 5.66445   2
  -7  -9  13 12.6874 5.53482   2
  -6  -9  13 27.8941 6.39518   2
  -6  -9  13 38.5329 8.76300  -1
  -5  -9  13 38.5329 8.76300   2
  -4  -9  13 13.1825 3.64840   2
  -3  -9  13 14.5610 3.86914   2
  -2  -9  13 23.5234 12.0406  -1
  -1  -8  13 23.5234 12.0406   2
  -2  -9  13 9.57087 4.00577   2
  -1  -9  13 20.0045 8.40178  -1
   0  -8  13 20.0045 8.40178   2
  -1  -9  13 5.35194 4.10079   2
   0  -9  13 22.4652 8.50889  -1
   1  -8  13 22.4652 8.50889   2
   1  -9  13 34.1284 8.80726  -1
   2  -8  13 34.1284 8.80726   2
   2  -9  13 25.2151 9.35101  -1
   3  -8  13 25.2151 9.35101   2
   3  -9  13 12.5860 9.65572  -1
   4  -8  13 12.5860 9.65572   2
   4  -9  13 -0.1278 10.4981  -1
   5  -8  13 -0.1278 10.4981   2
 -12  -8  13 9.85662 2.29773   2
 -11  -8  13 7.52848 2.05677   2
 -10  -8  13 9.41979 1.96932   2
  -9  -8  13 4.91094 2.57295   2
  -8  -8  13 4.79132 4.76543   2
  -7  -8  13 10.4651 5.10475   2
  -6  -8  13 5.03345 4.84396   2
  -6  -8  13 1.19147 6.09730  -1
  -5  -8  13 1.19147 6.09730   2
  -5  -8  13 10.3647 7.85308  -1
  -4  -8  13 10.3647 7.85308   2
  -3  -8  13 8.88970 3.46585   2
  -2  -8  13 11.5686 3.89156   2
  -2  -8  13 21.2235 7.84818  -1
  -1  -7  13 21.2235 7.84818   2
  -1  -8  13 29.9922 8.21620  -1
   0  -7  13 29.9922 8.21620   2
   0  -8  13 52.1244 8.53313  -1
   1  -7  13 52.1244 8.53313   2
   1  -8  13 47.6309 8.76317  -1
   2  -7  13 47.6309 8.76317   2
   2  -8  13 36.1359 9.11975  -1
   3  -7  13 36.1359 9.11975   2
   3  -8  13 14.7927 9.42725  -1
   4  -7  13 14.7927 9.42725   2
   4  -8  13 7.76630 16.7792  -1
   5  -7  13 7.76630 16.7792   2
   6  -8  13 0.62102 5.03298   2
 -12  -7  13 6.78233 2.03388   2
 -11  -7  13 4.64446 1.86957   2
 -10  -7  13 6.04348 1.74798   2
 -10  -7  13 7.62875 5.85218  -1
  -9  -7  13 7.62875 5.85218   2
  -9  -7  13 12.2067 5.41510  -1
  -8  -7  13 12.2067 5.41510   2
  -8  -7  13 69.1846 5.80515  -1
  -7  -7  13 69.1846 5.80515   2
  -7  -7  13 -1.7796 9.00280  -1
  -6  -7  13 -1.7796 9.00280   2
  -6  -7  13 1.85425 5.55716  -1
  -5  -7  13 1.85425 5.55716   2
  -5  -7  13 30.4147 6.13620  -1
  -4  -7  13 30.4147 6.13620   2
  -3  -7  13 36.2594 5.98932   2
  -2  -7  13 29.3855 7.20340  -1
  -1  -6  13 29.3855 7.20340   2
  -2  -7  13 8.97448 3.50619   2
  -1  -7  13 45.5891 10.7871  -1
   0  -6  13 45.5891 10.7871   2
   0  -7  13 23.9490 5.90426  -1
   1  -6  13 23.9490 5.90426   2
   1  -7  13 59.5440 8.52488  -1
   2  -6  13 59.5440 8.52488   2
   2  -7  13 23.4006 11.3026  -1
   3  -6  13 23.4006 11.3026   2
   3  -7  13 13.4796 12.1677  -1
   4  -6  13 13.4796 12.1677   2
   6  -7  13 0.64063 4.80095   2
   6  -7  13 -6.0881 10.3517  -1
   6  -5  13 -6.0881 10.3517   2
 -12  -6  13 9.77804 1.94920   2
 -11  -6  13 14.0069 1.88257   2
 -10  -6  13 25.4445 5.48591  -1
  -9  -6  13 25.4445 5.48591   2
 -10  -6  13 12.8287 1.75122   2
  -9  -6  13 32.4528 3.42537  -1
  -8  -6  13 32.4528 3.42537   2
  -8  -6  13 49.3248 4.69982  -1
  -7  -6  13 49.3248 4.69982   2
  -7  -6  13 4.79579 4.08060  -1
  -6  -6  13 4.79579 4.08060   2
  -6  -6  13 1.84797 5.24425  -1
  -5  -6  13 1.84797 5.24425   2
  -2  -6  13 47.6984 6.24005   2
   5  -6  13 0.42931 4.48538   2
   5  -6  13 8.22963 9.44099  -1
   5  -4  13 8.22963 9.44099   2
   6  -6  13 3.74113 9.55230  -1
   6  -4  13 3.74113 9.55230   2
   6  -6  13 1.51397 4.69984   2
 -14  -5  13 16.0896 7.22491  -1
 -13  -6  13 16.0896 7.22491   2
 -14  -5  13 3.65456 1.81904   2
 -12  -5  13 15.1976 1.91692   2
 -11  -5  13 26.8792 2.04745   2
 -10  -5  13 20.9444 1.91149   2
 -10  -5  13 34.1754 4.68476  -1
  -9  -5  13 34.1754 4.68476   2
  -9  -5  13 64.5544 3.49303  -1
  -8  -5  13 64.5544 3.49303   2
  -8  -5  13 22.5561 3.09756  -1
  -7  -5  13 22.5561 3.09756   2
  -7  -5  13 19.5346 4.10870  -1
  -6  -5  13 19.5346 4.10870   2
  -5  -5  13 22.7832 4.59775   2
  -3  -5  13 39.9981 5.72941   2
  -1  -5  13 9.73639 3.24762   2
   0  -5  13 14.2196 3.59056   2
   1  -5  13 19.5250 4.07818   2
   2  -5  13 13.0268 4.16404   2
   3  -5  13 5.54286 4.10250   2
   4  -5  13 4.67216 4.34244   2
   5  -5  13 6.73008 8.86001  -1
   5  -3  13 6.73008 8.86001   2
   5  -5  13 4.60214 4.58462   2
   6  -5  13 6.76867 9.02619  -1
   6  -3  13 6.76867 9.02619   2
   7  -5  13 1.34596 4.81518   2
   7  -5  13 11.0978 9.23787  -1
   7  -3  13 11.0978 9.23787   2
 -14  -4  13 19.1921 7.03424  -1
 -13  -5  13 19.1921 7.03424   2
 -12  -4  13 11.9340 1.35324   2
 -11  -4  13 11.8690 1.67164   2
 -10  -4  13 20.1821 1.83786   2
 -10  -4  13 45.3651 4.66027  -1
  -9  -4  13 45.3651 4.66027   2
  -9  -4  13 92.1032 3.95897  -1
  -8  -4  13 92.1032 3.95897   2
  -8  -4  13 4.05115 3.11127  -1
  -7  -4  13 4.05115 3.11127   2
  -7  -4  13 19.3238 3.31729  -1
  -6  -4  13 19.3238 3.31729   2
  -6  -4  13 64.7906 5.83128  -1
  -5  -4  13 64.7906 5.83128   2
  -4  -4  13 36.7770 5.16085   2
  -2  -4  13 44.8995 6.04034   2
  -2  -4  13 31.4474 8.70284  -1
  -2  -3  13 31.4474 8.70284   2
  -1  -4  13 50.3610 6.36348  -1
  -1  -3  13 50.3610 6.36348   2
  -1  -4  13 40.0189 5.80591   2
   0  -4  13 48.9563 7.00575  -1
   0  -3  13 48.9563 7.00575   2
   0  -4  13 15.0536 3.57595   2
   1  -4  13 10.3553 3.73576   2
   1  -4  13 25.8127 7.37618  -1
   1  -3  13 25.8127 7.37618   2
   2  -4  13 7.27964 3.81562   2
   2  -4  13 25.5685 10.4340  -1
   2  -3  13 25.5685 10.4340   2
   3  -4  13 7.32226 4.05261   2
   4  -4  13 12.5742 4.63042   2
   4  -4  13 23.9432 14.8723  -1
   4  -2  13 23.9432 14.8723   2
   5  -4  13 20.0911 9.09923  -1
   5  -2  13 20.0911 9.09923   2
   6  -4  13 16.1660 8.98241  -1
   6  -2  13 16.1660 8.98241   2
   7  -4  13 11.0949 8.94239  -1
   7  -2  13 11.0949 8.94239   2
   7  -4  13 4.65908 4.99508   2
 -15  -3  13 -0.6675 1.64150   2
 -15  -3  13 12.2638 5.92228  -1
 -14  -4  13 12.2638 5.92228   2
 -14  -3  13 4.71695 6.37022  -1
 -13  -4  13 4.71695 6.37022   2
 -13  -3  13 4.31902 1.06527   2
 -12  -3  13 3.50912 0.97069   2
 -11  -3  13 10.1916 1.07193   2
 -10  -3  13 57.4822 2.56108   2
  -9  -3  13 28.9141 3.31724  -1
  -8  -3  13 28.9141 3.31724   2
  -9  -3  13 72.4635 2.75836   2
  -8  -3  13 6.52145 3.10751  -1
  -7  -3  13 6.52145 3.10751   2
  -7  -3  13 27.2666 3.47577  -1
  -6  -3  13 27.2666 3.47577   2
  -5  -3  13 69.7703 3.43757   2
  -4  -3  13 32.2170 4.87623   2
  -3  -3  13 55.9110 5.82381  -1
  -3  -2  13 55.9110 5.82381   2
  -2  -3  13 34.6472 7.72635  -1
  -2  -2  13 34.6472 7.72635   2
  -1  -3  13 67.2294 6.26973  -1
  -1  -2  13 67.2294 6.26973   2
   0  -3  13 61.9365 6.90004  -1
   0  -2  13 61.9365 6.90004   2
   1  -3  13 16.3093 6.98101  -1
   1  -2  13 16.3093 6.98101   2
   2  -3  13 54.6447 10.2179  -1
   2  -2  13 54.6447 10.2179   2
   3  -3  13 16.0385 4.44606   2
   3  -3  13 65.0478 11.6174  -1
   3  -2  13 65.0478 11.6174   2
   4  -3  13 17.6327 4.77244   2
   5  -3  13 8.57077 8.32752  -1
   5  -1  13 8.57077 8.32752   2
   6  -3  13 3.19916 10.7517  -1
   6  -1  13 3.19916 10.7517   2
   7  -3  13 0.60806 8.87446  -1
   7  -1  13 0.60806 8.87446   2
 -15  -2  13 9.89014 4.24128  -1
 -14  -3  13 9.89014 4.24128   2
 -15  -2  13 1.35863 1.32145   2
 -14  -2  13 5.71648 1.13656   2
 -13  -2  13 4.94558 1.02887   2
 -12  -2  13 12.6531 1.08802   2
 -11  -2  13 18.0742 4.15847  -1
 -11  -2  13 18.0742 4.15847   2
 -10  -2  13 52.7425 2.43247   2
  -9  -2  13 30.6086 1.80388   2
  -8  -2  13 1.21582 1.13509   2
  -7  -2  13 3.45683 5.06345  -1
  -7  -2  13 3.45683 5.06345   2
  -6  -2  13 37.0745 2.11485   2
  -5  -2  13 26.4619 2.39482   2
  -4  -2  13 16.8822 7.13280  -1
  -4  -1  13 16.8822 7.13280   2
  -4  -2  13 10.0427 2.54098   2
  -3  -2  13 70.3659 5.45726  -1
  -3  -1  13 70.3659 5.45726   2
  -2  -2  13 71.9286 5.43360  -1
  -2  -1  13 71.9286 5.43360   2
  -1  -2  13 56.8240 7.44132  -1
  -1  -1  13 56.8240 7.44132   2
   0  -2  13 48.7411 6.14745  -1
   0  -1  13 48.7411 6.14745   2
   1  -2  13 9.12588 6.46693  -1
   1  -1  13 9.12588 6.46693   2
   2  -2  13 96.5387 10.3769  -1
   2  -1  13 96.5387 10.3769   2
   3  -2  13 80.0039 11.5605  -1
   3  -1  13 80.0039 11.5605   2
   5  -2  13 20.0586 13.6964  -1
   5   0  13 20.0586 13.6964   2
   6  -2  13 25.0598 15.3586  -1
   6   0  13 25.0598 15.3586   2
 -15  -1  13 5.67805 1.76044   2
 -14  -1  13 0.85983 1.02571   2
 -13  -1  13 4.50345 1.12384   2
 -12  -1  13 20.1041 3.97745  -1
 -12  -1  13 20.1041 3.97745   2
 -11  -1  13 8.55413 3.90051  -1
 -11  -1  13 8.55413 3.90051   2
 -10  -1  13 1.95897 4.51429  -1
 -10  -1  13 1.95897 4.51429   2
  -9  -1  13 -5.5224 3.30868  -1
  -9  -1  13 -5.5224 3.30868   2
  -8  -1  13 3.00271 2.58013  -1
  -8  -1  13 3.00271 2.58013   2
  -7  -1  13 30.5738 5.07760  -1
  -7  -1  13 30.5738 5.07760   2
  -6  -1  13 91.8669 2.88385   2
  -5  -1  13 48.7012 7.10279  -1
  -5   0  13 48.7012 7.10279   2
  -5  -1  13 45.9524 3.08713   2
  -4  -1  13 55.8910 6.97178  -1
  -4   0  13 55.8910 6.97178   2
  -3  -1  13 27.7382 6.81688  -1
  -3   0  13 27.7382 6.81688   2
  -2  -1  13 32.2220 6.76851  -1
  -2   0  13 32.2220 6.76851   2
  -1  -1  13 57.7028 5.32284  -1
  -1   0  13 57.7028 5.32284   2
   0  -1  13 23.4103 5.64901  -1
   0   0  13 23.4103 5.64901   2
   1  -1  13 23.6989 8.32934  -1
   1   0  13 23.6989 8.32934   2
   2  -1  13 51.3641 9.68182  -1
   2   0  13 51.3641 9.68182   2
   4  -1  13 28.0281 6.03328   2
 -15   0  13 3.86253 4.81162  -1
 -15   0  13 3.86253 4.81162   2
 -14   0  13 -6.0614 4.20168  -1
 -14   0  13 -6.0614 4.20168   2
 -13   0  13 0.61824 3.64762  -1
 -13   0  13 0.61824 3.64762   2
 -12   0  13 -1.7043 3.58327  -1
 -12   0  13 -1.7043 3.58327   2
 -11   0  13 1.52542 2.74237  -1
 -11   0  13 1.52542 2.74237   2
 -10   0  13 -2.0796 2.86980  -1
 -10   0  13 -2.0796 2.86980   2
  -9   0  13 9.40710 2.44591  -1
  -9   0  13 9.40710 2.44591   2
  -8   0  13 70.6138 3.07535  -1
  -8   0  13 70.6138 3.07535   2
  -7   0  13 60.1622 2.83578  -1
  -7   0  13 60.1622 2.83578   2
  -6   0  13 88.9503 2.83700   2
  -5   0  13 54.8886 7.36843  -1
  -5   1  13 54.8886 7.36843   2
  -4   0  13 33.2307 6.70571  -1
  -4   1  13 33.2307 6.70571   2
  -3   0  13 12.8194 4.47815  -1
  -3   1  13 12.8194 4.47815   2
  -2   0  13 18.3319 4.37546  -1
  -2   1  13 18.3319 4.37546   2
  -1   0  13 55.5066 8.15189  -1
  -1   1  13 55.5066 8.15189   2
   0   0  13 8.84166 5.72946  -1
   0   1  13 8.84166 5.72946   2
   1   0  13 64.7882 9.23483  -1
   1   1  13 64.7882 9.23483   2
   3   0  13 22.7720 4.64229   2
   4   0  13 8.33070 4.41356   2
 -15   1  13 -2.4423 4.39832  -1
 -15   1  13 -2.4423 4.39832   2
 -14   1  13 -3.9096 3.84764  -1
 -14   1  13 -3.9096 3.84764   2
 -13   1  13 4.21348 3.48331  -1
 -13   1  13 4.21348 3.48331   2
 -12   1  13 3.10366 3.49681  -1
 -12   1  13 3.10366 3.49681   2
 -11   1  13 8.74284 2.28848  -1
 -11   1  13 8.74284 2.28848   2
 -10   1  13 12.2538 2.88072  -1
 -10   1  13 12.2538 2.88072   2
  -9   1  13 7.59346 2.19984  -1
  -9   1  13 7.59346 2.19984   2
  -8   1  13 18.5051 2.52050  -1
  -8   1  13 18.5051 2.52050   2
  -7   1  13 31.6685 2.54980  -1
  -7   1  13 31.6685 2.54980   2
  -6   1  13 31.1834 1.91128   2
  -3   1  13 1.77563 4.80978  -1
  -3   2  13 1.77563 4.80978   2
  -2   1  13 3.83765 5.02458  -1
  -2   2  13 3.83765 5.02458   2
  -1   1  13 16.0636 6.06397  -1
  -1   2  13 16.0636 6.06397   2
   0   1  13 19.7979 6.92228  -1
   0   2  13 19.7979 6.92228   2
   2   1  13 20.3399 4.42134   2
   3   1  13 16.9264 4.57584   2
   4   1  13 10.9440 4.55892   2
   5   1  13 7.63062 4.65896   2
   6   1  13 2.51066 4.66691   2
 -15   2  13 -0.5832 4.15862  -1
 -15   2  13 -0.5832 4.15862   2
 -14   2  13 3.12006 3.59283  -1
 -14   2  13 3.12006 3.59283   2
 -13   2  13 8.81876 3.39301  -1
 -13   2  13 8.81876 3.39301   2
 -12   2  13 5.60255 3.19441  -1
 -12   2  13 5.60255 3.19441   2
 -11   2  13 9.89727 2.84380  -1
 -11   2  13 9.89727 2.84380   2
 -10   2  13 14.5450 2.68300  -1
 -10   2  13 14.5450 2.68300   2
  -9   2  13 13.0542 2.01430  -1
  -9   2  13 13.0542 2.01430   2
  -8   2  13 26.4692 2.46869  -1
  -8   2  13 26.4692 2.46869   2
  -7   2  13 43.7491 2.64998  -1
  -7   2  13 43.7491 2.64998   2
  -6   2  13 0.06057 1.44051   2
  -5   2  13 2.03958 2.30070   2
  -4   2  13 -1.3156 2.32394   2
  -2   2  13 37.8129 6.42862  -1
  -2   3  13 37.8129 6.42862   2
  -1   2  13 17.4424 6.78569  -1
  -1   3  13 17.4424 6.78569   2
   2   2  13 4.06669 3.94883   2
   3   2  13 1.28197 4.07550   2
   4   2  13 2.59015 4.45637   2
   5   2  13 6.51746 4.85109   2
   6   2  13 12.6089 5.13888   2
 -15   3  13 -4.5117 4.96398  -1
 -15   2  13 -4.5117 4.96398   2
 -15   3  13 3.28432 4.12681  -1
 -15   3  13 3.28432 4.12681   2
 -14   3  13 1.82725 3.93086  -1
 -14   3  13 1.82725 3.93086   2
 -14   3  13 -2.0077 4.30957  -1
 -14   2  13 -2.0077 4.30957   2
 -13   3  13 3.69479 3.38320  -1
 -13   3  13 3.69479 3.38320   2
 -12   3  13 -1.2654 1.27099   2
 -11   3  13 2.50815 2.46380  -1
 -11   3  13 2.50815 2.46380   2
 -10   3  13 -2.0697 2.17999  -1
 -10   3  13 -2.0697 2.17999   2
  -9   3  13 1.00574 1.86754  -1
  -9   3  13 1.00574 1.86754   2
  -8   3  13 -1.3869 2.18679  -1
  -8   3  13 -1.3869 2.18679   2
  -7   3  13 -5.7914 3.04353  -1
  -7   3  13 -5.7914 3.04353   2
  -6   3  13 1.07613 1.52293   2
  -5   3  13 2.51899 2.44230   2
   1   3  13 9.51436 4.25180   2
   2   3  13 -1.3012 4.01692   2
   3   3  13 3.81763 4.24066   2
   4   3  13 7.77265 4.66633   2
   5   3  13 10.4102 4.98529   2
 -15   4  13 -1.0570 2.87570  -1
 -15   3  13 -1.0570 2.87570   2
 -15   4  13 -1.6436 4.46129  -1
 -15   4  13 -1.6436 4.46129   2
 -14   4  13 0.07166 4.27723  -1
 -14   3  13 0.07166 4.27723   2
 -13   4  13 1.54546 1.51484   2
 -12   4  13 1.58398 1.37900   2
 -11   4  13 3.39481 2.69378  -1
 -11   4  13 3.39481 2.69378   2
 -10   4  13 -2.0207 2.38499  -1
 -10   4  13 -2.0207 2.38499   2
  -9   4  13 3.42417 2.96002  -1
  -9   4  13 3.42417 2.96002   2
  -8   4  13 4.94621 2.62167  -1
  -8   4  13 4.94621 2.62167   2
  -7   4  13 -7.7631 6.91089  -1
  -7   4  13 -7.7631 6.91089   2
  -6   4  13 3.28437 2.46774   2
  -5   4  13 27.9960 5.19805   2
  -4   4  13 4.37275 2.73053   2
  -3   4  13 1.48186 2.97638   2
  -2   4  13 0.75911 3.13577   2
  -1   4  13 4.07309 3.60461   2
   0   4  13 4.68101 3.90985   2
   1   4  13 -3.8008 3.80235   2
   2   4  13 -1.8436 4.16953   2
   3   4  13 7.37584 4.76553   2
   4   4  13 7.74874 4.95521   2
   5   4  13 4.56887 4.95916   2
 -15   5  13 -1.7980 2.85820  -1
 -15   4  13 -1.7980 2.85820   2
 -14   5  13 1.62415 2.15127   2
 -14   5  13 -5.8704 5.57244  -1
 -14   4  13 -5.8704 5.57244   2
 -13   5  13 0.83221 4.14640  -1
 -13   5  13 0.83221 4.14640   2
 -12   5  13 20.6473 3.01557  -1
 -12   5  13 20.6473 3.01557   2
 -11   5  13 -1.9098 2.59378  -1
 -11   5  13 -1.9098 2.59378   2
 -10   5  13 -1.5690 2.33400  -1
 -10   5  13 -1.5690 2.33400   2
  -9   5  13 2.80559 2.55244  -1
  -9   5  13 2.80559 2.55244   2
  -8   5  13 -1.0350 3.41902  -1
  -8   5  13 -1.0350 3.41902   2
  -7   5  13 0.80760 2.38346   2
  -6   5  13 7.64198 2.61651   2
  -5   5  13 2.85443 2.74637   2
  -4   5  13 2.37894 2.91341   2
  -3   5  13 -2.5163 3.13199   2
  -2   5  13 3.81588 3.57009   2
  -1   5  13 14.7756 4.02476   2
   0   5  13 -1.0600 3.81941   2
   1   5  13 1.44753 4.16416   2
   2   5  13 0.66538 4.32583   2
   3   5  13 2.94058 4.70918   2
   4   5  13 5.05873 4.96606   2
 -15   6  13 2.29010 1.96785   2
 -15   6  13 2.31401 6.34394  -1
 -15   5  13 2.31401 6.34394   2
 -14   6  13 -1.1314 2.25866   2
 -13   6  13 2.17316 4.66174  -1
 -13   6  13 2.17316 4.66174   2
 -12   6  13 1.01388 3.06466  -1
 -12   6  13 1.01388 3.06466   2
 -11   6  13 -4.6846 2.86894  -1
 -11   6  13 -4.6846 2.86894   2
 -10   6  13 -3.6648 2.72739  -1
 -10   6  13 -3.6648 2.72739   2
  -9   6  13 -6.4714 3.57120  -1
  -9   6  13 -6.4714 3.57120   2
  -8   6  13 11.4559 8.37731  -1
  -8   6  13 11.4559 8.37731   2
  -7   6  13 0.11623 2.56661   2
  -6   6  13 -1.2291 2.64830   2
  -5   6  13 -1.7370 2.87811   2
  -4   6  13 -1.2142 3.19468   2
  -3   6  13 1.64770 3.57464   2
  -3   6  13 -6.3981 10.8109  -1
  -4   7  13 -6.3981 10.8109   2
  -2   6  13 2.35431 3.79552   2
  -1   6  13 0.96364 3.98047   2
   0   6  13 -0.2159 4.16040   2
   1   6  13 4.11992 4.41402   2
   2   6  13 4.68247 4.74573   2
   3   6  13 6.84171 5.10850   2
   4   6  13 5.85515 5.20094   2
 -15   7  13 -1.4981 7.21818  -1
 -15   7  13 -1.4981 7.21818   2
 -14   7  13 7.48177 6.36616  -1
 -14   7  13 7.48177 6.36616   2
 -13   7  13 1.16846 5.63492  -1
 -13   7  13 1.16846 5.63492   2
 -12   7  13 4.34629 4.77129  -1
 -12   7  13 4.34629 4.77129   2
 -11   7  13 -0.1928 4.37840  -1
 -11   7  13 -0.1928 4.37840   2
 -10   7  13 2.42862 4.47355  -1
 -10   7  13 2.42862 4.47355   2
  -9   7  13 -1.8688 1.93022   2
  -8   7  13 -0.6193 2.52101   2
  -7   7  13 1.57398 2.78139   2
  -6   7  13 1.70644 3.11764   2
  -5   7  13 -1.8341 3.23457   2
  -4   7  13 -1.1581 11.9893  -1
  -5   8  13 -1.1581 11.9893   2
  -3   7  13 -0.4397 3.77013   2
  -2   7  13 -1.6240 4.03180   2
  -1   7  13 1.48916 4.24329   2
   0   7  13 4.64057 4.58679   2
   1   7  13 -3.3012 4.57514   2
   2   7  13 0.44879 4.72018   2
   3   7  13 0.14551 5.09941   2
 -14   8  13 10.1838 7.09586  -1
 -14   8  13 10.1838 7.09586   2
 -13   8  13 12.0581 6.25157  -1
 -13   8  13 12.0581 6.25157   2
 -12   8  13 8.44286 5.44994  -1
 -12   8  13 8.44286 5.44994   2
 -11   8  13 8.29934 4.98461  -1
 -11   8  13 8.29934 4.98461   2
 -10   8  13 5.48152 2.42911   2
  -9   8  13 0.93629 2.16718   2
  -8   8  13 -1.9380 2.92919   2
  -7   8  13 -3.1653 3.08704   2
  -6   8  13 -0.0983 3.63725   2
  -4   8  13 1.30884 4.15028   2
  -3   8  13 1.01395 4.37528   2
  -2   8  13 -1.8174 4.46346   2
  -1   8  13 0.56032 4.60964   2
   0   8  13 -1.6768 4.75029   2
   1   8  13 -0.0646 5.00343   2
   2   8  13 3.16783 5.17847   2
 -13   9  13 12.4205 7.01415  -1
 -13   9  13 12.4205 7.01415   2
 -12   9  13 5.75661 3.90642   2
 -11   9  13 5.53084 3.42116   2
  -9   9  13 1.22456 11.2613  -1
 -10   9  13 1.22456 11.2613   2
  -9   9  13 4.70223 2.41171   2
  -8   9  13 0.39102 3.49682   2
  -7   9  13 -0.7915 3.90019   2
  -6   9  13 -1.4055 4.14200   2
  -5   9  13 -1.0260 4.42447   2
  -4   9  13 -2.2870 4.67180   2
  -3   9  13 -0.8535 4.89723   2
  -2   9  13 1.20974 4.88675   2
  -1   9  13 -0.4152 5.11882   2
   0   9  13 -3.3920 5.07435   2
   1   9  13 0.46014 5.27288   2
 -13  10  13 9.61586 4.58550   2
 -11  10  13 -4.7804 8.14864  -1
 -12  10  13 -4.7804 8.14864   2
 -10  10  13 8.57377 6.45473  -1
 -11  10  13 8.57377 6.45473   2
  -9  10  13 4.11287 2.99798   2
  -9  10  13 3.73950 12.1526  -1
 -10  10  13 3.73950 12.1526   2
  -8  10  13 8.44467 4.52109   2
  -7  10  13 5.33103 4.67460   2
  -6  10  13 2.74320 4.85327   2
  -5  10  13 0.64806 5.01828   2
  -5  10  13 37.0390 14.7635  -1
  -6  11  12 37.0390 14.7635   2
  -4  10  13 -0.5878 5.26236   2
  -4  10  13 24.4544 15.2971  -1
  -5  11  12 24.4544 15.2971   2
  -3  10  13 2.57414 5.45601   2
  -2  10  13 0.73717 5.55115   2
  -1  10  13 0.16654 5.46511   2
   0  10  13 0.38906 5.75486   2
 -10  11  13 24.9955 6.22000  -1
 -11  11  13 24.9955 6.22000   2
  -9  11  13 14.6953 3.33207   2
  -9  11  13 19.8270 13.1249  -1
 -10  11  13 19.8270 13.1249   2
  -8  11  13 10.9249 5.09082   2
  -6  11  13 47.1692 15.4097  -1
  -7  12  12 47.1692 15.4097   2
  -5  11  13 26.0886 15.2749  -1
  -6  12  12 26.0886 15.2749   2
  -4  11  13 -0.3772 5.68718   2
  -4  11  13 1.84187 15.7830  -1
  -5  12  12 1.84187 15.7830   2
  -3  11  13 -0.2994 5.80864   2
  -3  11  13 4.36081 11.1905  -1
  -4  12  12 4.36081 11.1905   2
  -2  11  13 3.77951 6.07828   2
  -2  11  13 19.0253 15.8266  -1
  -3  12  12 19.0253 15.8266   2
  -9  12  13 8.12131 7.33441   2
  -6  12  13 48.9685 16.5678  -1
  -7  13  12 48.9685 16.5678   2
  -5  12  13 3.32855 6.06269   2
  -5  12  13 20.7151 15.9125  -1
  -6  13  12 20.7151 15.9125   2
  -5 -12  14 -4.2273 7.40209   2
  -4 -12  14 -1.7247 4.84107   2
  -3 -12  14 -0.7026 4.71243   2
  -2 -12  14 0.27578 4.94077   2
  -1 -12  14 -2.7653 5.13254   2
   0 -12  14 -1.1755 5.46604   2
  -7 -11  14 -1.5397 6.78536   2
  -6 -11  14 4.43755 7.06360   2
  -5 -11  14 2.90422 7.06997   2
  -4 -11  14 0.08452 4.25988   2
  -3 -11  14 0.85772 4.62615   2
  -2 -11  14 2.68117 4.94898   2
  -1 -11  14 -0.1535 5.04319   2
   0 -11  14 1.36087 5.17722   2
   0 -11  14 -4.0937 14.5671  -1
   1 -10  14 -4.0937 14.5671   2
   1 -11  14 -4.8911 10.1198  -1
   2 -10  14 -4.8911 10.1198   2
   1 -11  14 3.37433 5.24990   2
   2 -11  14 0.60334 5.41340   2
   2 -11  14 -3.6300 14.0958  -1
   3 -10  14 -3.6300 14.0958   2
  -7 -10  14 3.04324 6.33491   2
  -6 -10  14 -1.1883 6.35966   2
  -5 -10  14 -2.0272 3.79167   2
  -4 -10  14 -2.4248 4.12001   2
  -3 -10  14 -1.3144 4.38789   2
  -2 -10  14 -1.0749 4.50010   2
  -1 -10  14 -0.8210 4.65245   2
  -1 -10  14 -3.1243 9.23470  -1
   0  -9  14 -3.1243 9.23470   2
   0 -10  14 -2.9031 9.40277  -1
   1  -9  14 -2.9031 9.40277   2
   0 -10  14 -0.1876 4.80825   2
   1 -10  14 -5.5367 9.81718  -1
   2  -9  14 -5.5367 9.81718   2
   2 -10  14 -4.2899 10.6535  -1
   3  -9  14 -4.2899 10.6535   2
   3 -10  14 -3.7721 11.0378  -1
   4  -9  14 -3.7721 11.0378   2
 -10  -9  14 4.64679 3.52437   2
  -8  -9  14 0.32911 5.66972   2
  -7  -9  14 2.00646 5.90478   2
  -6  -9  14 -0.4433 5.93982   2
  -6  -9  14 -3.3843 9.74787  -1
  -5  -9  14 -3.3843 9.74787   2
  -4  -9  14 -0.6238 3.89680   2
  -3  -9  14 -0.5673 4.12699   2
  -2  -9  14 1.67432 8.77066  -1
  -1  -8  14 1.67432 8.77066   2
  -2  -9  14 2.82896 4.34186   2
  -1  -9  14 2.81291 8.77639  -1
   0  -8  14 2.81291 8.77639   2
  -1  -9  14 -1.1264 4.32132   2
   0  -9  14 -6.2660 12.9098  -1
   1  -8  14 -6.2660 12.9098   2
   1  -9  14 -0.6374 9.72871  -1
   2  -8  14 -0.6374 9.72871   2
   2  -9  14 2.40964 10.1634  -1
   3  -8  14 2.40964 10.1634   2
   3  -9  14 -5.6047 10.7509  -1
   4  -8  14 -5.6047 10.7509   2
 -11  -8  14 -1.2100 3.38215   2
 -10  -8  14 -0.7427 3.06350   2
  -9  -8  14 -2.0965 2.62924   2
  -8  -8  14 0.47528 5.30502   2
  -7  -8  14 4.85946 5.57429   2
  -6  -8  14 -5.5091 6.92853  -1
  -5  -8  14 -5.5091 6.92853   2
  -6  -8  14 -4.4218 5.25937   2
  -4  -8  14 -3.6937 3.45536   2
  -3  -8  14 -1.3351 3.82004   2
  -3  -8  14 -9.3808 11.8490  -1
  -2  -7  14 -9.3808 11.8490   2
  -2  -8  14 -6.3666 8.49610  -1
  -1  -7  14 -6.3666 8.49610   2
  -2  -8  14 -2.7248 3.97602   2
  -1  -8  14 -4.4769 8.58326  -1
   0  -7  14 -4.4769 8.58326   2
   0  -8  14 -2.0394 7.09938  -1
   1  -7  14 -2.0394 7.09938   2
   1  -8  14 -6.5823 9.14929  -1
   2  -7  14 -6.5823 9.14929   2
   2  -8  14 -0.0760 9.91014  -1
   3  -7  14 -0.0760 9.91014   2
   3  -8  14 4.03250 10.3967  -1
   4  -7  14 4.03250 10.3967   2
 -12  -7  14 0.17139 2.11817   2
 -11  -7  14 1.93896 1.94582   2
 -10  -7  14 3.08528 6.29431  -1
  -9  -7  14 3.08528 6.29431   2
 -10  -7  14 3.24609 2.96566   2
  -8  -7  14 10.8362 5.34571   2
  -8  -7  14 15.3316 10.4534  -1
  -7  -7  14 15.3316 10.4534   2
  -7  -7  14 -7.0517 10.7348  -1
  -6  -7  14 -7.0517 10.7348   2
  -6  -7  14 -7.7976 6.04612  -1
  -5  -7  14 -7.7976 6.04612   2
  -5  -7  14 -3.3984 8.40778  -1
  -4  -7  14 -3.3984 8.40778   2
  -3  -7  14 -0.2594 3.52207   2
  -3  -7  14 0.77196 7.69954  -1
  -2  -6  14 0.77196 7.69954   2
  -2  -7  14 -1.7233 7.78203  -1
  -1  -6  14 -1.7233 7.78203   2
  -1  -7  14 5.33659 8.22881  -1
   0  -6  14 5.33659 8.22881   2
   0  -7  14 0.94041 8.15217  -1
   1  -6  14 0.94041 8.15217   2
   1  -7  14 4.20441 8.84741  -1
   2  -6  14 4.20441 8.84741   2
   2  -7  14 -4.3981 12.5098  -1
   3  -6  14 -4.3981 12.5098   2
   5  -7  14 2.00949 5.20319   2
   5  -7  14 -16.965 10.8657  -1
   5  -5  14 -16.965 10.8657   2
 -12  -6  14 5.00676 2.08924   2
 -11  -6  14 2.42971 1.85070   2
 -11  -6  14 9.24906 6.97130  -1
 -10  -6  14 9.24906 6.97130   2
 -10  -6  14 22.6778 6.03678  -1
  -9  -6  14 22.6778 6.03678   2
  -9  -6  14 33.5797 4.95185  -1
  -8  -6  14 33.5797 4.95185   2
  -8  -6  14 -11.087 8.99164  -1
  -7  -6  14 -11.087 8.99164   2
  -7  -6  14 -4.8987 4.31850  -1
  -6  -6  14 -4.8987 4.31850   2
  -6  -6  14 0.61555 5.91593  -1
  -5  -6  14 0.61555 5.91593   2
  -4  -6  14 3.86969 3.10512   2
  -3  -6  14 3.38738 3.36062   2
   4  -6  14 -16.368 16.4229  -1
   4  -4  14 -16.368 16.4229   2
   4  -6  14 0.26051 4.62484   2
   5  -6  14 -19.458 9.96079  -1
   5  -4  14 -19.458 9.96079   2
   5  -6  14 1.48344 4.90925   2
 -12  -5  14 17.4245 2.18734   2
 -11  -5  14 14.0030 1.99198   2
 -10  -5  14 30.9388 3.70142  -1
  -9  -5  14 30.9388 3.70142   2
 -10  -5  14 29.4837 2.24690   2
  -9  -5  14 46.6221 4.82790  -1
  -8  -5  14 46.6221 4.82790   2
  -8  -5  14 -2.3664 4.14047  -1
  -7  -5  14 -2.3664 4.14047   2
  -7  -5  14 -2.8899 6.96090  -1
  -6  -5  14 -2.8899 6.96090   2
  -5  -5  14 3.14827 2.76241   2
  -4  -5  14 6.61590 2.95157   2
  -3  -5  14 1.65986 3.09268   2
  -2  -5  14 1.02212 3.35820   2
  -1  -5  14 -1.4210 3.41511   2
   0  -5  14 -2.9493 3.63898   2
   1  -5  14 -0.2506 3.90774   2
   2  -5  14 -1.8530 4.03597   2
   3  -5  14 2.62912 4.41440   2
   4  -5  14 -0.0458 4.60194   2
   4  -5  14 0.18392 9.60718  -1
   4  -3  14 0.18392 9.60718   2
   5  -5  14 -3.5964 9.50303  -1
   5  -3  14 -3.5964 9.50303   2
 -14  -4  14 27.5608 8.30447  -1
 -13  -5  14 27.5608 8.30447   2
 -13  -4  14 18.5768 2.18976   2
 -12  -4  14 11.6610 1.92557   2
 -11  -4  14 18.2901 1.94788   2
 -11  -4  14 36.3907 4.90543  -1
 -10  -4  14 36.3907 4.90543   2
 -10  -4  14 51.1439 3.62855  -1
  -9  -4  14 51.1439 3.62855   2
  -9  -4  14 47.0498 3.71185  -1
  -8  -4  14 47.0498 3.71185   2
  -8  -4  14 1.93860 4.90802  -1
  -7  -4  14 1.93860 4.90802   2
  -6  -4  14 1.90312 2.59735   2
  -5  -4  14 -0.2685 2.64184   2
  -4  -4  14 9.85073 2.91438   2
  -3  -4  14 12.0395 3.11266   2
  -2  -4  14 15.2448 6.83474  -1
  -2  -3  14 15.2448 6.83474   2
  -2  -4  14 2.72727 3.29047   2
  -1  -4  14 4.28554 3.56066   2
  -1  -4  14 8.85277 7.04058  -1
  -1  -3  14 8.85277 7.04058   2
   0  -4  14 9.45638 7.85947  -1
   0  -3  14 9.45638 7.85947   2
   0  -4  14 0.43850 3.76227   2
   1  -4  14 3.77199 10.8309  -1
   1  -3  14 3.77199 10.8309   2
   1  -4  14 2.70524 4.00411   2
   2  -4  14 2.87034 4.17493   2
   3  -4  14 5.01586 4.57858   2
   3  -4  14 3.36485 15.3941  -1
   3  -2  14 3.36485 15.3941   2
   4  -4  14 7.11888 15.6939  -1
   4  -2  14 7.11888 15.6939   2
   5  -4  14 6.69913 9.45649  -1
   5  -2  14 6.69913 9.45649   2
 -14  -3  14 19.1498 2.14385   2
 -13  -3  14 13.5495 1.99605   2
 -12  -3  14 19.8199 1.99996   2
 -11  -3  14 27.6402 2.07570   2
 -10  -3  14 63.7357 4.87193  -1
  -9  -3  14 63.7357 4.87193   2
 -10  -3  14 46.2414 2.61964   2
  -9  -3  14 11.8366 3.35849  -1
  -8  -3  14 11.8366 3.35849   2
  -8  -3  14 1.83959 5.01413  -1
  -7  -3  14 1.83959 5.01413   2
  -6  -3  14 -1.9164 2.34208   2
  -5  -3  14 31.5067 5.36665   2
  -4  -3  14 47.9491 6.40134  -1
  -4  -2  14 47.9491 6.40134   2
  -3  -3  14 27.7454 6.12911  -1
  -3  -2  14 27.7454 6.12911   2
  -2  -3  14 14.9785 6.35972  -1
  -2  -2  14 14.9785 6.35972   2
  -1  -3  14 16.7611 6.93384  -1
  -1  -2  14 16.7611 6.93384   2
   0  -3  14 13.9613 7.66674  -1
   0  -2  14 13.9613 7.66674   2
   1  -3  14 7.34180 8.19565  -1
   1  -2  14 7.34180 8.19565   2
   2  -3  14 16.4804 9.34260  -1
   2  -2  14 16.4804 9.34260   2
   2  -3  14 3.15552 4.22611   2
   3  -3  14 7.70277 4.64825   2
   4  -3  14 6.79772 9.01929  -1
   4  -1  14 6.79772 9.01929   2
   5  -3  14 -0.9739 9.14983  -1
   5  -1  14 -0.9739 9.14983   2
 -14  -2  14 22.2302 1.49333   2
 -13  -2  14 7.43340 1.39664   2
 -12  -2  14 20.0680 1.94149   2
 -11  -2  14 16.7537 1.79263   2
 -10  -2  14 52.2858 2.56427   2
  -9  -2  14 27.9004 1.86364   2
  -9  -2  14 9.56921 4.28998  -1
  -8  -2  14 9.56921 4.28998   2
  -7  -2  14 8.46747 2.03983   2
  -6  -2  14 25.0364 2.55534   2
  -5  -2  14 85.1362 8.68199  -1
  -5  -1  14 85.1362 8.68199   2
  -4  -2  14 33.3969 5.88417  -1
  -4  -1  14 33.3969 5.88417   2
  -3  -2  14 12.0973 5.27968  -1
  -3  -1  14 12.0973 5.27968   2
  -2  -2  14 18.5354 5.66936  -1
  -2  -1  14 18.5354 5.66936   2
  -1  -2  14 11.8906 6.19617  -1
  -1  -1  14 11.8906 6.19617   2
   0  -2  14 10.6712 9.34638  -1
   0  -1  14 10.6712 9.34638   2
   1  -2  14 30.9379 10.3810  -1
   1  -1  14 30.9379 10.3810   2
   2  -2  14 45.7855 11.5596  -1
   2  -1  14 45.7855 11.5596   2
   4  -2  14 8.48549 14.8066  -1
   4   0  14 8.48549 14.8066   2
   5  -2  14 4.56587 15.5711  -1
   5   0  14 4.56587 15.5711   2
 -15  -1  14 18.0059 1.98894   2
 -14  -1  14 13.0614 1.36735   2
 -13  -1  14 9.19491 1.37345   2
 -12  -1  14 13.2470 1.85691   2
 -11  -1  14 17.9279 1.81073   2
 -10  -1  14 53.4899 5.37475  -1
 -10  -1  14 53.4899 5.37475   2
  -9  -1  14 40.2012 3.37434  -1
  -9  -1  14 40.2012 3.37434   2
  -8  -1  14 61.3174 3.96554  -1
  -8  -1  14 61.3174 3.96554   2
  -7  -1  14 51.7790 5.90439  -1
  -7  -1  14 51.7790 5.90439   2
  -6  -1  14 90.2650 3.96415   2
  -5  -1  14 13.8469 5.28256  -1
  -5   0  14 13.8469 5.28256   2
  -4  -1  14 11.7329 4.90102  -1
  -4   0  14 11.7329 4.90102   2
  -3  -1  14 20.4474 4.59273  -1
  -3   0  14 20.4474 4.59273   2
  -2  -1  14 18.2188 5.22872  -1
  -2   0  14 18.2188 5.22872   2
  -1  -1  14 17.4018 6.01291  -1
  -1   0  14 17.4018 6.01291   2
   0  -1  14 1.02552 6.67997  -1
   0   0  14 1.02552 6.67997   2
   1  -1  14 57.0288 10.2742  -1
   1   0  14 57.0288 10.2742   2
   2  -1  14 36.8493 11.1971  -1
   2   0  14 36.8493 11.1971   2
   3  -1  14 10.8019 4.79829   2
 -15   0  14 50.4009 5.92560  -1
 -15   0  14 50.4009 5.92560   2
 -14   0  14 15.2028 1.59981   2
 -13   0  14 24.8682 1.64168   2
 -12   0  14 19.1215 5.69384  -1
 -12   0  14 19.1215 5.69384   2
 -11   0  14 33.3337 5.35997  -1
 -11   0  14 33.3337 5.35997   2
 -10   0  14 48.4669 3.65963  -1
 -10   0  14 48.4669 3.65963   2
  -9   0  14 76.9311 3.39602  -1
  -9   0  14 76.9311 3.39602   2
  -8   0  14 100.114 3.72837  -1
  -8   0  14 100.114 3.72837   2
  -7   0  14 82.8667 5.91907  -1
  -7   0  14 82.8667 5.91907   2
  -6   0  14 86.3373 8.35723  -1
  -6   1  14 86.3373 8.35723   2
  -5   0  14 -1.8152 6.50957  -1
  -5   1  14 -1.8152 6.50957   2
  -4   0  14 13.3168 5.17653  -1
  -4   1  14 13.3168 5.17653   2
  -3   0  14 18.5809 4.85943  -1
  -3   1  14 18.5809 4.85943   2
  -2   0  14 11.8985 5.31308  -1
  -2   1  14 11.8985 5.31308   2
  -1   0  14 10.9560 6.08868  -1
  -1   1  14 10.9560 6.08868   2
   0   0  14 -2.4515 8.61469  -1
   0   1  14 -2.4515 8.61469   2
   1   0  14 26.3162 10.2359  -1
   1   1  14 26.3162 10.2359   2
   3   0  14 7.07127 4.67174   2
 -15   1  14 36.4951 5.59676  -1
 -15   1  14 36.4951 5.59676   2
 -14   1  14 18.6823 1.73670   2
 -13   1  14 31.1812 2.25140   2
 -12   1  14 14.6375 5.33187  -1
 -12   1  14 14.6375 5.33187   2
 -11   1  14 47.5174 3.62404  -1
 -11   1  14 47.5174 3.62404   2
 -10   1  14 63.1239 3.52657  -1
 -10   1  14 63.1239 3.52657   2
  -9   1  14 100.847 3.53403  -1
  -9   1  14 100.847 3.53403   2
  -8   1  14 95.1241 3.60590  -1
  -8   1  14 95.1241 3.60590   2
  -7   1  14 114.291 6.05408  -1
  -7   1  14 114.291 6.05408   2
  -5   1  14 -0.4003 6.84249  -1
  -5   2  14 -0.4003 6.84249   2
  -4   1  14 22.7104 5.50956  -1
  -4   2  14 22.7104 5.50956   2
  -3   1  14 18.1593 5.68716  -1
  -3   2  14 18.1593 5.68716   2
  -2   1  14 8.62439 6.23536  -1
  -2   2  14 8.62439 6.23536   2
  -1   1  14 12.6063 6.96240  -1
  -1   2  14 12.6063 6.96240   2
   0   1  14 30.8130 10.0106  -1
   0   2  14 30.8130 10.0106   2
   2   1  14 13.4415 4.73636   2
   3   1  14 6.79855 4.73440   2
   4   1  14 -1.9618 4.71680   2
   5   1  14 6.18905 5.07307   2
 -15   2  14 14.7512 5.07267  -1
 -15   2  14 14.7512 5.07267   2
 -14   2  14 20.6842 1.65208   2
 -13   2  14 22.1219 2.09267   2
 -12   2  14 28.5904 3.44028  -1
 -12   2  14 28.5904 3.44028   2
 -11   2  14 29.1158 3.11185  -1
 -11   2  14 29.1158 3.11185   2
 -10   2  14 58.6371 3.19642  -1
 -10   2  14 58.6371 3.19642   2
  -9   2  14 62.3360 3.00103  -1
  -9   2  14 62.3360 3.00103   2
  -8   2  14 77.9108 4.26042  -1
  -8   2  14 77.9108 4.26042   2
  -7   2  14 97.6310 9.11434  -1
  -7   2  14 97.6310 9.11434   2
  -6   2  14 5.89327 2.77247   2
  -3   2  14 56.1176 7.02774  -1
  -3   3  14 56.1176 7.02774   2
  -2   2  14 41.4590 7.59658  -1
  -2   3  14 41.4590 7.59658   2
  -1   2  14 15.8133 7.73601  -1
  -1   3  14 15.8133 7.73601   2
   1   2  14 8.96802 4.32818   2
   2   2  14 10.7641 4.71022   2
   3   2  14 3.78624 4.72284   2
   4   2  14 5.30632 5.01305   2
 -14   3  14 8.00381 1.93923   2
 -13   3  14 4.39992 1.69528   2
 -12   3  14 11.1379 3.00872  -1
 -12   3  14 11.1379 3.00872   2
 -11   3  14 36.9042 2.90116  -1
 -11   3  14 36.9042 2.90116   2
 -10   3  14 69.0403 3.01780  -1
 -10   3  14 69.0403 3.01780   2
  -9   3  14 92.9457 3.18039  -1
  -9   3  14 92.9457 3.18039   2
  -8   3  14 97.2544 4.65014  -1
  -8   3  14 97.2544 4.65014   2
  -7   3  14 46.7750 9.19876  -1
  -7   3  14 46.7750 9.19876   2
  -6   3  14 26.8538 5.34846   2
  -2   3  14 19.2892 11.4579  -1
  -2   4  14 19.2892 11.4579   2
   0   3  14 10.6083 4.50079   2
   1   3  14 7.26683 4.45398   2
   2   3  14 4.86443 4.64330   2
   3   3  14 1.98760 4.74020   2
   4   3  14 6.38079 5.06668   2
 -14   4  14 16.5362 2.15756   2
 -13   4  14 38.5613 2.49415   2
 -12   4  14 80.3358 3.82056  -1
 -12   4  14 80.3358 3.82056   2
 -11   4  14 103.616 3.79015  -1
 -11   4  14 103.616 3.79015   2
 -10   4  14 35.9882 2.93989  -1
 -10   4  14 35.9882 2.93989   2
  -9   4  14 64.2898 4.25295  -1
  -9   4  14 64.2898 4.25295   2
  -8   4  14 52.4849 4.42347  -1
  -8   4  14 52.4849 4.42347   2
  -7   4  14 10.0150 2.80955   2
  -3   4  14 47.1473 7.00515   2
  -1   4  14 3.42058 4.20762   2
   0   4  14 10.8454 4.59051   2
   1   4  14 9.29717 4.80243   2
   2   4  14 2.77724 4.81477   2
   3   4  14 3.83417 4.94748   2
 -15   5  14 6.38162 3.42463   2
 -14   5  14 4.82987 1.99153   2
 -13   5  14 24.7154 4.06801  -1
 -13   5  14 24.7154 4.06801   2
 -12   5  14 23.8231 3.66200  -1
 -12   5  14 23.8231 3.66200   2
 -11   5  14 44.5020 3.20302  -1
 -11   5  14 44.5020 3.20302   2
 -10   5  14 7.26064 3.36638  -1
 -10   5  14 7.26064 3.36638   2
  -9   5  14 41.3357 4.07757  -1
  -9   5  14 41.3357 4.07757   2
  -8   5  14 41.1597 9.45353  -1
  -8   5  14 41.1597 9.45353   2
  -7   5  14 41.0604 6.24099   2
  -2   5  14 14.8398 4.38785   2
  -1   5  14 12.7056 4.57012   2
   0   5  14 5.45953 4.61643   2
   1   5  14 7.06670 4.93071   2
   2   5  14 1.68100 4.99631   2
   3   5  14 5.74440 5.44549   2
 -14   6  14 3.20026 2.00804   2
 -13   6  14 7.69514 3.78949  -1
 -13   6  14 7.69514 3.78949   2
 -12   6  14 24.4238 3.59859  -1
 -12   6  14 24.4238 3.59859   2
 -11   6  14 20.6727 4.52021  -1
 -11   6  14 20.6727 4.52021   2
 -10   6  14 11.7566 3.88918  -1
 -10   6  14 11.7566 3.88918   2
  -9   6  14 19.9622 9.68217  -1
  -9   6  14 19.9622 9.68217   2
  -8   6  14 8.22398 2.83855   2
  -7   6  14 35.2462 6.33058   2
  -6   6  14 48.0335 6.94542   2
  -5   6  14 7.84960 3.71110   2
  -4   6  14 43.7265 7.24820   2
  -3   6  14 16.2290 4.40777   2
  -2   6  14 8.01668 4.47366   2
  -1   6  14 6.79583 4.59139   2
   0   6  14 7.90124 4.85236   2
   1   6  14 5.08901 5.11758   2
   2   6  14 3.18867 5.25119   2
 -14   7  14 4.67030 6.70333  -1
 -14   7  14 4.67030 6.70333   2
 -13   7  14 4.26594 6.29868  -1
 -13   7  14 4.26594 6.29868   2
 -12   7  14 19.7535 5.81763  -1
 -12   7  14 19.7535 5.81763   2
 -11   7  14 6.93770 5.22782  -1
 -11   7  14 6.93770 5.22782   2
 -10   7  14 28.4499 5.71682   2
  -9   7  14 26.7671 5.79012   2
  -8   7  14 5.78912 2.94120   2
  -7   7  14 8.73287 3.29689   2
  -6   7  14 12.3892 3.80924   2
  -5   7  14 9.76511 4.10516   2
  -5   7  14 11.4086 11.3910  -1
  -6   8  14 11.4086 11.3910   2
  -4   7  14 25.6511 13.0207  -1
  -5   8  14 25.6511 13.0207   2
  -4   7  14 17.1582 4.50446   2
  -3   7  14 13.2750 13.4284  -1
  -4   8  14 13.2750 13.4284   2
  -3   7  14 8.23705 4.55025   2
  -2   7  14 4.18161 4.65954   2
  -1   7  14 4.49022 4.91097   2
   0   7  14 5.20086 5.04627   2
   1   7  14 4.56937 5.14633   2
 -13   8  14 3.67772 6.85446  -1
 -13   8  14 3.67772 6.85446   2
 -10   8  14 13.4921 5.51062   2
  -9   8  14 15.3998 5.90523   2
  -8   8  14 2.06634 3.35722   2
  -7   8  14 8.08186 3.71420   2
  -3   8  14 3.44277 4.72417   2
  -2   8  14 9.21522 5.06984   2
  -1   8  14 7.36591 5.26126   2
   0   8  14 7.11028 5.49432   2
 -12   9  14 -0.6222 3.78073   2
 -10   9  14 9.48895 5.91945   2
  -9   9  14 8.84891 6.25566   2
  -8   9  14 3.07296 3.82159   2
  -7   9  14 8.69396 4.25530   2
  -6   9  14 9.90128 4.80341   2
  -5   9  14 15.7234 5.18952   2
  -4   9  14 9.91340 5.12342   2
  -3   9  14 6.54814 5.23781   2
  -2   9  14 7.12657 5.42642   2
  -1   9  14 3.19947 5.43917   2
 -10  10  14 11.9871 6.61800   2
 -10  10  14 0.79999 12.1427  -1
 -11  10  14 0.79999 12.1427   2
  -9  10  14 11.9606 6.75714   2
  -8  10  14 9.55096 4.75930   2
  -7  10  14 18.4259 5.24024   2
  -6  10  14 15.4261 5.56073   2
  -6  10  14 20.0744 15.2055  -1
  -7  11  13 20.0744 15.2055   2
  -5  10  14 5.92679 16.3374  -1
  -6  11  13 5.92679 16.3374   2
  -5  10  14 8.03899 5.58847   2
  -4  10  14 -2.6930 5.36974   2
  -4  10  14 -9.8867 17.4791  -1
  -5  11  13 -9.8867 17.4791   2
  -3  10  14 0.05784 5.49686   2
  -9  11  14 7.05031 7.11784   2
  -8  11  14 -0.3058 6.93877   2
  -7  11  14 0.26460 5.41858   2
  -7  11  14 9.22326 15.1967  -1
  -8  12  13 9.22326 15.1967   2
  -6  11  14 8.35948 5.85683   2
  -6  11  14 12.5774 15.3999  -1
  -7  12  13 12.5774 15.3999   2
  -5  11  14 3.02507 6.06954   2
  -5  11  14 11.6547 16.3018  -1
  -6  12  13 11.6547 16.3018   2
  -5 -11  15 9.71189 8.02420   2
  -4 -11  15 7.47973 4.97753   2
  -3 -11  15 4.53825 5.22764   2
  -2 -11  15 1.93483 5.36072   2
  -1 -11  15 6.02820 5.66399   2
  -7 -10  15 2.86756 6.91782   2
  -6 -10  15 10.3148 7.22950   2
  -5 -10  15 5.66416 4.54835   2
  -4 -10  15 1.62038 4.82725   2
  -3 -10  15 1.90690 4.98107   2
  -2 -10  15 2.48431 5.08751   2
  -2 -10  15 7.46920 14.8794  -1
  -1  -9  15 7.46920 14.8794   2
  -1 -10  15 -1.4325 5.09774   2
  -1 -10  15 11.9416 10.2924  -1
   0  -9  15 11.9416 10.2924   2
   0 -10  15 17.1612 10.4820  -1
   1  -9  15 17.1612 10.4820   2
   0 -10  15 6.25688 5.42592   2
   1 -10  15 20.5039 11.2680  -1
   2  -9  15 20.5039 11.2680   2
   1 -10  15 -1.4034 5.38497   2
  -7  -9  15 1.25814 6.44627   2
  -6  -9  15 11.2120 7.08373   2
  -5  -9  15 3.36160 6.52856   2
  -4  -9  15 -0.3357 4.41228   2
  -3  -9  15 15.2016 9.93011  -1
  -2  -8  15 15.2016 9.93011   2
  -3  -9  15 2.74000 4.64000   2
  -2  -9  15 5.92480 4.91585   2
  -2  -9  15 24.1697 9.92367  -1
  -1  -8  15 24.1697 9.92367   2
  -1  -9  15 13.6784 9.70024  -1
   0  -8  15 13.6784 9.70024   2
   0  -9  15 23.0582 10.3174  -1
   1  -8  15 23.0582 10.3174   2
   1  -9  15 17.2815 10.8034  -1
   2  -8  15 17.2815 10.8034   2
   2  -9  15 11.9217 11.4593  -1
   3  -8  15 11.9217 11.4593   2
  -8  -8  15 7.38620 6.01984   2
  -7  -8  15 15.1805 14.9747  -1
  -6  -8  15 15.1805 14.9747   2
  -7  -8  15 4.12579 6.15211   2
  -6  -8  15 28.2848 10.7040  -1
  -5  -8  15 28.2848 10.7040   2
  -4  -8  15 2.18367 4.14602   2
  -4  -8  15 -3.0044 13.3665  -1
  -3  -7  15 -3.0044 13.3665   2
  -3  -8  15 9.42981 4.55840   2
  -3  -8  15 13.6403 9.31697  -1
  -2  -7  15 13.6403 9.31697   2
  -2  -8  15 29.2933 9.60617  -1
  -1  -7  15 29.2933 9.60617   2
  -1  -8  15 16.2567 9.17608  -1
   0  -7  15 16.2567 9.17608   2
   0  -8  15 12.4654 9.80680  -1
   1  -7  15 12.4654 9.80680   2
   1  -8  15 12.1091 10.4029  -1
   2  -7  15 12.1091 10.4029   2
   2  -8  15 8.03544 10.9712  -1
   3  -7  15 8.03544 10.9712   2
 -11  -7  15 7.03892 3.79725   2
  -8  -7  15 7.93154 11.5275  -1
  -7  -7  15 7.93154 11.5275   2
  -8  -7  15 4.36218 5.48011   2
  -7  -7  15 12.9732 12.5028  -1
  -6  -7  15 12.9732 12.5028   2
  -6  -7  15 16.1193 9.64155  -1
  -5  -7  15 16.1193 9.64155   2
  -4  -7  15 3.88756 3.92222   2
  -3  -7  15 3.44822 8.65299  -1
  -2  -6  15 3.44822 8.65299   2
  -2  -7  15 11.5611 8.93081  -1
  -1  -6  15 11.5611 8.93081   2
  -1  -7  15 16.9001 6.83901  -1
   0  -6  15 16.9001 6.83901   2
   0  -7  15 11.5077 9.50039  -1
   1  -6  15 11.5077 9.50039   2
   1  -7  15 7.71479 9.89633  -1
   2  -6  15 7.71479 9.89633   2
   2  -7  15 9.91040 13.9213  -1
   3  -6  15 9.91040 13.9213   2
 -12  -6  15 1.31487 2.23210   2
 -12  -6  15 -7.0236 8.69320  -1
 -11  -6  15 -7.0236 8.69320   2
 -11  -6  15 -8.8192 7.29368  -1
 -10  -6  15 -8.8192 7.29368   2
 -10  -6  15 3.94248 6.47751  -1
  -9  -6  15 3.94248 6.47751   2
  -9  -6  15 5.36987 10.8563  -1
  -8  -6  15 5.36987 10.8563   2
  -8  -6  15 7.43543 10.9333  -1
  -7  -6  15 7.43543 10.9333   2
  -7  -6  15 9.81924 11.2381  -1
  -6  -6  15 9.81924 11.2381   2
  -5  -6  15 1.96407 3.39875   2
  -4  -6  15 -2.1304 3.58284   2
  -3  -6  15 0.09867 3.89152   2
  -2  -6  15 6.94007 12.8644  -1
  -1  -5  15 6.94007 12.8644   2
   4  -6  15 2.86379 5.30564   2
   4  -6  15 4.38871 11.0010  -1
   4  -4  15 4.38871 11.0010   2
 -12  -5  15 -1.8657 2.00938   2
 -11  -5  15 0.16199 2.13103   2
 -11  -5  15 5.41999 6.98883  -1
 -10  -5  15 5.41999 6.98883   2
 -10  -5  15 4.46531 5.99705  -1
  -9  -5  15 4.46531 5.99705   2
  -9  -5  15 10.6876 10.3089  -1
  -8  -5  15 10.6876 10.3089   2
  -8  -5  15 14.5136 10.1923  -1
  -7  -5  15 14.5136 10.1923   2
  -6  -5  15 -0.2158 3.01446   2
  -5  -5  15 6.65186 5.28844   2
  -4  -5  15 3.11980 3.51794   2
  -3  -5  15 2.99525 3.79912   2
  -2  -5  15 1.45937 3.95262   2
   0  -5  15 14.5374 4.67787   2
   1  -5  15 7.07090 4.75677   2
   2  -5  15 4.37107 4.74447   2
   3  -5  15 3.25845 10.1407  -1
   3  -3  15 3.25845 10.1407   2
   3  -5  15 3.13933 4.93511   2
   4  -5  15 3.32936 5.16859   2
   4  -5  15 17.5661 10.2900  -1
   4  -3  15 17.5661 10.2900   2
 -13  -4  15 -0.8947 2.06376   2
 -12  -4  15 6.94020 5.29932  -1
 -11  -4  15 6.94020 5.29932   2
 -12  -4  15 -0.3071 1.88534   2
 -11  -4  15 11.0176 4.60272  -1
 -10  -4  15 11.0176 4.60272   2
 -10  -4  15 1.75154 5.69598  -1
  -9  -4  15 1.75154 5.69598   2
  -9  -4  15 -5.6741 5.38076  -1
  -8  -4  15 -5.6741 5.38076   2
  -7  -4  15 0.31500 4.53299   2
  -6  -4  15 0.28832 2.90152   2
  -5  -4  15 4.81877 3.07026   2
  -4  -4  15 0.94139 3.17762   2
  -3  -4  15 1.03547 3.45123   2
  -3  -4  15 5.03930 7.45808  -1
  -3  -3  15 5.03930 7.45808   2
  -2  -4  15 0.86284 7.71550  -1
  -2  -3  15 0.86284 7.71550   2
  -2  -4  15 0.28399 3.78487   2
  -1  -4  15 0.42992 3.94755   2
  -1  -4  15 5.72910 8.54326  -1
  -1  -3  15 5.72910 8.54326   2
   0  -4  15 11.0830 4.54426   2
   0  -4  15 19.6284 9.24764  -1
   0  -3  15 19.6284 9.24764   2
   1  -4  15 9.31252 4.69535   2
   2  -4  15 0.12629 4.71061   2
   3  -4  15 1.89009 4.89106   2
   3  -4  15 9.07611 16.3062  -1
   3  -2  15 9.07611 16.3062   2
   4  -4  15 20.2436 10.3678  -1
   4  -2  15 20.2436 10.3678   2
 -13  -3  15 -1.8259 1.93678   2
 -12  -3  15 -0.5303 1.79311   2
 -11  -3  15 2.84965 1.70081   2
 -11  -3  15 3.96702 4.20789  -1
 -10  -3  15 3.96702 4.20789   2
  -9  -3  15 -4.7777 5.11934  -1
  -8  -3  15 -4.7777 5.11934   2
  -7  -3  15 -2.1901 4.34060   2
  -6  -3  15 3.17129 2.74892   2
  -5  -3  15 24.8130 6.54306  -1
  -5  -2  15 24.8130 6.54306   2
  -5  -3  15 8.81459 3.05439   2
  -4  -3  15 4.09896 3.31070   2
  -4  -3  15 5.84435 6.71895  -1
  -4  -2  15 5.84435 6.71895   2
  -3  -3  15 8.26264 7.01647  -1
  -3  -2  15 8.26264 7.01647   2
  -2  -3  15 2.72755 7.17355  -1
  -2  -2  15 2.72755 7.17355   2
  -1  -3  15 2.28621 8.12127  -1
  -1  -2  15 2.28621 8.12127   2
   0  -3  15 0.27533 8.79240  -1
   0  -2  15 0.27533 8.79240   2
   1  -3  15 1.82442 4.47901   2
   1  -3  15 1.05420 12.5492  -1
   1  -2  15 1.05420 12.5492   2
   2  -3  15 -1.3115 4.62279   2
   2  -3  15 2.33592 13.5953  -1
   2  -2  15 2.33592 13.5953   2
   3  -3  15 12.3877 10.0780  -1
   3  -1  15 12.3877 10.0780   2
   4  -3  15 16.7656 10.1869  -1
   4  -1  15 16.7656 10.1869   2
 -14  -2  15 -4.5600 3.24687   2
 -13  -2  15 0.21079 1.89218   2
 -12  -2  15 1.87018 1.80429   2
 -11  -2  15 -1.1851 1.50524   2
 -10  -2  15 -0.9916 1.45853   2
  -9  -2  15 3.24542 1.99719   2
  -9  -2  15 -2.9759 5.32174  -1
  -8  -2  15 -2.9759 5.32174   2
  -7  -2  15 5.60181 4.49809   2
  -6  -2  15 17.0908 5.97079  -1
  -6  -1  15 17.0908 5.97079   2
  -6  -2  15 10.3070 2.89104   2
  -5  -2  15 24.1337 6.37471  -1
  -5  -1  15 24.1337 6.37471   2
  -4  -2  15 12.4346 6.23281  -1
  -4  -1  15 12.4346 6.23281   2
  -3  -2  15 0.60310 6.13452  -1
  -3  -1  15 0.60310 6.13452   2
  -2  -2  15 -0.8711 6.84647  -1
  -2  -1  15 -0.8711 6.84647   2
  -1  -2  15 5.72514 7.61380  -1
  -1  -1  15 5.72514 7.61380   2
   0  -2  15 -1.3412 8.50105  -1
   0  -1  15 -1.3412 8.50105   2
   1  -2  15 7.46648 12.0755  -1
   1  -1  15 7.46648 12.0755   2
   2  -2  15 10.9205 13.1565  -1
   2  -1  15 10.9205 13.1565   2
   3  -2  15 3.84499 15.3881  -1
   3   0  15 3.84499 15.3881   2
 -14  -1  15 3.80619 3.34416   2
 -13  -1  15 2.95160 1.95674   2
 -12  -1  15 1.97570 1.76712   2
 -11  -1  15 -0.5748 1.52757   2
 -10  -1  15 0.96436 5.38380  -1
 -10  -1  15 0.96436 5.38380   2
  -9  -1  15 -2.8832 5.24685  -1
  -9  -1  15 -2.8832 5.24685   2
  -8  -1  15 1.65164 5.43355  -1
  -8  -1  15 1.65164 5.43355   2
  -7  -1  15 3.86705 4.32165   2
  -6  -1  15 2.40835 7.14396  -1
  -6   0  15 2.40835 7.14396   2
  -5  -1  15 0.14307 5.38311  -1
  -5   0  15 0.14307 5.38311   2
  -4  -1  15 -3.5068 8.70706  -1
  -4   0  15 -3.5068 8.70706   2
  -3  -1  15 -1.9671 5.41842  -1
  -3   0  15 -1.9671 5.41842   2
  -2  -1  15 7.82453 8.61425  -1
  -2   0  15 7.82453 8.61425   2
  -1  -1  15 -5.6124 6.98780  -1
  -1   0  15 -5.6124 6.98780   2
   0  -1  15 7.38268 10.2228  -1
   0   0  15 7.38268 10.2228   2
   1  -1  15 5.81516 11.4095  -1
   1   0  15 5.81516 11.4095   2
 -14   0  15 2.35906 2.04805   2
 -13   0  15 1.51725 1.87732   2
 -12   0  15 -7.2908 6.39018  -1
 -12   0  15 -7.2908 6.39018   2
 -11   0  15 3.21589 5.60833  -1
 -11   0  15 3.21589 5.60833   2
 -10   0  15 1.43231 3.38380  -1
 -10   0  15 1.43231 3.38380   2
  -9   0  15 3.30625 4.13601  -1
  -9   0  15 3.30625 4.13601   2
  -8   0  15 14.1499 4.33891  -1
  -8   0  15 14.1499 4.33891   2
  -7   0  15 1.75089 2.69785   2
  -6   0  15 -5.7309 7.03366  -1
  -6   1  15 -5.7309 7.03366   2
  -5   0  15 -2.1514 5.33216  -1
  -5   1  15 -2.1514 5.33216   2
  -4   0  15 3.38665 5.52366  -1
  -4   1  15 3.38665 5.52366   2
  -3   0  15 -0.3920 5.55552  -1
  -3   1  15 -0.3920 5.55552   2
  -2   0  15 8.90661 6.46528  -1
  -2   1  15 8.90661 6.46528   2
  -1   0  15 4.37954 9.27952  -1
  -1   1  15 4.37954 9.27952   2
   0   0  15 6.68329 10.4006  -1
   0   1  15 6.68329 10.4006   2
   2   0  15 0.74988 4.70846   2
   4   0  15 -2.3083 6.05203   2
 -14   1  15 5.22451 2.09441   2
 -13   1  15 14.3047 6.82416  -1
 -13   1  15 14.3047 6.82416   2
 -12   1  15 1.53264 3.87008  -1
 -12   1  15 1.53264 3.87008   2
 -11   1  15 11.5722 3.42317  -1
 -11   1  15 11.5722 3.42317   2
 -10   1  15 9.32310 3.19884  -1
 -10   1  15 9.32310 3.19884   2
  -9   1  15 7.90385 3.90615  -1
  -9   1  15 7.90385 3.90615   2
  -8   1  15 16.9148 7.97915  -1
  -8   1  15 16.9148 7.97915   2
  -7   1  15 5.76603 2.90793   2
  -7   1  15 16.2579 7.52289  -1
  -7   2  15 16.2579 7.52289   2
  -6   1  15 -6.6785 7.30616  -1
  -6   2  15 -6.6785 7.30616   2
  -5   1  15 2.36727 5.64433  -1
  -5   2  15 2.36727 5.64433   2
  -4   1  15 1.02366 5.87100  -1
  -4   2  15 1.02366 5.87100   2
  -3   1  15 7.87150 6.50791  -1
  -3   2  15 7.87150 6.50791   2
  -2   1  15 7.24483 7.33446  -1
  -2   2  15 7.24483 7.33446   2
  -1   1  15 2.43409 9.90630  -1
  -1   2  15 2.43409 9.90630   2
   0   1  15 3.80546 10.4655  -1
   0   2  15 3.80546 10.4655   2
   1   1  15 2.05218 4.61154   2
   2   1  15 2.08082 4.83704   2
   3   1  15 -0.7883 4.92150   2
 -14   2  15 0.91746 1.99703   2
 -13   2  15 6.88548 6.54126  -1
 -13   2  15 6.88548 6.54126   2
 -12   2  15 1.79368 3.57368  -1
 -12   2  15 1.79368 3.57368   2
 -11   2  15 8.41035 3.06599  -1
 -11   2  15 8.41035 3.06599   2
 -10   2  15 5.18356 3.91992  -1
 -10   2  15 5.18356 3.91992   2
  -9   2  15 8.84588 3.59832  -1
  -9   2  15 8.84588 3.59832   2
  -8   2  15 13.7745 8.50736  -1
  -8   2  15 13.7745 8.50736   2
  -3   2  15 4.73970 10.8832  -1
  -3   3  15 4.73970 10.8832   2
  -2   2  15 5.62043 8.26267  -1
  -2   3  15 5.62043 8.26267   2
  -1   2  15 -5.3624 11.6916  -1
  -1   3  15 -5.3624 11.6916   2
   1   2  15 0.16923 4.69690   2
   2   2  15 0.26349 4.80426   2
   3   2  15 -2.0443 4.99618   2
 -14   3  15 3.37193 2.04462   2
 -13   3  15 7.72718 3.82977  -1
 -13   3  15 7.72718 3.82977   2
 -12   3  15 19.8349 3.26604  -1
 -12   3  15 19.8349 3.26604   2
 -11   3  15 43.3673 3.02248  -1
 -11   3  15 43.3673 3.02248   2
 -10   3  15 8.67534 3.56470  -1
 -10   3  15 8.67534 3.56470   2
  -9   3  15 14.0197 3.78662  -1
  -9   3  15 14.0197 3.78662   2
  -8   3  15 7.21808 9.33598  -1
  -8   3  15 7.21808 9.33598   2
  -7   3  15 13.4178 3.14734   2
  -6   3  15 8.38349 3.16978   2
  -5   3  15 3.45567 3.46807   2
  -4   3  15 2.00244 3.72213   2
  -2   3  15 13.8421 12.4823  -1
  -2   4  15 13.8421 12.4823   2
   0   3  15 -1.2575 4.41726   2
   1   3  15 -1.9035 4.59469   2
   2   3  15 1.86823 5.03023   2
   3   3  15 0.57298 6.37940   2
 -14   4  15 7.70375 2.24927   2
 -13   4  15 8.31466 3.81658  -1
 -13   4  15 8.31466 3.81658   2
 -12   4  15 15.7184 3.36566  -1
 -12   4  15 15.7184 3.36566   2
 -11   4  15 41.5518 4.80061  -1
 -11   4  15 41.5518 4.80061   2
 -10   4  15 8.61516 4.19878  -1
 -10   4  15 8.61516 4.19878   2
  -9   4  15 17.7258 8.80846  -1
  -9   4  15 17.7258 8.80846   2
  -8   4  15 11.6934 10.0318  -1
  -8   4  15 11.6934 10.0318   2
  -7   4  15 5.91011 3.08222   2
  -6   4  15 4.62127 3.38279   2
  -5   4  15 4.85997 3.73406   2
  -4   4  15 5.51647 4.03528   2
  -3   4  15 7.53684 4.38861   2
  -1   4  15 0.12520 4.59712   2
   0   4  15 0.26341 4.86203   2
   1   4  15 0.30291 5.00003   2
   2   4  15 2.16960 5.18203   2
 -14   5  15 6.29239 3.52278   2
 -13   5  15 2.79349 4.25090  -1
 -13   5  15 2.79349 4.25090   2
 -12   5  15 8.38273 5.87123  -1
 -12   5  15 8.38273 5.87123   2
 -11   5  15 20.3348 5.54814  -1
 -11   5  15 20.3348 5.54814   2
  -9   5  15 8.56678 9.74750  -1
  -9   5  15 8.56678 9.74750   2
  -8   5  15 -9.7566 10.4631  -1
  -8   5  15 -9.7566 10.4631   2
  -7   5  15 0.75642 3.23927   2
  -6   5  15 2.50297 3.56290   2
  -5   5  15 7.07262 3.95862   2
  -4   5  15 15.9215 4.57775   2
  -3   5  15 3.15274 4.40239   2
  -2   5  15 0.07137 4.62577   2
  -1   5  15 1.21441 4.80242   2
   0   5  15 -0.8581 4.99342   2
   1   5  15 3.32590 5.37657   2
 -13   6  15 11.0792 7.59950  -1
 -13   6  15 11.0792 7.59950   2
 -12   6  15 13.6762 6.85417  -1
 -12   6  15 13.6762 6.85417   2
 -10   6  15 18.5483 10.7003  -1
 -10   6  15 18.5483 10.7003   2
  -9   6  15 4.50285 10.7383  -1
  -9   6  15 4.50285 10.7383   2
  -8   6  15 6.53903 5.63221   2
  -7   6  15 -2.1483 3.40782   2
  -6   6  15 4.63970 3.80218   2
  -5   6  15 4.19113 4.11128   2
  -4   6  15 5.58498 4.42372   2
  -3   6  15 -0.2509 4.43986   2
  -2   6  15 0.67300 4.76952   2
  -1   6  15 4.40760 5.04826   2
   0   6  15 -2.1822 5.06736   2
 -13   7  15 13.5288 6.36885  -1
 -13   7  15 13.5288 6.36885   2
 -10   7  15 20.6741 6.04558   2
  -9   7  15 18.3956 6.15073   2
  -8   7  15 12.8826 6.44842   2
  -7   7  15 7.80677 3.83320   2
  -6   7  15 3.90073 4.13463   2
  -5   7  15 5.13969 4.41430   2
  -4   7  15 5.52638 4.77027   2
  -4   7  15 11.3916 14.2318  -1
  -5   8  15 11.3916 14.2318   2
  -3   7  15 2.86833 4.83035   2
  -2   7  15 4.24500 5.06415   2
  -1   7  15 2.89545 5.19343   2
 -10   8  15 11.9674 6.18409   2
  -9   8  15 21.1380 6.83905   2
  -8   8  15 11.6066 6.64473   2
  -7   8  15 11.2069 4.35631   2
  -6   8  15 10.1728 4.63499   2
  -4   8  15 9.02775 5.20350   2
  -3   8  15 1.26889 5.18002   2
  -2   8  15 -0.4899 5.34418   2
 -10   9  15 33.4447 7.38584   2
  -9   9  15 38.9740 7.66751   2
  -8   9  15 20.0679 7.21037   2
  -7   9  15 10.1177 4.64759   2
  -6   9  15 13.5738 5.10634   2
  -5   9  15 7.45003 5.21813   2
  -4   9  15 1.36575 5.33995   2
  -3   9  15 -0.1767 5.52283   2
  -8  10  15 3.61122 7.21689   2
  -7  10  15 3.34875 5.04165   2
  -7  -9  16 10.3966 7.42420   2
  -6  -9  16 16.4185 7.71331   2
  -5  -9  16 -0.6232 4.70336   2
  -4  -9  16 -3.9923 4.87615   2
  -4  -9  16 -1.0763 13.9995  -1
  -3  -8  16 -1.0763 13.9995   2
  -3  -9  16 -1.3747 10.5401  -1
  -2  -8  16 -1.3747 10.5401   2
  -3  -9  16 -2.1787 4.96060   2
  -2  -9  16 9.16982 10.5950  -1
  -1  -8  16 9.16982 10.5950   2
  -2  -9  16 -2.2865 5.18590   2
  -1  -9  16 9.53746 10.5433  -1
   0  -8  16 9.53746 10.5433   2
  -1  -9  16 -1.0692 5.43227   2
  -7  -8  16 21.6557 7.42653   2
  -6  -8  16 8.28443 7.19030   2
  -5  -8  16 4.22721 4.54965   2
  -4  -8  16 1.94594 4.77005   2
  -4  -8  16 4.00859 9.86599  -1
  -3  -7  16 4.00859 9.86599   2
  -3  -8  16 4.41036 10.3002  -1
  -2  -7  16 4.41036 10.3002   2
  -2  -8  16 14.7113 10.2410  -1
  -1  -7  16 14.7113 10.2410   2
  -1  -8  16 16.4055 14.7004  -1
   0  -7  16 16.4055 14.7004   2
   0  -8  16 6.74556 11.1041  -1
   1  -7  16 6.74556 11.1041   2
  -8  -7  16 31.7867 14.0571  -1
  -7  -7  16 31.7867 14.0571   2
  -6  -7  16 1.87863 6.40374   2
  -5  -7  16 3.63079 4.26008   2
  -4  -7  16 5.79681 4.55991   2
  -4  -7  16 12.1418 9.67134  -1
  -3  -6  16 12.1418 9.67134   2
  -3  -7  16 15.9209 9.90683  -1
  -2  -6  16 15.9209 9.90683   2
  -2  -7  16 18.2523 9.95471  -1
  -1  -6  16 18.2523 9.95471   2
  -1  -7  16 5.58796 9.98930  -1
   0  -6  16 5.58796 9.98930   2
   0  -7  16 6.65876 10.6130  -1
   1  -6  16 6.65876 10.6130   2
   1  -7  16 2.71199 11.5426  -1
   2  -6  16 2.71199 11.5426   2
  -8  -6  16 48.9323 13.1716  -1
  -7  -6  16 48.9323 13.1716   2
  -6  -6  16 -8.9287 12.3419   2
  -5  -6  16 19.8653 13.2094  -1
  -4  -5  16 19.8653 13.2094   2
  -5  -6  16 1.21094 4.00717   2
  -4  -6  16 23.5206 12.8808  -1
  -3  -5  16 23.5206 12.8808   2
  -4  -6  16 5.44233 4.41429   2
  -3  -6  16 19.3146 9.70792  -1
  -2  -5  16 19.3146 9.70792   2
 -11  -5  16 21.8882 7.65025  -1
 -10  -5  16 21.8882 7.65025   2
 -11  -5  16 9.65543 3.79341   2
  -9  -5  16 36.6736 11.9014  -1
  -8  -5  16 36.6736 11.9014   2
  -7  -5  16 17.2827 6.20281   2
  -6  -5  16 5.14180 5.90201   2
  -5  -5  16 3.09651 3.92612   2
  -1  -5  16 4.50887 4.77389   2
   0  -5  16 6.75980 4.95648   2
   1  -5  16 5.36373 5.14500   2
   2  -5  16 9.43136 16.6565  -1
   2  -3  16 9.43136 16.6565   2
   2  -5  16 4.55624 5.26788   2
 -12  -4  16 6.16036 2.28240   2
 -11  -4  16 12.5013 3.62581   2
 -11  -4  16 3.22656 7.14724  -1
 -10  -4  16 3.22656 7.14724   2
  -8  -4  16 24.3583 6.02749   2
  -7  -4  16 1.01809 5.37391   2
  -6  -4  16 5.14507 5.75344   2
  -5  -4  16 13.5230 3.88451   2
  -4  -4  16 43.2102 12.8056  -1
  -4  -3  16 43.2102 12.8056   2
  -4  -4  16 44.8556 7.54535   2
  -3  -4  16 19.5877 8.82261  -1
  -3  -3  16 19.5877 8.82261   2
  -3  -4  16 9.75380 4.27539   2
  -2  -4  16 6.77580 4.47235   2
  -2  -4  16 9.25222 13.3414  -1
  -2  -3  16 9.25222 13.3414   2
  -1  -4  16 2.82298 4.67644   2
   0  -4  16 11.8549 5.08902   2
   1  -4  16 5.44641 5.23135   2
   2  -4  16 4.49956 5.26746   2
   2  -4  16 20.5865 17.3408  -1
   2  -2  16 20.5865 17.3408   2
 -12  -3  16 5.83342 2.14662   2
 -11  -3  16 7.01005 3.25789   2
 -11  -3  16 5.31025 7.25916  -1
 -10  -3  16 5.31025 7.25916   2
  -8  -3  16 16.5461 5.62412   2
  -7  -3  16 14.7819 5.73900   2
  -6  -3  16 30.9283 6.51470   2
  -5  -3  16 71.3493 8.27874  -1
  -5  -2  16 71.3493 8.27874   2
  -4  -3  16 32.7004 8.07414  -1
  -4  -2  16 32.7004 8.07414   2
  -3  -3  16 16.2322 8.31350  -1
  -3  -2  16 16.2322 8.31350   2
  -2  -3  16 14.6530 12.4534  -1
  -2  -2  16 14.6530 12.4534   2
  -1  -3  16 17.5619 9.59103  -1
  -1  -2  16 17.5619 9.59103   2
  -1  -3  16 12.0574 4.83412   2
   0  -3  16 11.1878 10.1609  -1
   0  -2  16 11.1878 10.1609   2
   0  -3  16 13.2101 5.14306   2
   1  -3  16 5.48098 5.12384   2
   1  -3  16 -10.457 14.0569  -1
   1  -2  16 -10.457 14.0569   2
   2  -3  16 -6.0861 17.7364  -1
   2  -1  16 -6.0861 17.7364   2
 -13  -2  16 9.12815 2.38083   2
 -12  -2  16 19.4871 2.47933   2
 -11  -2  16 34.1949 7.41742  -1
 -10  -2  16 34.1949 7.41742   2
 -11  -2  16 14.4644 2.24348   2
  -9  -2  16 30.2957 3.40574   2
  -8  -2  16 29.6352 5.95514   2
  -7  -2  16 44.7763 6.75620   2
  -7  -2  16 42.3015 11.5912  -1
  -7  -1  16 42.3015 11.5912   2
  -6  -2  16 60.8627 7.41351  -1
  -6  -1  16 60.8627 7.41351   2
  -6  -2  16 48.3064 7.10292   2
  -5  -2  16 46.8065 7.39423  -1
  -5  -1  16 46.8065 7.39423   2
  -4  -2  16 5.32931 7.19059  -1
  -4  -1  16 5.32931 7.19059   2
  -3  -2  16 11.5130 7.61278  -1
  -3  -1  16 11.5130 7.61278   2
  -2  -2  16 11.2980 8.30073  -1
  -2  -1  16 11.2980 8.30073   2
  -1  -2  16 7.71458 9.21112  -1
  -1  -1  16 7.71458 9.21112   2
   0  -2  16 -10.360 12.4000  -1
   0  -1  16 -10.360 12.4000   2
   1  -2  16 9.68179 13.7268  -1
   1  -1  16 9.68179 13.7268   2
 -13  -1  16 6.25994 2.25663   2
 -12  -1  16 17.3923 2.40023   2
 -11  -1  16 3.66221 1.87207   2
 -10  -1  16 25.8232 6.56044  -1
 -10  -1  16 25.8232 6.56044   2
  -9  -1  16 16.0282 5.36139   2
  -8  -1  16 29.2949 5.99705   2
  -7  -1  16 26.8817 11.1218  -1
  -7   0  16 26.8817 11.1218   2
  -6  -1  16 47.5854 6.84640  -1
  -6   0  16 47.5854 6.84640   2
  -5  -1  16 27.0343 7.84840  -1
  -5   0  16 27.0343 7.84840   2
  -4  -1  16 5.55907 6.12443  -1
  -4   0  16 5.55907 6.12443   2
  -3  -1  16 3.99018 5.81816  -1
  -3   0  16 3.99018 5.81816   2
  -2  -1  16 5.87383 9.68762  -1
  -2   0  16 5.87383 9.68762   2
  -1  -1  16 12.5140 8.71748  -1
  -1   0  16 12.5140 8.71748   2
   0  -1  16 24.7883 12.6388  -1
   0   0  16 24.7883 12.6388   2
   1  -1  16 10.5188 13.8350  -1
   1   0  16 10.5188 13.8350   2
 -13   0  16 -2.1494 7.99385  -1
 -13   0  16 -2.1494 7.99385   2
 -12   0  16 3.98025 7.45595  -1
 -12   0  16 3.98025 7.45595   2
 -11   0  16 13.0420 6.44263  -1
 -11   0  16 13.0420 6.44263   2
 -10   0  16 21.9261 6.01190  -1
 -10   0  16 21.9261 6.01190   2
  -9   0  16 37.4497 9.64370  -1
  -9   0  16 37.4497 9.64370   2
  -8   0  16 57.0704 7.36606   2
  -6   0  16 15.4364 10.5128  -1
  -6   1  16 15.4364 10.5128   2
  -5   0  16 5.72149 6.32250  -1
  -5   1  16 5.72149 6.32250   2
  -4   0  16 21.9848 6.32929  -1
  -4   1  16 21.9848 6.32929   2
  -3   0  16 38.1517 7.17695  -1
  -3   1  16 38.1517 7.17695   2
  -2   0  16 37.2627 7.99640  -1
  -2   1  16 37.2627 7.99640   2
  -1   0  16 34.0556 11.5402  -1
  -1   1  16 34.0556 11.5402   2
   0   0  16 9.08486 12.5397  -1
   0   1  16 9.08486 12.5397   2
   2   0  16 6.01836 5.46899   2
 -13   1  16 3.06267 2.71913   2
 -12   1  16 13.8905 4.75416  -1
 -12   1  16 13.8905 4.75416   2
 -11   1  16 9.03573 5.75867  -1
 -11   1  16 9.03573 5.75867   2
 -10   1  16 17.7104 5.50001  -1
 -10   1  16 17.7104 5.50001   2
  -9   1  16 27.5004 8.52906  -1
  -9   1  16 27.5004 8.52906   2
  -8   1  16 36.1836 6.31274   2
  -7   1  16 20.4743 5.79490   2
  -7   1  16 20.6501 8.53321  -1
  -7   2  16 20.6501 8.53321   2
  -6   1  16 12.9307 6.56523  -1
  -6   2  16 12.9307 6.56523   2
  -5   1  16 24.3940 6.57760  -1
  -5   2  16 24.3940 6.57760   2
  -4   1  16 49.3486 7.26411  -1
  -4   2  16 49.3486 7.26411   2
  -3   1  16 52.7892 7.85672  -1
  -3   2  16 52.7892 7.85672   2
  -2   1  16 38.6043 8.48786  -1
  -2   2  16 38.6043 8.48786   2
  -1   1  16 2.66683 11.1456  -1
  -1   2  16 2.66683 11.1456   2
   1   1  16 7.18005 5.26355   2
   2   1  16 -0.0708 5.31049   2
 -13   2  16 9.11905 4.50241  -1
 -13   2  16 9.11905 4.50241   2
 -12   2  16 5.74285 5.97657  -1
 -12   2  16 5.74285 5.97657   2
 -11   2  16 8.48799 4.98970  -1
 -11   2  16 8.48799 4.98970   2
 -10   2  16 10.0178 4.68554  -1
 -10   2  16 10.0178 4.68554   2
  -9   2  16 13.5915 9.57867  -1
  -9   2  16 13.5915 9.57867   2
  -8   2  16 15.1947 5.71289   2
  -4   2  16 32.3803 8.30349  -1
  -4   3  16 32.3803 8.30349   2
  -3   2  16 38.2745 8.93931  -1
  -3   3  16 38.2745 8.93931   2
  -2   2  16 15.6483 9.33450  -1
  -2   3  16 15.6483 9.33450   2
  -1   2  16 3.96041 12.5004  -1
  -1   3  16 3.96041 12.5004   2
   0   2  16 1.67385 4.99292   2
   1   2  16 5.25105 5.38751   2
 -13   3  16 2.56801 4.04321  -1
 -13   3  16 2.56801 4.04321   2
 -12   3  16 4.65967 5.34963  -1
 -12   3  16 4.65967 5.34963   2
 -11   3  16 5.86539 4.36286  -1
 -11   3  16 5.86539 4.36286   2
  -9   3  16 9.04681 9.70577  -1
  -9   3  16 9.04681 9.70577   2
  -8   3  16 17.3746 5.94459   2
  -7   3  16 13.1385 3.69599   2
  -6   3  16 9.43746 3.94658   2
  -5   3  16 20.0578 4.54973   2
  -3   3  16 8.26821 13.5122  -1
  -3   4  16 8.26821 13.5122   2
  -2   3  16 12.2854 14.3440  -1
  -2   4  16 12.2854 14.3440   2
   0   3  16 2.08037 5.11603   2
   1   3  16 2.66167 5.50339   2
 -13   4  16 1.19646 6.29963  -1
 -13   4  16 1.19646 6.29963   2
 -12   4  16 2.39001 5.21447  -1
 -12   4  16 2.39001 5.21447   2
 -11   4  16 2.04835 4.77526  -1
 -11   4  16 2.04835 4.77526   2
  -9   4  16 -8.1253 10.6381  -1
  -9   4  16 -8.1253 10.6381   2
  -8   4  16 1.11603 5.55020   2
  -7   4  16 -1.3965 3.49436   2
  -6   4  16 4.99155 4.05039   2
  -5   4  16 10.4992 4.39376   2
  -4   4  16 4.42481 4.56359   2
  -1   4  16 1.23402 5.10331   2
   0   4  16 0.21343 5.32295   2
 -12   5  16 -6.0764 5.84066  -1
 -12   5  16 -6.0764 5.84066   2
  -9   5  16 5.47639 11.8473  -1
  -9   5  16 5.47639 11.8473   2
  -8   5  16 -3.1877 6.29830   2
  -7   5  16 2.26372 3.86871   2
  -6   5  16 3.91328 4.29354   2
  -5   5  16 3.88032 4.55599   2
  -4   5  16 5.69901 4.84818   2
  -3   5  16 6.07921 5.10490   2
  -2   5  16 7.10215 5.34473   2
  -1   5  16 2.30843 5.33312   2
  -9   6  16 1.24922 11.9763  -1
  -9   6  16 1.24922 11.9763   2
  -8   6  16 5.21248 6.19499   2
  -7   6  16 -0.6962 4.11923   2
  -6   6  16 -0.8605 4.31199   2
  -5   6  16 -2.5362 4.52598   2
  -4   6  16 6.52613 5.08310   2
  -3   6  16 3.78875 5.27801   2
  -2   6  16 6.15869 5.52130   2
 -10   7  16 1.96931 5.97861   2
  -9   7  16 -1.8923 6.08577   2
  -8   7  16 -1.9524 6.25890   2
  -7   7  16 -1.4076 4.38809   2
  -6   7  16 -0.6982 4.68082   2
  -5   7  16 3.19749 4.93290   2
  -4   7  16 4.76095 5.28754   2
  -3   7  16 6.31256 5.54378   2
  -9   8  16 -4.5991 6.48801   2
  -8   8  16 -1.3693 6.76685   2
  -7   8  16 1.89721 4.66890   2
  -6   8  16 2.66507 4.91833   2
  -5   8  16 2.47534 5.23560   2
  -7  -7  17 -3.8383 6.79488   2
  -6  -7  17 2.07886 6.98916   2
  -5  -7  17 -4.5195 9.98063  -1
  -4  -6  17 -4.5195 9.98063   2
  -5  -7  17 1.27088 4.84572   2
  -4  -7  17 -1.7418 4.86858   2
  -4  -7  17 -5.3289 10.0369  -1
  -3  -6  17 -5.3289 10.0369   2
  -3  -7  17 -0.7659 5.19068   2
  -3  -7  17 -10.460 14.7019  -1
  -2  -6  17 -10.460 14.7019   2
  -2  -7  17 2.36481 5.45762   2
  -2  -7  17 -2.3422 7.05004  -1
  -1  -6  17 -2.3422 7.05004   2
  -8  -6  17 2.07792 6.63829   2
  -8  -6  17 -13.430 13.9129  -1
  -7  -6  17 -13.430 13.9129   2
  -6  -6  17 -3.9835 6.69303   2
  -5  -6  17 -0.7037 4.64575   2
  -5  -6  17 -5.8375 14.2168  -1
  -4  -5  17 -5.8375 14.2168   2
  -4  -6  17 -1.1586 9.95835  -1
  -3  -5  17 -1.1586 9.95835   2
  -3  -6  17 -12.550 10.3121  -1
  -2  -5  17 -12.550 10.3121   2
  -7  -5  17 7.70672 6.82224   2
  -6  -5  17 1.75245 6.53012   2
  -5  -5  17 0.81191 4.37717   2
  -1  -5  17 -2.5745 5.06544   2
   0  -5  17 -1.9549 5.19628   2
  -8  -4  17 12.8243 6.41883   2
  -7  -4  17 0.44311 6.21612   2
  -6  -4  17 -0.9008 6.22519   2
  -5  -4  17 3.84942 4.35610   2
  -4  -4  17 1.27608 13.3793  -1
  -4  -3  17 1.27608 13.3793   2
  -4  -4  17 2.48915 4.50523   2
  -3  -4  17 -0.3621 14.0081  -1
  -3  -3  17 -0.3621 14.0081   2
  -3  -4  17 0.25900 4.67384   2
  -2  -4  17 1.38842 14.9827  -1
  -2  -3  17 1.38842 14.9827   2
  -2  -4  17 -2.6382 4.78043   2
  -1  -4  17 -2.9347 4.94946   2
   0  -4  17 1.76223 5.28146   2
 -11  -3  17 12.6565 3.87392   2
  -8  -3  17 12.7626 6.30929   2
  -7  -3  17 6.58776 6.38935   2
  -6  -3  17 3.99526 3.94572   2
  -6  -3  17 11.4178 8.42701  -1
  -6  -2  17 11.4178 8.42701   2
  -5  -3  17 5.76920 8.59058  -1
  -5  -2  17 5.76920 8.59058   2
  -5  -3  17 2.15322 4.12425   2
  -4  -3  17 -1.2357 8.66177  -1
  -4  -2  17 -1.2357 8.66177   2
  -3  -3  17 1.50036 9.53805  -1
  -3  -2  17 1.50036 9.53805   2
  -2  -3  17 0.35296 10.2585  -1
  -2  -2  17 0.35296 10.2585   2
  -1  -3  17 -8.6226 10.9154  -1
  -1  -2  17 -8.6226 10.9154   2
  -1  -3  17 1.63004 5.06637   2
   0  -3  17 -3.9360 15.5132  -1
   0  -2  17 -3.9360 15.5132   2
   0  -3  17 1.27665 5.25052   2
 -11  -2  17 5.96509 3.61386   2
  -8  -2  17 8.55836 5.98300   2
  -7  -2  17 52.2473 17.9104  -1
  -7  -1  17 52.2473 17.9104   2
  -7  -2  17 11.4186 6.53782   2
  -6  -2  17 23.9412 7.99592  -1
  -6  -1  17 23.9412 7.99592   2
  -5  -2  17 7.25705 8.09184  -1
  -5  -1  17 7.25705 8.09184   2
  -4  -2  17 3.12071 7.87238  -1
  -4  -1  17 3.12071 7.87238   2
  -3  -2  17 -2.2839 8.39602  -1
  -3  -1  17 -2.2839 8.39602   2
  -2  -2  17 0.44443 9.58507  -1
  -2  -1  17 0.44443 9.58507   2
  -1  -2  17 -1.9190 10.3725  -1
  -1  -1  17 -1.9190 10.3725   2
   0  -2  17 0.85518 14.9519  -1
   0  -1  17 0.85518 14.9519   2
 -12  -1  17 10.6731 3.95285   2
 -11  -1  17 2.29414 3.26044   2
  -9  -1  17 18.0866 6.07597   2
  -8  -1  17 22.0200 6.39490   2
  -8  -1  17 33.0878 12.5661  -1
  -8   0  17 33.0878 12.5661   2
  -7  -1  17 -10.224 18.5316  -1
  -7   0  17 -10.224 18.5316   2
  -6  -1  17 22.0725 7.48378  -1
  -6   0  17 22.0725 7.48378   2
  -5  -1  17 6.17304 11.0839  -1
  -5   0  17 6.17304 11.0839   2
  -4  -1  17 6.77690 6.64487  -1
  -4   0  17 6.77690 6.64487   2
  -3  -1  17 9.71293 8.16072  -1
  -3   0  17 9.71293 8.16072   2
  -2  -1  17 7.31022 9.28621  -1
  -2   0  17 7.31022 9.28621   2
  -1  -1  17 20.8238 13.6345  -1
  -1   0  17 20.8238 13.6345   2
   0  -1  17 5.34669 14.4008  -1
   0   0  17 5.34669 14.4008   2
 -12   0  17 10.2345 7.88329  -1
 -12   0  17 10.2345 7.88329   2
  -9   0  17 23.4136 6.36523   2
  -8   0  17 33.3610 12.2435  -1
  -8   1  17 33.3610 12.2435   2
  -7   0  17 55.0104 16.4825  -1
  -7   1  17 55.0104 16.4825   2
  -6   0  17 22.8086 6.72727  -1
  -6   1  17 22.8086 6.72727   2
  -5   0  17 17.8007 6.97441  -1
  -5   1  17 17.8007 6.97441   2
  -4   0  17 20.7118 6.98560  -1
  -4   1  17 20.7118 6.98560   2
  -3   0  17 13.5822 8.13881  -1
  -3   1  17 13.5822 8.13881   2
  -2   0  17 20.4670 9.07425  -1
  -2   1  17 20.4670 9.07425   2
  -1   0  17 17.9372 13.0373  -1
  -1   1  17 17.9372 13.0373   2
 -12   1  17 -1.3021 7.42507  -1
 -12   1  17 -1.3021 7.42507   2
  -9   1  17 32.2635 10.7276  -1
  -9   1  17 32.2635 10.7276   2
  -7   1  17 27.7332 12.4900  -1
  -7   2  17 27.7332 12.4900   2
  -6   1  17 28.6754 7.15069  -1
  -6   2  17 28.6754 7.15069   2
  -5   1  17 18.6998 7.00294  -1
  -5   2  17 18.6998 7.00294   2
  -4   1  17 16.6294 7.65664  -1
  -4   2  17 16.6294 7.65664   2
  -3   1  17 11.4901 8.57286  -1
  -3   2  17 11.4901 8.57286   2
  -2   1  17 25.8332 9.49077  -1
  -2   2  17 25.8332 9.49077   2
  -1   1  17 11.1187 12.3667  -1
  -1   2  17 11.1187 12.3667   2
   0   1  17 -0.5349 5.31593   2
 -12   2  17 7.86048 6.37319  -1
 -12   2  17 7.86048 6.37319   2
  -9   2  17 34.7300 10.8809  -1
  -9   2  17 34.7300 10.8809   2
  -8   2  17 24.4101 6.80963   2
  -6   2  17 4.09733 10.4405  -1
  -6   3  17 4.09733 10.4405   2
  -5   2  17 36.9538 11.4206  -1
  -5   3  17 36.9538 11.4206   2
  -4   2  17 19.7027 9.20258  -1
  -4   3  17 19.7027 9.20258   2
  -3   2  17 32.7251 10.1643  -1
  -3   3  17 32.7251 10.1643   2
  -2   2  17 29.1801 10.5419  -1
  -2   3  17 29.1801 10.5419   2
 -12   3  17 6.13294 5.33115  -1
 -12   3  17 6.13294 5.33115   2
  -9   3  17 3.44759 11.7888  -1
  -9   3  17 3.44759 11.7888   2
  -8   3  17 10.4933 6.23670   2
  -7   3  17 5.11266 4.16186   2
  -5   3  17 26.6896 14.4376  -1
  -5   4  17 26.6896 14.4376   2
  -4   3  17 26.6689 10.2474  -1
  -4   4  17 26.6689 10.2474   2
  -3   3  17 35.8165 11.2419  -1
  -3   4  17 35.8165 11.2419   2
  -2   3  17 3.35212 15.7065  -1
  -2   4  17 3.35212 15.7065   2
  -9   4  17 13.5132 12.8582  -1
  -9   4  17 13.5132 12.8582   2
  -8   4  17 23.8806 7.15785   2
  -7   4  17 12.7078 4.65727   2
  -6   4  17 4.85571 4.69089   2
  -3   4  17 23.5397 16.5563  -1
  -3   5  17 23.5397 16.5563   2
  -9   5  17 17.5754 13.6999  -1
  -9   5  17 17.5754 13.6999   2
  -8   5  17 28.9937 7.59174   2
  -7   5  17 7.18118 4.40702   2
  -6   5  17 11.9854 4.81092   2
  -5   5  17 3.90942 5.00653   2
  -4   5  17 11.9483 5.55813   2
  -9   6  17 13.2886 7.11448   2
  -8   6  17 4.69583 7.06235   2
  -7   6  17 3.49213 4.70420   2
  -6   6  17 6.11264 5.11148   2
  -5   6  17 9.72390 5.49562   2
  -5  -5  18 0.95569 4.97476   2
  -7  -4  18 3.56096 6.92365   2
  -6  -4  18 6.99266 7.08589   2
  -5  -4  18 9.95807 5.02815   2
  -4  -4  18 11.6670 5.23363   2
  -4  -4  18 -3.7155 14.8984  -1
  -4  -3  18 -3.7155 14.8984   2
  -3  -4  18 7.19579 5.46687   2
  -3  -4  18 -4.1269 15.7266  -1
  -3  -3  18 -4.1269 15.7266   2
  -8  -3  18 4.97731 6.58588   2
  -7  -3  18 2.01810 14.4203  -1
  -7  -2  18 2.01810 14.4203   2
  -7  -3  18 -0.7354 6.72637   2
  -6  -3  18 11.4132 7.19358   2
  -5  -3  18 -4.2823 9.44732  -1
  -5  -2  18 -4.2823 9.44732   2
  -5  -3  18 3.58035 4.74495   2
  -4  -3  18 -2.4842 9.90394  -1
  -4  -2  18 -2.4842 9.90394   2
  -3  -3  18 4.20506 10.6737  -1
  -3  -2  18 4.20506 10.6737   2
  -8  -2  18 10.5484 13.8643  -1
  -8  -1  18 10.5484 13.8643   2
  -8  -2  18 3.49194 6.57212   2
  -7  -2  18 -5.3306 13.6665  -1
  -7  -1  18 -5.3306 13.6665   2
  -6  -2  18 0.99628 8.66397  -1
  -6  -1  18 0.99628 8.66397   2
  -5  -2  18 2.58324 8.67190  -1
  -5  -1  18 2.58324 8.67190   2
  -4  -2  18 3.30224 9.24595  -1
  -4  -1  18 3.30224 9.24595   2
  -3  -2  18 -0.5822 10.2788  -1
  -3  -1  18 -0.5822 10.2788   2
  -8  -1  18 3.52095 13.8658  -1
  -8   0  18 3.52095 13.8658   2
  -7  -1  18 9.85057 13.2210  -1
  -7   0  18 9.85057 13.2210   2
  -6  -1  18 4.14845 8.04704  -1
  -6   0  18 4.14845 8.04704   2
  -5  -1  18 2.71571 6.34474  -1
  -5   0  18 2.71571 6.34474   2
  -4  -1  18 -5.3745 8.16440  -1
  -4   0  18 -5.3745 8.16440   2
  -3  -1  18 4.33858 9.62070  -1
  -3   0  18 4.33858 9.62070   2
  -9   0  18 -13.398 12.8895  -1
  -9   1  18 -13.398 12.8895   2
  -8   0  18 4.97777 13.4857  -1
  -8   1  18 4.97777 13.4857   2
  -7   0  18 2.34800 12.3820  -1
  -7   1  18 2.34800 12.3820   2
  -6   0  18 -2.9660 7.44999  -1
  -6   1  18 -2.9660 7.44999   2
  -5   0  18 -4.2254 7.33506  -1
  -5   1  18 -4.2254 7.33506   2
  -4   0  18 -1.2061 10.8263  -1
  -4   1  18 -1.2061 10.8263   2
  -3   0  18 2.46782 11.5779  -1
  -3   1  18 2.46782 11.5779   2
  -8   1  18 4.18639 12.7120  -1
  -8   2  18 4.18639 12.7120   2
  -7   1  18 -1.3280 12.1342  -1
  -7   2  18 -1.3280 12.1342   2
  -6   1  18 1.13802 10.5714  -1
  -6   2  18 1.13802 10.5714   2
  -5   1  18 3.66356 7.93803  -1
  -5   2  18 3.66356 7.93803   2
  -4   1  18 1.71419 8.64450  -1
  -4   2  18 1.71419 8.64450   2
  -9   2  18 -3.3726 5.99581   2
  -6   2  18 2.77027 12.5330  -1
  -6   3  18 2.77027 12.5330   2
  -5   2  18 -9.8908 12.7375  -1
  -5   3  18 -9.8908 12.7375   2
  -8   3  18 3.23760 6.74203   2
  -7   3  18 3.22356 6.85398   2
   0   0   0    0.00    0.00   0
;
_shelx_hkl_checksum              35132
loop_
_space_group_symop_operation_xyz
'x, y, z'
'-x, -y, -z'
loop_
_atom_site_label
_atom_site_type_symbol
_atom_site_fract_x
_atom_site_fract_y
_atom_site_fract_z
_atom_site_U_iso_or_equiv
_atom_site_adp_type
_atom_site_occupancy
_atom_site_site_symmetry_order
_atom_site_calc_flag
_atom_site_refinement_flags_posn
_atom_site_refinement_flags_adp
Rh1 Rh 0.50859(3) 0.98243(4) 0.68607(4) 0.0375(2) Uani 1 1 d . .
N1 N 0.3907(4) 0.8552(4) 0.6285(4) 0.0364(12) Uani 1 1 d . .
N2 N 0.5814(4) 0.9478(4) 0.5892(4) 0.0371(12) Uani 1 1 d . .
N3 N 0.6267(4) 1.1088(4) 0.7431(4) 0.0342(11) Uani 1 1 d . .
N4 N 0.4286(4) 1.0230(4) 0.7745(4) 0.0430(13) Uani 1 1 d . .
C1 C 0.3015(5) 0.8220(5) 0.6574(6) 0.0443(16) Uani 1 1 d . .
C2 C 0.2534(6) 0.7217(5) 0.6171(6) 0.0519(19) Uani 1 1 d . .
H2A H 0.1930 0.6825 0.6262 0.062 Uiso 1 1 calc R U
C3 C 0.3098(5) 0.6926(5) 0.5633(6) 0.0487(18) Uani 1 1 d . .
H3A H 0.2968 0.6291 0.5298 0.058 Uiso 1 1 calc R U
C4 C 0.3945(5) 0.7771(5) 0.5667(5) 0.0389(15) Uani 1 1 d . .
C5 C 0.4634(5) 0.7816(5) 0.5120(5) 0.0366(14) Uani 1 1 d . .
C6 C 0.5446(5) 0.8650(4) 0.5179(5) 0.0353(14) Uani 1 1 d . .
C7 C 0.6059(5) 0.8756(5) 0.4518(5) 0.0433(16) Uani 1 1 d . .
H7A H 0.5933 0.8325 0.3939 0.052 Uiso 1 1 calc R U
C8 C 0.6870(5) 0.9616(5) 0.4903(6) 0.0462(17) Uani 1 1 d . .
H8A H 0.7405 0.9867 0.4641 0.055 Uiso 1 1 calc R U
C9 C 0.6737(5) 1.0054(5) 0.5790(5) 0.0361(14) Uani 1 1 d . .
C10 C 0.7471(5) 1.0861(5) 0.6479(5) 0.0408(15) Uani 1 1 d . .
C11 C 0.7263(5) 1.1329(5) 0.7281(5) 0.0409(15) Uani 1 1 d . .
C12 C 0.8005(5) 1.2111(5) 0.8032(6) 0.0507(18) Uani 1 1 d . .
H12A H 0.8726 1.2391 0.8098 0.061 Uiso 1 1 calc R U
C13 C 0.7487(5) 1.2381(5) 0.8635(6) 0.0511(18) Uani 1 1 d . .
H13A H 0.7781 1.2877 0.9192 0.061 Uiso 1 1 calc R U
C14 C 0.6394(5) 1.1755(5) 0.8251(5) 0.0426(16) Uani 1 1 d . .
C15 C 0.5575(5) 1.1801(5) 0.8647(5) 0.0412(15) Uani 1 1 d . .
C16 C 0.4595(5) 1.1108(5) 0.8382(6) 0.0440(16) Uani 1 1 d . .
C17 C 0.3714(6) 1.1203(7) 0.8734(6) 0.063(2) Uani 1 1 d . .
H17A H 0.3700 1.1740 0.9151 0.075 Uiso 1 1 calc R U
C18 C 0.2918(6) 1.0368(6) 0.8342(6) 0.059(2) Uani 1 1 d . .
H18A H 0.2258 1.0218 0.8453 0.071 Uiso 1 1 calc R U
C19 C 0.3263(5) 0.9740(6) 0.7720(6) 0.0484(18) Uani 1 1 d . .
C20 C 0.2687(6) 0.8807(5) 0.7206(6) 0.0465(17) Uani 1 1 d . .
C21 C 0.4567(5) 0.6888(5) 0.4459(6) 0.0432(16) Uani 1 1 d . .
C22 C 0.5485(6) 0.6473(5) 0.4659(6) 0.0522(18) Uani 1 1 d . .
H22A H 0.6150 0.6780 0.5182 0.063 Uiso 1 1 calc R U
C23 C 0.5419(6) 0.5598(5) 0.4079(7) 0.061(2) Uani 1 1 d . .
H23A H 0.6044 0.5332 0.4216 0.073 Uiso 1 1 calc R U
C24 C 0.4459(6) 0.5131(5) 0.3321(6) 0.0502(18) Uani 1 1 d . .
C25 C 0.3564(6) 0.5550(5) 0.3119(6) 0.0555(19) Uani 1 1 d . .
H25A H 0.2902 0.5240 0.2594 0.067 Uiso 1 1 calc R U
C26 C 0.3614(6) 0.6425(5) 0.3676(6) 0.0534(19) Uani 1 1 d . .
H26A H 0.2991 0.6698 0.3514 0.064 Uiso 1 1 calc R U
C27 C 0.4391(7) 0.4160(6) 0.2696(7) 0.073(3) Uani 1 1 d . .
H27A H 0.3655 0.3932 0.2194 0.110 Uiso 1 1 calc R U
H27B H 0.4907 0.4281 0.2356 0.110 Uiso 1 1 calc R U
H27C H 0.4570 0.3662 0.3149 0.110 Uiso 1 1 calc R U
C31 C 0.8575(5) 1.1211(5) 0.6401(5) 0.0423(16) Uani 1 1 d . .
C32 C 0.8970(6) 1.2196(5) 0.6319(6) 0.0521(19) Uani 1 1 d . .
H32A H 0.8524 1.2652 0.6275 0.063 Uiso 1 1 calc R U
C33 C 1.0029(6) 1.2521(6) 0.6301(6) 0.0547(19) Uani 1 1 d . .
H33A H 1.0269 1.3183 0.6227 0.066 Uiso 1 1 calc R U
C34 C 1.0722(6) 1.1868(6) 0.6391(6) 0.057(2) Uani 1 1 d . .
C35 C 1.0324(6) 1.0891(6) 0.6450(7) 0.067(2) Uani 1 1 d . .
H35A H 1.0769 1.0436 0.6485 0.080 Uiso 1 1 calc R U
C36 C 0.9263(6) 1.0557(6) 0.6457(6) 0.0537(18) Uani 1 1 d . .
H36A H 0.9017 0.9887 0.6501 0.064 Uiso 1 1 calc R U
C37 C 1.1881(7) 1.2231(8) 0.6437(9) 0.089(3) Uani 1 1 d . .
H37A H 1.2011 1.2934 0.6385 0.133 Uiso 1 1 calc R U
H37B H 1.2397 1.2107 0.7077 0.133 Uiso 1 1 calc R U
H37C H 1.1977 1.1884 0.5879 0.133 Uiso 1 1 calc R U
C41 C 0.5812(6) 1.2662(6) 0.9450(6) 0.0510(18) Uani 1 1 d . .
C42 C 0.5911(9) 1.3622(6) 0.9208(7) 0.081(3) Uani 1 1 d . .
H42A H 0.5792 1.3742 0.8534 0.097 Uiso 1 1 calc R U
C43 C 0.6183(10) 1.4410(7) 0.9956(9) 0.101(4) Uani 1 1 d . .
H43A H 0.6260 1.5055 0.9776 0.121 Uiso 1 1 calc R U
C44 C 0.6345(7) 1.4275(7) 1.0964(8) 0.073(3) Uani 1 1 d . .
C45 C 0.6161(7) 1.3319(7) 1.1181(7) 0.068(2) Uani 1 1 d . .
H45A H 0.6208 1.3206 1.1842 0.082 Uiso 1 1 calc R U
C46 C 0.5905(7) 1.2502(6) 1.0450(6) 0.059(2) Uani 1 1 d . .
H46A H 0.5797 1.1857 1.0626 0.071 Uiso 1 1 calc R U
C47 C 0.6664(10) 1.5170(9) 1.1777(9) 0.117(5) Uani 1 1 d . .
H47A H 0.6756 1.5776 1.1471 0.175 Uiso 1 1 calc R U
H47B H 0.6091 1.5148 1.2046 0.175 Uiso 1 1 calc R U
H47C H 0.7346 1.5150 1.2323 0.175 Uiso 1 1 calc R U
C51 C 0.1591(6) 0.8396(6) 0.7302(6) 0.0526(19) Uani 1 1 d . .
C52 C 0.1511(7) 0.8254(7) 0.8233(7) 0.074(3) Uani 1 1 d . .
H52A H 0.2146 0.8369 0.8826 0.089 Uiso 1 1 calc R U
C53 C 0.0463(8) 0.7934(8) 0.8286(8) 0.087(3) Uani 1 1 d . .
H53A H 0.0411 0.7855 0.8922 0.105 Uiso 1 1 calc R U
C54 C -0.0480(8) 0.7738(9) 0.7424(10) 0.095(4) Uani 1 1 d . .
C55 C -0.0383(7) 0.7872(7) 0.6505(8) 0.078(3) Uani 1 1 d . .
H55A H -0.1019 0.7736 0.5911 0.093 Uiso 1 1 calc R U
C56 C 0.0607(6) 0.8197(6) 0.6427(7) 0.063(2) Uani 1 1 d . .
H56A H 0.0640 0.8289 0.5785 0.076 Uiso 1 1 calc R U
C57 C -0.1604(9) 0.7372(12) 0.7522(11) 0.151(6) Uani 1 1 d . .
H57A H -0.1493 0.7327 0.8231 0.226 Uiso 1 1 calc R U
H57B H -0.2067 0.7834 0.7262 0.226 Uiso 1 1 calc R U
H57C H -0.1954 0.6727 0.7133 0.226 Uiso 1 1 calc R U
C61 C 0.5941(6) 0.9076(5) 0.7900(6) 0.0517(18) Uani 1 1 d . .
H61A H 0.5557 0.8442 0.7921 0.062 Uiso 1 1 calc R U
C62 C 0.6935(7) 0.9317(7) 0.8550(9) 0.096(4) Uani 1 1 d . .
H62A H 0.7322 0.9948 0.8526 0.115 Uiso 1 1 calc R U
C63 C 0.7558(6) 0.8763(6) 0.9321(6) 0.058(2) Uani 1 1 d . .
C64 C 0.7149(6) 0.7805(6) 0.9445(6) 0.0546(19) Uani 1 1 d . .
H64A H 0.6425 0.7491 0.9040 0.066 Uiso 1 1 calc R U
C65 C 0.7790(8) 0.7306(7) 1.0156(8) 0.082(3) Uani 1 1 d . .
H65A H 0.7495 0.6653 1.0219 0.098 Uiso 1 1 calc R U
C66 C 0.8847(8) 0.7741(8) 1.0772(8) 0.087(3) Uani 1 1 d . .
H66A H 0.9278 0.7393 1.1251 0.104 Uiso 1 1 calc R U
C67 C 0.9255(8) 0.8684(9) 1.0673(9) 0.093(3) Uani 1 1 d . .
H67A H 0.9979 0.8990 1.1091 0.112 Uiso 1 1 calc R U
C68 C 0.8627(7) 0.9211(8) 0.9968(8) 0.085(3) Uani 1 1 d . .
H68A H 0.8923 0.9870 0.9927 0.102 Uiso 1 1 calc R U
loop_
_atom_site_aniso_label
_atom_site_aniso_U_11
_atom_site_aniso_U_22
_atom_site_aniso_U_33
_atom_site_aniso_U_23
_atom_site_aniso_U_13
_atom_site_aniso_U_12
Rh1 0.0366(3) 0.0471(4) 0.0374(4) 0.0029(2) 0.0203(2) 0.0166(2)
N1 0.036(2) 0.052(3) 0.031(3) 0.010(2) 0.018(2) 0.019(2)
N2 0.039(3) 0.044(3) 0.040(3) 0.006(2) 0.024(2) 0.018(2)
N3 0.035(2) 0.046(3) 0.029(3) 0.005(2) 0.015(2) 0.018(2)
N4 0.040(3) 0.055(3) 0.045(4) 0.005(3) 0.025(3) 0.017(2)
C1 0.037(3) 0.055(4) 0.048(5) 0.009(3) 0.021(3) 0.014(3)
C2 0.051(4) 0.052(4) 0.067(6) 0.010(4) 0.036(4) 0.013(3)
C3 0.055(4) 0.045(4) 0.061(5) 0.005(3) 0.035(4) 0.017(3)
C4 0.039(3) 0.040(4) 0.042(4) 0.003(3) 0.016(3) 0.017(3)
C5 0.039(3) 0.042(4) 0.036(4) 0.004(3) 0.018(3) 0.017(3)
C6 0.035(3) 0.041(4) 0.035(4) 0.001(3) 0.014(3) 0.017(3)
C7 0.051(4) 0.049(4) 0.040(4) 0.002(3) 0.026(3) 0.017(3)
C8 0.047(4) 0.052(4) 0.055(5) 0.011(3) 0.033(4) 0.018(3)
C9 0.039(3) 0.045(4) 0.032(4) 0.003(3) 0.019(3) 0.019(3)
C10 0.040(3) 0.050(4) 0.041(4) 0.008(3) 0.022(3) 0.017(3)
C11 0.038(3) 0.044(4) 0.042(4) 0.000(3) 0.017(3) 0.011(3)
C12 0.041(3) 0.060(5) 0.051(5) 0.000(4) 0.019(3) 0.010(3)
C13 0.045(3) 0.059(4) 0.046(5) -0.010(4) 0.016(3) 0.008(3)
C14 0.049(4) 0.046(4) 0.041(4) 0.006(3) 0.024(3) 0.018(3)
C15 0.049(3) 0.050(4) 0.034(4) 0.003(3) 0.021(3) 0.021(3)
C16 0.043(3) 0.056(4) 0.044(4) -0.002(3) 0.023(3) 0.024(3)
C17 0.062(5) 0.085(6) 0.054(5) -0.004(4) 0.034(4) 0.025(4)
C18 0.044(4) 0.083(6) 0.056(5) -0.010(4) 0.028(4) 0.014(4)
C19 0.039(3) 0.072(5) 0.043(5) 0.004(4) 0.022(3) 0.021(3)
C20 0.050(4) 0.057(4) 0.047(5) 0.007(3) 0.032(3) 0.017(3)
C21 0.042(3) 0.041(4) 0.055(5) -0.003(3) 0.028(3) 0.010(3)
C22 0.051(4) 0.048(4) 0.063(5) -0.001(4) 0.027(4) 0.014(3)
C23 0.066(5) 0.050(4) 0.089(7) 0.004(4) 0.047(5) 0.027(4)
C24 0.063(4) 0.044(4) 0.055(5) 0.000(3) 0.037(4) 0.010(3)
C25 0.055(4) 0.053(5) 0.055(5) -0.008(4) 0.023(4) 0.005(3)
C26 0.062(4) 0.053(4) 0.058(5) 0.007(4) 0.032(4) 0.025(3)
C27 0.087(6) 0.054(5) 0.086(7) -0.011(5) 0.046(5) 0.010(4)
C31 0.040(3) 0.055(4) 0.039(4) 0.002(3) 0.020(3) 0.016(3)
C32 0.049(4) 0.057(5) 0.062(5) 0.003(4) 0.033(4) 0.014(3)
C33 0.054(4) 0.060(5) 0.056(5) 0.005(4) 0.029(4) 0.008(3)
C34 0.046(4) 0.077(6) 0.053(5) -0.002(4) 0.027(4) 0.009(4)
C35 0.050(4) 0.079(6) 0.082(7) -0.003(5) 0.028(4) 0.032(4)
C36 0.052(4) 0.055(4) 0.059(5) 0.005(4) 0.024(4) 0.019(3)
C37 0.052(5) 0.118(8) 0.104(9) -0.002(7) 0.043(5) 0.011(5)
C41 0.055(4) 0.061(5) 0.044(5) -0.006(4) 0.027(4) 0.014(3)
C42 0.142(9) 0.057(5) 0.060(6) 0.002(4) 0.062(6) 0.013(5)
C43 0.174(11) 0.054(6) 0.094(9) -0.005(5) 0.083(9) 0.008(6)
C44 0.079(5) 0.067(6) 0.077(7) -0.021(5) 0.044(5) 0.002(4)
C45 0.069(5) 0.094(7) 0.044(5) -0.008(5) 0.025(4) 0.018(4)
C46 0.073(5) 0.062(5) 0.049(5) -0.003(4) 0.028(4) 0.022(4)
C47 0.123(9) 0.122(9) 0.093(9) -0.059(7) 0.056(7) -0.018(7)
C51 0.044(4) 0.064(5) 0.061(5) -0.002(4) 0.034(4) 0.010(3)
C52 0.056(4) 0.116(7) 0.060(6) 0.013(5) 0.034(4) 0.017(4)
C53 0.075(6) 0.122(8) 0.084(8) 0.002(6) 0.059(6) 0.008(5)
C54 0.053(5) 0.125(9) 0.111(10) -0.014(7) 0.048(6) 0.000(5)
C55 0.050(4) 0.100(7) 0.082(7) -0.011(5) 0.029(5) 0.011(4)
C56 0.057(4) 0.071(5) 0.069(6) -0.006(4) 0.034(4) 0.014(4)
C57 0.078(7) 0.224(16) 0.156(14) -0.028(11) 0.084(9) -0.021(8)
C61 0.049(4) 0.051(4) 0.055(5) 0.008(4) 0.020(4) 0.011(3)
C62 0.067(5) 0.073(6) 0.109(9) 0.048(6) -0.010(6) 0.002(5)
C63 0.049(4) 0.064(5) 0.054(5) 0.010(4) 0.009(4) 0.018(3)
C64 0.054(4) 0.065(5) 0.046(5) 0.004(4) 0.017(4) 0.018(4)
C65 0.083(6) 0.070(6) 0.107(9) 0.038(6) 0.046(6) 0.027(5)
C66 0.074(6) 0.103(8) 0.084(8) 0.035(6) 0.019(6) 0.037(6)
C67 0.060(5) 0.113(9) 0.085(8) 0.020(7) 0.004(5) 0.013(5)
C68 0.058(5) 0.098(7) 0.078(7) 0.028(6) 0.000(5) 0.017(5)
loop_
_atom_type_symbol
_atom_type_description
_atom_type_scat_dispersion_real
_atom_type_scat_dispersion_imag
_atom_type_scat_source
C C 0.0033 0.0016 'International Tables Vol C Tables 4.2.6.8 and 6.1.1.4'
H H 0.0000 0.0000 'International Tables Vol C Tables 4.2.6.8 and 6.1.1.4'
N N 0.0061 0.0033 'International Tables Vol C Tables 4.2.6.8 and 6.1.1.4'
Rh Rh -1.1178 0.9187 'International Tables Vol C Tables 4.2.6.8 and 6.1.1.4'
loop_
_geom_angle_atom_site_label_1
_geom_angle_atom_site_label_2
_geom_angle_atom_site_label_3
_geom_angle
C61 Rh1 N3 91.9(3)
C61 Rh1 N2 91.3(3)
N3 Rh1 N2 89.7(2)
C61 Rh1 N4 93.2(3)
N3 Rh1 N4 90.2(2)
N2 Rh1 N4 175.5(2)
C61 Rh1 N1 88.0(3)
N3 Rh1 N1 179.61(18)
N2 Rh1 N1 89.9(2)
N4 Rh1 N1 90.2(2)
C4 N1 C1 106.2(5)
C4 N1 Rh1 125.9(4)
C1 N1 Rh1 127.0(5)
C6 N2 C9 107.7(5)
C6 N2 Rh1 125.9(4)
C9 N2 Rh1 126.3(4)
C14 N3 C11 105.0(5)
C14 N3 Rh1 126.1(4)
C11 N3 Rh1 126.9(4)
C16 N4 C19 107.5(5)
C16 N4 Rh1 125.8(4)
C19 N4 Rh1 126.3(5)
N1 C1 C2 109.6(6)
N1 C1 C20 124.1(6)
C2 C1 C20 126.3(6)
C3 C2 C1 107.9(6)
C2 C3 C4 107.8(6)
N1 C4 C5 125.4(6)
N1 C4 C3 108.3(5)
C5 C4 C3 126.2(6)
C4 C5 C6 124.2(6)
C4 C5 C21 119.0(5)
C6 C5 C21 116.6(5)
N2 C6 C5 125.9(5)
N2 C6 C7 109.3(5)
C5 C6 C7 124.7(6)
C8 C7 C6 106.9(6)
C7 C8 C9 107.4(5)
N2 C9 C10 125.8(6)
N2 C9 C8 108.2(5)
C10 C9 C8 125.7(6)
C9 C10 C11 124.0(5)
C9 C10 C31 117.8(6)
C11 C10 C31 118.1(6)
N3 C11 C10 124.0(6)
N3 C11 C12 110.0(6)
C10 C11 C12 126.1(6)
C13 C12 C11 108.2(6)
C12 C13 C14 106.6(6)
N3 C14 C15 124.6(6)
N3 C14 C13 110.1(6)
C15 C14 C13 125.3(6)
C16 C15 C14 125.0(6)
C16 C15 C41 118.1(6)
C14 C15 C41 116.8(6)
C15 C16 N4 126.3(5)
C15 C16 C17 124.5(6)
N4 C16 C17 109.1(6)
C18 C17 C16 106.9(7)
C17 C18 C19 108.5(6)
C20 C19 N4 125.7(6)
C20 C19 C18 126.3(6)
N4 C19 C18 108.0(6)
C19 C20 C1 125.6(6)
C19 C20 C51 117.1(6)
C1 C20 C51 117.3(6)
C26 C21 C22 118.0(6)
C26 C21 C5 121.9(6)
C22 C21 C5 120.1(6)
C21 C22 C23 120.4(7)
C24 C23 C22 120.9(7)
C23 C24 C25 118.3(7)
C23 C24 C27 120.5(7)
C25 C24 C27 121.2(7)
C24 C25 C26 121.8(7)
C21 C26 C25 120.4(7)
C32 C31 C36 117.5(6)
C32 C31 C10 122.0(6)
C36 C31 C10 120.5(6)
C31 C32 C33 121.2(7)
C34 C33 C32 120.8(7)
C35 C34 C33 118.0(6)
C35 C34 C37 121.4(8)
C33 C34 C37 120.6(8)
C34 C35 C36 121.7(7)
C31 C36 C35 120.9(7)
C42 C41 C46 118.4(7)
C42 C41 C15 120.6(7)
C46 C41 C15 121.0(7)
C41 C42 C43 120.4(9)
C42 C43 C44 122.3(9)
C45 C44 C43 116.9(8)
C45 C44 C47 122.4(10)
C43 C44 C47 120.7(10)
C44 C45 C46 122.5(9)
C45 C46 C41 119.3(8)
C52 C51 C56 118.0(7)
C52 C51 C20 121.9(7)
C56 C51 C20 120.1(7)
C51 C52 C53 119.6(9)
C54 C53 C52 121.3(9)
C55 C54 C53 118.2(8)
C55 C54 C57 122.5(10)
C53 C54 C57 119.3(11)
C56 C55 C54 122.1(9)
C55 C56 C51 120.8(9)
C62 C61 Rh1 130.6(6)
C61 C62 C63 130.3(8)
C64 C63 C68 117.3(8)
C64 C63 C62 123.6(7)
C68 C63 C62 119.1(8)
C65 C64 C63 121.0(8)
C66 C65 C64 121.4(9)
C67 C66 C65 118.5(9)
C66 C67 C68 121.5(9)
C67 C68 C63 120.2(9)
loop_
_geom_bond_atom_site_label_1
_geom_bond_atom_site_label_2
_geom_bond_distance
Rh1 C61 1.965(8)
Rh1 N3 2.017(5)
Rh1 N2 2.019(5)
Rh1 N4 2.023(5)
Rh1 N1 2.024(5)
N1 C4 1.373(8)
N1 C1 1.389(8)
N2 C6 1.373(8)
N2 C9 1.384(8)
N3 C14 1.382(8)
N3 C11 1.392(7)
N4 C16 1.374(8)
N4 C19 1.383(8)
C1 C2 1.405(10)
C1 C20 1.407(9)
C2 C3 1.336(9)
C3 C4 1.441(9)
C4 C5 1.384(9)
C5 C6 1.394(8)
C5 C21 1.516(9)
C6 C7 1.433(8)
C7 C8 1.376(10)
C8 C9 1.442(9)
C9 C10 1.393(9)
C10 C11 1.411(9)
C10 C31 1.496(8)
C11 C12 1.413(9)
C12 C13 1.348(10)
C13 C14 1.436(9)
C14 C15 1.397(9)
C15 C16 1.374(9)
C15 C41 1.506(9)
C16 C17 1.448(9)
C17 C18 1.345(11)
C18 C19 1.447(10)
C19 C20 1.381(10)
C20 C51 1.512(8)
C21 C26 1.361(10)
C21 C22 1.386(9)
C22 C23 1.396(10)
C23 C24 1.352(11)
C24 C25 1.361(10)
C24 C27 1.536(10)
C25 C26 1.386(10)
C31 C32 1.382(10)
C31 C36 1.383(9)
C32 C33 1.401(9)
C33 C34 1.381(11)
C34 C35 1.364(12)
C34 C37 1.501(10)
C35 C36 1.399(10)
C41 C42 1.373(11)
C41 C46 1.396(11)
C42 C43 1.376(12)
C43 C44 1.381(14)
C44 C45 1.358(12)
C44 C47 1.529(12)
C45 C46 1.394(11)
C51 C52 1.369(11)
C51 C56 1.405(11)
C52 C53 1.405(11)
C53 C54 1.365(14)
C54 C55 1.359(14)
C54 C57 1.537(12)
C55 C56 1.349(10)
C61 C62 1.276(11)
C62 C63 1.450(11)
C63 C64 1.369(11)
C63 C68 1.384(11)
C64 C65 1.365(11)
C65 C66 1.356(13)
C66 C67 1.341(13)
C67 C68 1.378(13)
loop_
_platon_squeeze_void_nr
_platon_squeeze_void_average_x
_platon_squeeze_void_average_y
_platon_squeeze_void_average_z
_platon_squeeze_void_volume
_platon_squeeze_void_count_electrons
1 0.000 0.500 0.018 353.6 79.2
