#------------------------------------------------------------------------------
#$Date: 2019-11-24 11:54:59 +0200 (Sun, 24 Nov 2019) $
#$Revision: 237856 $
#$URL: file:///home/coder/svn-repositories/cod/cif/4/08/88/4088851.cif $
#------------------------------------------------------------------------------
#
# This file is available in the Crystallography Open Database (COD),
# http://www.crystallography.net/
#
# All data on this site have been placed in the public domain by the
# contributors.
#
data_4088851
loop_
_publ_author_name
'Yang, Wu'
'Zhang, Haojie'
'Li, Liuxiao'
'Tam, Chun Meng'
'Feng, Shiyu'
'Wong, Ka Lai'
'Lai, Wai Yan'
'Ng, Sheung Hei'
'Chen, Chen'
'Chan, Kin Shing'
_publ_section_title
;
 Base-Promoted, Aerobic, and Regioselective Carbon--Hydrogen Bond
 Activation of Thiophene with Group 9 Metalloporphyrins
;
_journal_issue                   19
_journal_name_full               Organometallics
_journal_page_first              3295
_journal_paper_doi               10.1021/acs.organomet.6b00490
_journal_volume                  35
_journal_year                    2016
_chemical_formula_sum            'C53 H41 Cl2 N4 Rh S'
_chemical_formula_weight         939.77
_space_group_crystal_system      triclinic
_space_group_IT_number           2
_space_group_name_Hall           '-P 1'
_space_group_name_H-M_alt        'P -1'
_atom_sites_solution_hydrogens   geom
_audit_creation_method           SHELXL-2014/6
_cell_angle_alpha                66.9469(17)
_cell_angle_beta                 88.931(2)
_cell_angle_gamma                82.2159(19)
_cell_formula_units_Z            2
_cell_length_a                   9.4863(4)
_cell_length_b                   14.4891(5)
_cell_length_c                   16.7008(6)
_cell_measurement_reflns_used    156
_cell_measurement_temperature    173(2)
_cell_measurement_theta_max      15
_cell_measurement_theta_min      15
_cell_volume                     2091.23(14)
_computing_cell_refinement       'BRUKER KAPPA APEXII DUO DIFFRACTOMETER'
_computing_data_collection       'BRUKER KAPPA APEXII DUO DIFFRACTOMETER'
_computing_data_reduction        'BRUKER KAPPA APEXII DUO DIFFRACTOMETER'
_computing_molecular_graphics    'BRUKER SHELXTL'
_computing_publication_material  'BRUKER SHELXTL'
_computing_structure_refinement  'SHELXL-2014/6 (Sheldrick, 2014)'
_diffrn_ambient_temperature      173(2)
_diffrn_measured_fraction_theta_full 0.983
_diffrn_measured_fraction_theta_max 0.983
_diffrn_measurement_device_type  'BRUKER KAPPA APEXII DUO DIFFRACTOMETER'
_diffrn_measurement_method       'PHI & OMEGA SCAN'
_diffrn_radiation_type           MoK\a
_diffrn_radiation_wavelength     0.71073
_diffrn_reflns_av_R_equivalents  0.0278
_diffrn_reflns_av_unetI/netI     0.0343
_diffrn_reflns_Laue_measured_fraction_full 0.983
_diffrn_reflns_Laue_measured_fraction_max 0.983
_diffrn_reflns_limit_h_max       11
_diffrn_reflns_limit_h_min       -11
_diffrn_reflns_limit_k_max       17
_diffrn_reflns_limit_k_min       -14
_diffrn_reflns_limit_l_max       18
_diffrn_reflns_limit_l_min       -20
_diffrn_reflns_number            25258
_diffrn_reflns_point_group_measured_fraction_full 0.983
_diffrn_reflns_point_group_measured_fraction_max 0.983
_diffrn_reflns_theta_full        25.242
_diffrn_reflns_theta_max         25.249
_diffrn_reflns_theta_min         2.168
_exptl_absorpt_coefficient_mu    0.630
_exptl_absorpt_correction_T_max  0.7456
_exptl_absorpt_correction_T_min  0.6001
_exptl_absorpt_correction_type   multi-scan
_exptl_crystal_colour            red
_exptl_crystal_density_diffrn    1.492
_exptl_crystal_description       block
_exptl_crystal_F_000             964
_exptl_crystal_size_max          0.400
_exptl_crystal_size_mid          0.300
_exptl_crystal_size_min          0.200
_refine_diff_density_max         1.046
_refine_diff_density_min         -0.769
_refine_diff_density_rms         0.075
_refine_ls_extinction_method     none
_refine_ls_goodness_of_fit_ref   1.043
_refine_ls_hydrogen_treatment    constr
_refine_ls_matrix_type           full
_refine_ls_number_parameters     550
_refine_ls_number_reflns         7458
_refine_ls_number_restraints     0
_refine_ls_restrained_S_all      1.043
_refine_ls_R_factor_all          0.0460
_refine_ls_R_factor_gt           0.0361
_refine_ls_shift/su_max          0.004
_refine_ls_shift/su_mean         0.001
_refine_ls_structure_factor_coef Fsqd
_refine_ls_weighting_details
'w=1/[\s^2^(Fo^2^)+(0.0438P)^2^+3.1246P] where P=(Fo^2^+2Fc^2^)/3'
_refine_ls_weighting_scheme      calc
_refine_ls_wR_factor_gt          0.0909
_refine_ls_wR_factor_ref         0.0961
_reflns_Friedel_coverage         0.000
_reflns_number_gt                6364
_reflns_number_total             7458
_reflns_threshold_expression     'I > 2\s(I)'
_cod_data_source_file            om6b00490_si_002.cif
_cod_data_source_block           WYL3
_cod_database_code               4088851
_shelx_space_group_comment
;
The symmetry employed for this shelxl refinement is uniquely defined
by the following loop, which should always be used as a source of
symmetry information in preference to the above space-group names.
They are only intended as comments.
;
_shelx_estimated_absorpt_t_min   0.787
_shelx_estimated_absorpt_t_max   0.884
_shelxl_version_number           2014/6
_shelx_res_file
;
TITL P in P-1
CELL 0.71073   9.48630  14.48910  16.70080  66.9469  88.9312  82.2159
ZERR    2.00   0.00040   0.00050   0.00060   0.0017   0.0020   0.0019
LATT 1
SFAC C  H  N  S  Rh Cl
UNIT 106 82 8 2 2 4

REM C53 H41 Cl2 N4 Rh S
REM APEXII BLOCK RED
OMIT -3 50.5
OMIT    0   0   1
OMIT     0   1   1

L.S. 4
ACTA
free c63 s1' c64 c62'
EXYZ C62 S1'
EADP C62 S1'

EXYZ S1 C62'
EADP S1 C62'
FMAP 2
PLAN 20
SIZE 0.40 0.30 0.20
TEMP -100

WGHT    0.043800    3.124600
FVAR       0.10692
RH1   5    0.458995    0.336685    0.479488    11.00000    0.02174    0.01818 =
         0.01814   -0.01108    0.00131    0.00087
S1    4    0.126570    0.339368    0.440021    10.50000    0.02310    0.03989 =
         0.04532   -0.02841    0.00857   -0.01063
C62'  1    0.126570    0.339368    0.440021    10.50000    0.02310    0.03989 =
         0.04532   -0.02841    0.00857   -0.01063
N1    3    0.579870    0.228617    0.450968    11.00000    0.02438    0.01983 =
         0.01957   -0.01124    0.00225   -0.00118
N2    3    0.410769    0.417090    0.350143    11.00000    0.01856    0.02329 =
         0.02097   -0.01383    0.00079    0.00061
N3    3    0.356600    0.451180    0.506743    11.00000    0.01988    0.02232 =
         0.01778   -0.01114   -0.00051    0.00037
N4    3    0.504365    0.256486    0.608761    11.00000    0.02311    0.02135 =
         0.02120   -0.01328    0.00420    0.00008
C1    1    0.663191    0.145144    0.509626    11.00000    0.02591    0.01880 =
         0.02413   -0.01223    0.00348   -0.00153
C2    1    0.753227    0.097203    0.463072    11.00000    0.02857    0.02243 =
         0.02916   -0.01300    0.00316    0.00407
AFIX  43
H2A   2    0.822947    0.039220    0.488032    11.00000   -1.20000
AFIX   0
C3    1    0.721064    0.149247    0.377572    11.00000    0.03039    0.02457 =
         0.02657   -0.01527    0.00570    0.00106
AFIX  43
H3A   2    0.764410    0.134961    0.331194    11.00000   -1.20000
AFIX   0
C4    1    0.609143    0.230424    0.369180    11.00000    0.02604    0.02286 =
         0.02228   -0.01429    0.00451   -0.00390
C5    1    0.538769    0.298142    0.291560    11.00000    0.02495    0.02522 =
         0.02015   -0.01346    0.00413   -0.00332
C6    1    0.439401    0.382005    0.284948    11.00000    0.02581    0.02565 =
         0.02207   -0.01501    0.00069   -0.00209
C7    1    0.352659    0.446882    0.208925    11.00000    0.02811    0.03358 =
         0.02149   -0.01772   -0.00184   -0.00023
AFIX  43
H7A   2    0.350438    0.439414    0.154948    11.00000   -1.20000
AFIX   0
C8    1    0.275217    0.520055    0.227981    11.00000    0.02565    0.03094 =
         0.02207   -0.01289   -0.00421    0.00184
AFIX  43
H8A   2    0.207357    0.572952    0.190219    11.00000   -1.20000
AFIX   0
C9    1    0.313625    0.503765    0.315586    11.00000    0.02104    0.02374 =
         0.01992   -0.01003   -0.00186   -0.00020
C10   1    0.264675    0.566824    0.358974    11.00000    0.01953    0.02464 =
         0.02259   -0.01207    0.00181    0.00056
C11   1    0.297715    0.544439    0.446194    11.00000    0.01962    0.02131 =
         0.02341   -0.01171    0.00158    0.00081
C12   1    0.264409    0.612477    0.490160    11.00000    0.02312    0.02260 =
         0.02776   -0.01443    0.00044    0.00083
AFIX  43
H12A  2    0.228132    0.682458    0.463454    11.00000   -1.20000
AFIX   0
C13   1    0.293808    0.559273    0.575299    11.00000    0.02280    0.02299 =
         0.02424   -0.01422    0.00002    0.00108
AFIX  43
H13A  2    0.281757    0.584689    0.619857    11.00000   -1.20000
AFIX   0
C14   1    0.347049    0.456470    0.587298    11.00000    0.01967    0.02491 =
         0.01900   -0.01363    0.00111    0.00108
C15   1    0.374952    0.374152    0.667370    11.00000    0.01858    0.02550 =
         0.02432   -0.01611    0.00114    0.00110
C16   1    0.444785    0.278920    0.675755    11.00000    0.02030    0.02699 =
         0.02054   -0.01217    0.00175   -0.00122
C17   1    0.472412    0.190797    0.756001    11.00000    0.03278    0.02433 =
         0.02064   -0.00879    0.00552   -0.00185
AFIX  43
H17A  2    0.439497    0.184853    0.811652    11.00000   -1.20000
AFIX   0
C18   1    0.553560    0.118422    0.737462    11.00000    0.03368    0.02106 =
         0.02317   -0.00720    0.00291   -0.00005
AFIX  43
H18A  2    0.589681    0.052357    0.777825    11.00000   -1.20000
AFIX   0
C19   1    0.575453    0.159486    0.645434    11.00000    0.02665    0.02162 =
         0.02218   -0.01018    0.00008   -0.00034
C20   1    0.656844    0.108676    0.600327    11.00000    0.02750    0.01902 =
         0.02391   -0.01173    0.00187   -0.00166
C21   1    0.570945    0.277431    0.211703    11.00000    0.02557    0.02967 =
         0.02287   -0.01575    0.00048    0.00303
C22   1    0.556053    0.183140    0.210088    11.00000    0.03626    0.02983 =
         0.02818   -0.01733    0.00366   -0.00176
AFIX  43
H22A  2    0.519390    0.133578    0.259053    11.00000   -1.20000
AFIX   0
C23   1    0.593677    0.161099    0.138698    11.00000    0.03727    0.03348 =
         0.03163   -0.02201   -0.00287    0.00364
AFIX  43
H23A  2    0.581440    0.096921    0.139103    11.00000   -1.20000
AFIX   0
C24   1    0.649077    0.230983    0.066305    11.00000    0.03434    0.04102 =
         0.02499   -0.01990   -0.00416    0.00923
C25   1    0.661541    0.325075    0.066878    11.00000    0.04393    0.03831 =
         0.02235   -0.01128    0.00367    0.00048
AFIX  43
H25A  2    0.696763    0.374753    0.017349    11.00000   -1.20000
AFIX   0
C26   1    0.623434    0.348222    0.138655    11.00000    0.03941    0.03041 =
         0.02606   -0.01503    0.00119   -0.00055
AFIX  43
H26A  2    0.633525    0.413074    0.137495    11.00000   -1.20000
AFIX   0
C27   1    0.692900    0.205230   -0.010691    11.00000    0.05731    0.05482 =
         0.02791   -0.02488    0.00109    0.01159
AFIX  33
H27A  2    0.676294    0.135900    0.000960    11.00000   -1.50000
H27B  2    0.636632    0.252474   -0.062690    11.00000   -1.50000
H27C  2    0.794218    0.210600   -0.020323    11.00000   -1.50000
AFIX   0
C31   1    0.163223    0.661020    0.312091    11.00000    0.02445    0.02691 =
         0.02081   -0.01623   -0.00285    0.00344
C32   1    0.194044    0.736288    0.235057    11.00000    0.02831    0.03039 =
         0.02288   -0.01380    0.00162    0.00152
AFIX  43
H32A  2    0.283693    0.729525    0.210119    11.00000   -1.20000
AFIX   0
C33   1    0.095836    0.821494    0.193736    11.00000    0.03156    0.03045 =
         0.02761   -0.01337   -0.00287    0.00220
AFIX  43
H33A  2    0.119549    0.872158    0.140679    11.00000   -1.20000
AFIX   0
C34   1   -0.036130    0.834985    0.227585    11.00000    0.02943    0.03315 =
         0.03483   -0.02001   -0.01103    0.00676
C35   1   -0.066142    0.760665    0.305033    11.00000    0.02117    0.03926 =
         0.03726   -0.02482   -0.00117    0.00501
AFIX  43
H35A  2   -0.155149    0.768474    0.330332    11.00000   -1.20000
AFIX   0
C36   1    0.030904    0.674602    0.346902    11.00000    0.02659    0.03177 =
         0.02510   -0.01496    0.00154   -0.00136
AFIX  43
H36A  2    0.007006    0.624158    0.400038    11.00000   -1.20000
AFIX   0
C37   1   -0.141016    0.929577    0.182841    11.00000    0.03358    0.03682 =
         0.05345   -0.01480   -0.01235    0.01021
AFIX  33
H37A  2   -0.101227    0.973335    0.128919    11.00000   -1.50000
H37B  2   -0.230232    0.910865    0.169114    11.00000   -1.50000
H37C  2   -0.159617    0.965882    0.221469    11.00000   -1.50000
AFIX   0
C41   1    0.324558    0.389893    0.747494    11.00000    0.02645    0.02009 =
         0.02199   -0.01063    0.00351   -0.00054
C42   1    0.414568    0.369491    0.817589    11.00000    0.02676    0.02981 =
         0.02665   -0.01356    0.00256    0.00304
AFIX  43
H42A  2    0.512325    0.345835    0.815159    11.00000   -1.20000
AFIX   0
C43   1    0.366270    0.382573    0.891902    11.00000    0.03826    0.03529 =
         0.02429   -0.01463   -0.00172    0.00457
AFIX  43
H43A  2    0.431446    0.367967    0.939185    11.00000   -1.20000
AFIX   0
C44   1    0.224701    0.416549    0.898196    11.00000    0.04281    0.03422 =
         0.03098   -0.01866    0.01131   -0.00354
C45   1    0.133973    0.438420    0.827529    11.00000    0.02727    0.03819 =
         0.04213   -0.02340    0.01035    0.00013
AFIX  43
H45A  2    0.036484    0.462678    0.830020    11.00000   -1.20000
AFIX   0
C46   1    0.181579    0.425871    0.753232    11.00000    0.02604    0.03104 =
         0.03430   -0.01888    0.00171    0.00069
AFIX  43
H46A  2    0.116670    0.441808    0.705544    11.00000   -1.20000
AFIX   0
C47   1    0.171676    0.430913    0.979080    11.00000    0.05567    0.06905 =
         0.04419   -0.03470    0.01873   -0.00287
AFIX  33
H47A  2    0.250792    0.411598    1.021949    11.00000   -1.50000
H47B  2    0.132805    0.502135    0.963845    11.00000   -1.50000
H47C  2    0.097073    0.388314    1.003855    11.00000   -1.50000
AFIX   0
C51   1    0.739752    0.007041    0.650345    11.00000    0.02970    0.02177 =
         0.02001   -0.01057    0.00476    0.00201
C52   1    0.855832   -0.004765    0.703952    11.00000    0.04020    0.02739 =
         0.03215   -0.01574   -0.00310   -0.00034
AFIX  43
H52A  2    0.881033    0.052263    0.712185    11.00000   -1.20000
AFIX   0
C53   1    0.936015   -0.099187    0.745911    11.00000    0.03439    0.03828 =
         0.03494   -0.01656   -0.00749    0.00414
AFIX  43
H53A  2    1.016116   -0.105678    0.781982    11.00000   -1.20000
AFIX   0
C54   1    0.901152   -0.184223    0.736060    11.00000    0.03482    0.02627 =
         0.02778   -0.00699    0.00433    0.00675
C55   1    0.784778   -0.172160    0.682859    11.00000    0.03856    0.02172 =
         0.03433   -0.01179    0.00633   -0.00194
AFIX  43
H55A  2    0.758822   -0.229449    0.675408    11.00000   -1.20000
AFIX   0
C56   1    0.704683   -0.077727    0.639902    11.00000    0.02993    0.02519 =
         0.02968   -0.01235    0.00086   -0.00139
AFIX  43
H56A  2    0.625443   -0.071137    0.603164    11.00000   -1.20000
AFIX   0
C57   1    0.990272   -0.286598    0.780360    11.00000    0.04753    0.03110 =
         0.05038   -0.00577   -0.00384    0.01184
AFIX  33
H57A  2    1.067812   -0.280703    0.815275    11.00000   -1.50000
H57B  2    0.930520   -0.334976    0.818293    11.00000   -1.50000
H57C  2    1.030243   -0.310466    0.736224    11.00000   -1.50000
AFIX   0
C61   1    0.284471    0.271499    0.490335    11.00000    0.02433    0.02981 =
         0.02408   -0.01839    0.00669   -0.00534
C62   1    0.285785    0.149913    0.547519    10.50000    0.06162    0.08163 =
         0.06946   -0.05032    0.02448   -0.03507
S1'   4    0.285785    0.149913    0.547519    10.50000    0.06162    0.08163 =
         0.06946   -0.05032    0.02448   -0.03507

C63   1    0.120533    0.150961    0.528939    11.00000    0.04005    0.03690 =
         0.04610   -0.02837    0.01502   -0.01283
AFIX  43
H63   2    0.077799    0.090760    0.553350    11.00000   -1.20000
AFIX   0
C64   1    0.043860    0.238932    0.478050    11.00000    0.02969    0.05027 =
         0.05424   -0.03600    0.01063   -0.00833
AFIX  43
H64   2   -0.054220    0.243034    0.464536    11.00000   -1.20000
AFIX   0
C65   1    0.245185    0.147923    0.052321    11.00000    0.06855    0.08012 =
         0.07651   -0.02801   -0.00031   -0.01370
AFIX  23
H65A  2    0.289102    0.211023    0.028262    11.00000   -1.20000
H65B  2    0.244353    0.126258    0.116367    11.00000   -1.20000
AFIX   0
CL1   6    0.349551    0.054680    0.027901    11.00000    0.10566    0.08382 =
         0.07390   -0.04031   -0.02036    0.00290
CL2   6    0.070720    0.173519    0.011532    11.00000    0.07651    0.11919 =
         0.09776   -0.02973   -0.01717   -0.01511

HKLF 4

REM  P in P-1
REM R1 =  0.0361 for    6364 Fo > 4sig(Fo)  and  0.0460 for all    7458 data
REM    550 parameters refined using      0 restraints

END

WGHT      0.0410      3.2520

REM Highest difference peak  1.046,  deepest hole -0.769,  1-sigma level  0.075
Q1    1   0.1848  0.2925  0.4703  11.00000  0.05    1.05
Q2    1   0.0696  0.0889  0.0260  11.00000  0.05    0.66
Q3    1   0.7328  0.2611 -0.0528  11.00000  0.05    0.59
Q4    1   0.1223  0.3449  0.4113  11.00000  0.05    0.52
Q5    1   0.3808  0.2991  0.5197  11.00000  0.05    0.45
Q6    1   0.1036  0.3520  0.4478  11.00000  0.05    0.43
Q7    1   0.0822  0.3217  0.4521  11.00000  0.05    0.41
Q8    1   0.2570  0.2259  0.5215  11.00000  0.05    0.41
Q9    1   0.7543  0.1480  0.0032  11.00000  0.05    0.40
Q10   1   0.3584  0.2906  0.4827  11.00000  0.05    0.40
Q11   1   0.6023  0.1889 -0.0328  11.00000  0.05    0.39
Q12   1   0.9844 -0.3064  0.8386  11.00000  0.05    0.33
Q13   1   0.2284  0.0615  0.0326  11.00000  0.05    0.33
Q14   1   0.2663  0.5796  0.4626  11.00000  0.05    0.33
Q15   1   0.5234  0.3637  0.4215  11.00000  0.05    0.32
Q16   1   0.2448  0.1204 -0.0014  11.00000  0.05    0.32
Q17   1   0.1999  0.1673 -0.0184  11.00000  0.05    0.32
Q18   1   0.7018  0.1059  0.4199  11.00000  0.05    0.31
Q19   1   0.6624  0.1850  0.1159  11.00000  0.05    0.31
Q20   1   0.2338  0.1048  0.0067  11.00000  0.05    0.31
;
_shelx_res_checksum              64858
_shelx_hkl_file
;
  -1   0   0  295.30    7.94
  -1   0   0  300.05    9.44
  -1   0   0  302.14    8.88
   1   0   0  293.92    7.94
   1   0   0  298.69    9.45
   1   0   0  288.28    8.87
   1   0   0  296.82    8.88
  -2   0   0    2.35    0.19
  -2   0   0    2.12    0.15
  -2   0   0    2.06    0.17
  -2   0   0    1.83    0.17
   2   0   0    1.75    0.14
   2   0   0    2.11    0.17
   2   0   0    1.91    0.17
  -3   0   0    8.63    0.39
  -3   0   0    8.22    0.39
  -3   0   0    8.21    0.39
  -3   0   0    8.10    0.35
   3   0   0    7.67    0.33
   3   0   0    7.90    0.39
   3   0   0    8.05    0.38
  -4   0   0    1.55    0.21
  -4   0   0    1.05    0.19
  -4   0   0    1.53    0.23
   4   0   0    1.56    0.20
   4   0   0    1.52    0.24
   4   0   0    1.00    0.16
  -5   0   0   22.49    0.84
  -5   0   0   21.90    0.85
  -5   0   0   21.40    0.70
  -5   0   0   21.03    0.81
   5   0   0   20.17    0.82
   5   0   0   23.05    0.72
   5   0   0   20.25    0.84
  -6   0   0    1.72    0.29
  -6   0   0    2.01    0.30
  -6   0   0    2.16    0.25
  -6   0   0    2.08    0.34
   6   0   0    1.65    0.25
   6   0   0    1.63    0.23
   6   0   0    1.89    0.29
   6   0   0    1.82    0.36
  -7   0   0    8.02    0.61
  -7   0   0    7.73    0.52
   7   0   0    7.88    0.52
   7   0   0    7.69    0.61
  -8   0   0    5.24    0.47
  -8   0   0    5.45    0.50
   8   0   0    5.88    0.52
  -9   0   0    4.67    0.50
   9   0   0    5.33    0.49
 -10   0   0   13.06    0.86
 -11   0   0    7.25    0.73
 -12   0   0    6.69    0.83
 -12   1   0   -0.25    0.71
 -11   1   0   -0.47    0.59
 -10   1   0    0.23    0.50
  -9   1   0    1.90    0.43
   8  -1   0    7.87    0.57
  -8   1   0    7.75    0.58
   7  -1   0    3.50    0.40
  -7   1   0    2.95    0.38
  -7   1   0    4.13    0.45
  -7   1   0    2.98    0.38
   6  -1   0   37.74    1.36
   6  -1   0   35.90    1.36
  -6   1   0   38.20    1.31
  -6   1   0   36.81    1.16
  -6   1   0   37.54    1.38
  -6   1   0   36.11    1.37
  -6   1   0   39.10    1.35
   5  -1   0   19.41    0.76
   5  -1   0   18.28    0.74
   5  -1   0   18.00    0.63
  -5   1   0   17.50    0.74
  -5   1   0   17.34    0.74
  -5   1   0   17.24    0.73
  -5   1   0   18.23    0.73
  -5   1   0   18.24    0.64
   4  -1   0    1.07    0.24
   4  -1   0    1.02    0.16
   4  -1   0    0.48    0.16
  -4   1   0    1.65    0.24
  -4   1   0    1.09    0.19
  -4   1   0    1.68    0.21
  -4   1   0    1.28    0.17
  -4   1   0    1.15    0.22
   3  -1   0   65.83    2.25
   3  -1   0   68.43    1.89
   3  -1   0   73.14    2.14
  -3   1   0   69.47    2.26
  -3   1   0   63.15    1.88
  -3   1   0   69.82    2.23
  -3   1   0   68.26    2.14
  -3   1   0   67.09    2.10
   2  -1   0   58.31    1.82
   2  -1   0   58.79    1.93
  -2   1   0   55.72    1.82
  -2   1   0   59.60    1.90
  -2   1   0   60.51    1.82
  -2   1   0   58.40    1.61
  -2   1   0   59.07    1.93
  -1   1   0  192.90    5.64
  -1   1   0  182.15    6.00
  -1   1   0  185.72    5.96
  -1   1   0  187.43    5.64
  -1   1   0  191.08    5.04
  -1  -1   0   20.24    0.68
  -1  -1   0   19.26    0.58
   1   1   0   19.67    0.58
   1   1   0   19.67    0.65
   1   1   0   19.04    0.64
   1   1   0   20.06    0.68
   1   1   0   19.07    0.64
   1   1   0   20.08    0.65
  -2  -1   0   65.42    2.12
  -2  -1   0   64.08    1.79
  -2  -1   0   67.83    2.12
   2   1   0   62.58    2.02
   2   1   0   68.48    2.02
   2   1   0   63.08    1.99
   2   1   0   64.49    2.12
   2   1   0   66.86    1.79
  -3  -1   0   42.62    1.21
  -3  -1   0   44.09    1.43
  -3  -1   0   43.08    1.43
  -3  -1   0   46.19    1.39
   3   1   0   40.49    1.42
   3   1   0   42.70    1.38
   3   1   0   44.67    1.21
   3   1   0   43.57    1.38
   3   1   0   39.36    1.34
  -4  -1   0    0.16    0.19
  -4  -1   0   -0.02    0.16
  -4  -1   0   -0.06    0.15
  -4  -1   0   -0.42    0.14
   4   1   0   -0.04    0.13
   4   1   0    0.07    0.19
   4   1   0   -0.08    0.15
   4   1   0    0.00    0.14
   4   1   0    0.05    0.20
  -5  -1   0   39.15    1.33
  -5  -1   0   38.22    1.30
  -5  -1   0   38.89    1.35
  -5  -1   0   36.27    1.12
   5   1   0   36.65    1.26
   5   1   0   39.57    1.32
   5   1   0   38.05    1.13
   5   1   0   39.64    1.32
  -6  -1   0    2.70    0.31
  -6  -1   0    2.76    0.30
  -6  -1   0    3.16    0.26
  -6  -1   0    3.92    0.37
   6   1   0    3.01    0.38
   6   1   0    2.76    0.27
   6   1   0    2.74    0.25
   6   1   0    3.07    0.31
   6   1   0    2.93    0.36
  -7  -1   0   23.72    0.94
  -7  -1   0   21.54    0.91
   7   1   0   22.54    0.92
   7   1   0   21.18    0.96
  -8  -1   0   15.37    0.77
  -8  -1   0   15.16    0.74
   8   1   0   15.41    0.74
   8   1   0   15.55    0.82
  -9  -1   0   14.83    0.77
   9   1   0   12.67    0.71
 -10  -1   0    4.48    0.57
 -11  -1   0    7.17    0.74
 -12  -1   0    4.44    0.78
 -12   2   0   -0.37    0.74
 -11   2   0    0.44    0.62
 -10   2   0   -0.11    0.55
  -9   2   0    9.49    0.73
  -8   2   0   35.41    1.37
   7  -2   0    7.42    0.55
  -7   2   0    7.17    0.60
  -7   2   0    7.08    0.55
   6  -2   0   45.85    1.64
   6  -2   0   45.98    1.60
  -6   2   0   44.40    1.58
  -6   2   0   47.31    1.65
  -6   2   0   44.81    1.61
  -6   2   0   45.75    1.55
  -6   2   0   44.68    1.38
   5  -2   0    3.82    0.34
   5  -2   0    3.91    0.37
  -5   2   0    3.11    0.33
  -5   2   0    3.85    0.26
  -5   2   0    3.90    0.34
  -5   2   0    3.50    0.33
  -5   2   0    3.41    0.30
  -5   2   0    3.40    0.30
   4  -2   0   55.25    1.81
   4  -2   0   54.21    1.90
  -4   2   0   52.75    1.58
  -4   2   0   56.29    1.80
  -4   2   0   62.00    1.78
  -4   2   0   55.52    1.90
  -4   2   0   55.64    1.80
   3  -2   0   20.99    0.74
  -3   2   0   19.78    0.77
  -3   2   0   20.26    0.73
  -3   2   0   20.09    0.72
  -3   2   0   19.15    0.70
  -3   2   0   20.46    0.63
  -3   2   0   20.90    0.74
  -2   2   0   17.34    0.62
  -2   2   0   18.53    0.56
  -2   2   0   18.20    0.67
  -2   2   0   19.35    0.65
  -2   2   0   19.49    0.65
  -2   2   0   17.99    0.70
   1  -2   0   -0.11    0.08
  -1   2   0   -0.16    0.07
  -1   2   0   -0.15    0.09
  -1   2   0   -0.12    0.07
  -1   2   0    0.06    0.08
  -1   2   0   -0.04    0.07
  -1   2   0   -0.02    0.05
   0  -2   0  146.04    4.72
   0   2   0  149.26    4.72
  -1  -2   0   43.63    1.40
   1   2   0   45.34    1.32
   1   2   0   44.90    1.40
   1   2   0   41.81    1.31
   1   2   0   42.17    1.17
  -2  -2   0  905.37   29.46
  -2  -2   0  911.90   24.82
   2   2   0  910.56   24.85
   2   2   0  888.32   27.58
   2   2   0  885.20   27.56
   2   2   0  974.78   27.79
   2   2   0  944.96   29.46
   2   2   0  927.49   27.81
   2   2   0  984.75   29.11
  -3  -2   0  263.78    7.16
  -3  -2   0  268.68    8.49
  -3  -2   0  265.68    8.47
   3   2   0  257.34    7.96
   3   2   0  264.31    8.02
   3   2   0  264.48    8.49
   3   2   0  273.98    7.95
   3   2   0  272.41    8.02
   3   2   0  264.19    7.16
  -4  -2   0  257.90    8.20
  -4  -2   0  262.37    6.92
  -4  -2   0  252.41    8.18
   4   2   0  255.16    7.69
   4   2   0  260.83    7.68
   4   2   0  257.30    7.76
   4   2   0  255.43    6.92
   4   2   0  252.55    8.20
   4   2   0  254.21    7.76
  -5  -2   0    0.88    0.24
  -5  -2   0    0.77    0.21
  -5  -2   0    1.03    0.19
   5   2   0    1.10    0.18
   5   2   0    0.78    0.21
   5   2   0    1.37    0.20
   5   2   0    0.63    0.24
   5   2   0    0.66    0.25
  -6  -2   0    3.59    0.37
  -6  -2   0    3.22    0.32
  -6  -2   0    4.06    0.35
   6   2   0    3.87    0.37
   6   2   0    3.76    0.40
   6   2   0    3.08    0.31
   6   2   0    3.50    0.27
   6   2   0    3.28    0.29
  -7  -2   0    6.35    0.45
  -7  -2   0    6.04    0.51
   7   2   0    6.97    0.46
   7   2   0    7.38    0.56
   7   2   0    6.43    0.56
  -8  -2   0    3.17    0.39
  -8  -2   0    2.92    0.35
   8   2   0    3.58    0.48
   8   2   0    2.64    0.37
  -9  -2   0    0.70    0.37
   9   2   0    0.44    0.41
 -10  -2   0    0.94    0.46
 -11  -2   0    1.16    0.58
 -12  -2   0    3.82    0.75
 -11   3   0    3.10    0.71
 -10   3   0    4.34    0.65
  -9   3   0    4.29    0.54
  -8   3   0   -0.05    0.34
   7  -3   0    6.17    0.54
  -7   3   0    5.32    0.46
  -7   3   0    6.43    0.53
   6  -3   0   20.05    0.89
  -6   3   0   20.13    0.87
  -6   3   0   19.37    0.73
  -6   3   0   20.21    0.85
  -6   3   0   20.16    0.88
  -6   3   0   20.63    0.90
   5  -3   0   10.00    0.57
   5  -3   0   10.29    0.57
  -5   3   0   10.55    0.53
  -5   3   0   11.39    0.58
  -5   3   0    9.75    0.54
  -5   3   0   10.68    0.56
  -5   3   0   10.40    0.58
  -5   3   0   10.27    0.55
  -5   3   0   10.15    0.49
   4  -3   0    5.08    0.40
  -4   3   0    5.36    0.38
  -4   3   0    5.42    0.37
  -4   3   0    5.41    0.39
  -4   3   0    4.79    0.36
  -4   3   0    6.22    0.32
  -4   3   0    5.54    0.42
  -4   3   0    5.85    0.41
   3  -3   0    0.51    0.20
  -3   3   0    0.90    0.15
  -3   3   0    0.78    0.17
  -3   3   0    0.92    0.19
  -3   3   0    0.86    0.15
  -3   3   0    0.76    0.19
  -3   3   0    0.78    0.21
  -3   3   0    0.62    0.19
  -2   3   0   14.85    0.57
  -2   3   0   16.38    0.57
  -2   3   0   14.51    0.55
  -2   3   0   15.53    0.49
  -2   3   0   15.51    0.62
  -2   3   0   15.41    0.57
   1  -3   0    1.01    0.18
  -1   3   0    1.12    0.10
  -1   3   0    1.22    0.13
  -1   3   0    0.78    0.12
  -1   3   0    1.22    0.13
  -1   3   0    1.20    0.18
  -1   3   0    1.07    0.12
   0  -3   0    1.46    0.14
   0   3   0    1.44    0.14
  -1  -3   0  297.43    9.17
  -1  -3   0  296.66    9.32
   1   3   0  282.92    9.17
  -2  -3   0  212.27    6.36
  -2  -3   0  202.62    6.41
   2   3   0  199.40    5.43
   2   3   0  201.87    6.07
   2   3   0  194.05    6.02
   2   3   0  205.79    6.07
   2   3   0  198.75    6.03
   2   3   0  201.22    6.36
  -3  -3   0  262.24    8.47
  -3  -3   0  262.08    8.48
   3   3   0  262.79    8.02
   3   3   0  266.46    7.17
   3   3   0  264.32    7.95
   3   3   0  271.78    8.48
   3   3   0  284.43    8.38
   3   3   0  259.55    7.96
   3   3   0  264.21    8.02
  -4  -3   0   27.03    1.00
  -4  -3   0   27.73    0.97
   4   3   0   29.73    0.98
   4   3   0   28.46    0.95
   4   3   0   29.08    0.99
   4   3   0   32.32    0.87
   4   3   0   28.84    0.97
   4   3   0   28.26    0.98
  -5  -3   0   51.84    1.83
  -5  -3   0   53.92    1.80
   5   3   0   53.70    1.55
   5   3   0   55.59    1.81
   5   3   0   56.10    1.78
   5   3   0   55.70    1.78
   5   3   0   54.19    1.72
   5   3   0   54.49    1.74
  -6  -3   0    0.60    0.20
  -6  -3   0    0.65    0.24
   6   3   0    0.68    0.32
   6   3   0    0.72    0.29
   6   3   0    0.51    0.23
   6   3   0    0.81    0.22
   6   3   0    0.80    0.22
   6   3   0    1.12    0.26
  -7  -3   0    2.75    0.33
  -7  -3   0    2.70    0.28
   7   3   0    2.27    0.39
   7   3   0    2.86    0.31
   7   3   0    2.26    0.31
  -8  -3   0    2.69    0.36
   8   3   0    2.01    0.33
   8   3   0    2.43    0.43
  -9  -3   0    5.77    0.51
   9   3   0    5.79    0.55
 -10  -3   0   14.51    0.83
 -11  -3   0    3.39    0.58
 -12  -3   0    5.49    0.75
 -11   4   0   -0.65    0.67
 -10   4   0    0.54    0.55
  -9   4   0    1.99    0.52
  -8   4   0    0.36    0.36
  -8   4   0    0.39    0.38
  -7   4   0    0.87    0.34
  -7   4   0    1.27    0.38
   6  -4   0   35.32    1.36
  -6   4   0   34.19    1.31
  -6   4   0   35.16    1.26
  -6   4   0   33.57    1.29
  -6   4   0   35.03    1.12
   5  -4   0   14.60    0.71
  -5   4   0   13.49    0.68
  -5   4   0   13.60    0.59
  -5   4   0   13.81    0.68
  -5   4   0   13.63    0.71
  -5   4   0   14.71    0.64
  -5   4   0   15.19    0.67
  -5   4   0   15.28    0.70
   4  -4   0    3.75    0.35
  -4   4   0    3.04    0.28
  -4   4   0    3.66    0.34
  -4   4   0    3.29    0.30
  -4   4   0    3.64    0.31
  -4   4   0    3.87    0.29
  -4   4   0    3.41    0.25
  -4   4   0    3.50    0.28
  -3   4   0   13.60    0.56
  -3   4   0   13.58    0.56
  -3   4   0   13.27    0.60
  -3   4   0   13.58    0.46
  -3   4   0   12.88    0.55
  -3   4   0   13.12    0.51
   2  -4   0   88.76    2.86
  -2   4   0   88.32    2.65
  -2   4   0   86.50    2.86
  -2   4   0   87.60    2.79
  -2   4   0   86.61    2.36
  -2   4   0   83.75    2.63
  -2   4   0   82.44    2.62
  -2   4   0   88.21    2.66
   1  -4   0   24.13    0.83
  -1   4   0   22.54    0.83
  -1   4   0   23.03    0.77
  -1   4   0   22.12    0.72
  -1   4   0   22.78    0.73
  -1   4   0   22.08    0.73
   0  -4   0  114.39    3.70
   0   4   0  114.88    3.70
  -1  -4   0   18.58    0.65
  -1  -4   0   19.30    0.69
   1   4   0   18.31    0.67
  -2  -4   0   36.40    1.14
   2   4   0   34.13    0.96
   2   4   0   33.81    1.07
   2   4   0   36.36    1.08
   2   4   0   34.21    1.19
  -3  -4   0    0.50    0.12
   3   4   0    0.19    0.12
   3   4   0    0.34    0.17
   3   4   0   -0.06    0.11
   3   4   0    0.51    0.16
   3   4   0    0.13    0.14
   3   4   0    0.57    0.15
  -4  -4   0   10.39    0.38
  -4  -4   0   10.18    0.45
   4   4   0   10.77    0.37
   4   4   0   10.40    0.49
   4   4   0    9.52    0.41
   4   4   0    9.91    0.45
   4   4   0   10.48    0.47
   4   4   0   10.66    0.49
   4   4   0   10.15    0.49
  -5  -4   0   12.26    0.54
  -5  -4   0   11.80    0.46
   5   4   0   11.47    0.54
   5   4   0   12.00    0.45
   5   4   0   11.42    0.55
   5   4   0   12.37    0.51
   5   4   0   11.83    0.58
   5   4   0   11.52    0.56
   5   4   0   11.80    0.53
  -6  -4   0   89.67    3.03
  -6  -4   0   89.77    2.99
   6   4   0   95.04    2.88
   6   4   0   92.70    2.85
   6   4   0   92.26    2.58
   6   4   0   87.78    2.91
   6   4   0   92.96    2.91
   6   4   0   94.94    2.99
  -7  -4   0    6.81    0.40
  -7  -4   0    7.11    0.52
   7   4   0    7.09    0.56
   7   4   0    7.89    0.56
   7   4   0    5.33    0.37
  -8  -4   0    1.14    0.31
   8   4   0    1.29    0.41
  -9  -4   0    8.77    0.64
   9   4   0    8.12    0.66
 -10  -4   0    5.72    0.53
  10   4   0    6.02    0.61
 -11  -4   0    5.34    0.63
 -12  -4   0    1.69    0.65
 -11   5   0    9.29    0.93
 -10   5   0    4.76    0.67
  -9   5   0    5.32    0.61
  -8   5   0    7.35    0.70
  -8   5   0    9.68    0.63
  -7   5   0    6.98    0.59
  -7   5   0    6.51    0.54
   6  -5   0   11.92    0.71
  -6   5   0   12.57    0.66
  -6   5   0   11.85    0.70
  -6   5   0   12.46    0.65
  -6   5   0   11.78    0.61
   5  -5   0   30.70    1.22
  -5   5   0   30.81    1.01
  -5   5   0   30.29    1.15
  -5   5   0   32.39    1.15
  -5   5   0   30.34    1.11
  -5   5   0   32.21    1.14
  -5   5   0   30.53    1.15
  -5   5   0   30.93    1.21
   4  -5   0    0.85    0.23
  -4   5   0    1.18    0.29
  -4   5   0    1.63    0.21
  -4   5   0    1.58    0.27
  -4   5   0    1.44    0.27
  -4   5   0    1.43    0.21
  -4   5   0    1.14    0.24
  -4   5   0    1.40    0.25
   3  -5   0    1.63    0.27
  -3   5   0    2.05    0.19
  -3   5   0    2.10    0.24
  -3   5   0    2.44    0.24
  -3   5   0    1.85    0.18
  -3   5   0    1.83    0.21
  -3   5   0    1.66    0.22
  -3   5   0    1.89    0.27
   2  -5   0    6.77    0.40
  -2   5   0    6.49    0.32
  -2   5   0    6.09    0.27
  -2   5   0    6.65    0.32
  -2   5   0    6.40    0.32
  -2   5   0    6.16    0.32
  -2   5   0    6.97    0.40
  -2   5   0    5.96    0.36
   1  -5   0    3.57    0.30
  -1   5   0    3.82    0.22
  -1   5   0    3.62    0.25
  -1   5   0    4.15    0.30
  -1   5   0    3.81    0.22
   0  -5   0    2.52    0.22
   0   5   0    2.89    0.23
  -1  -5   0    4.67    0.26
  -2  -5   0    6.55    0.33
  -2  -5   0    6.74    0.27
   2   5   0    6.49    0.26
   2   5   0    6.81    0.37
   2   5   0    6.52    0.21
  -3  -5   0    6.36    0.36
  -3  -5   0    6.32    0.29
   3   5   0    6.52    0.37
   3   5   0    5.92    0.30
   3   5   0    6.65    0.36
   3   5   0    6.05    0.27
  -4  -5   0   62.50    2.06
   4   5   0   63.87    1.94
   4   5   0   64.61    1.98
   4   5   0   63.33    1.97
   4   5   0   60.24    1.95
   4   5   0   61.58    1.75
   4   5   0   64.51    2.09
  -5  -5   0   95.37    3.18
   5   5   0   99.92    3.04
   5   5   0   97.45    3.18
   5   5   0   98.33    2.99
   5   5   0   97.65    3.05
   5   5   0   96.99    3.01
   5   5   0   98.34    2.70
  -6  -5   0   85.58    2.82
  -6  -5   0   86.41    2.88
   6   5   0   87.77    2.77
   6   5   0   85.85    2.82
   6   5   0   86.24    2.77
   6   5   0   90.22    2.74
   6   5   0   89.72    2.72
   6   5   0   87.18    2.45
  -7  -5   0    0.15    0.25
   7   5   0    0.08    0.28
   7   5   0    0.47    0.27
   7   5   0    0.11    0.33
   7   5   0   -0.20    0.23
  -8  -5   0    1.47    0.30
   8   5   0    1.18    0.31
   8   5   0    1.35    0.39
  -9  -5   0    0.51    0.33
   9   5   0    0.63    0.40
 -10  -5   0   -0.45    0.37
  10   5   0   -0.13    0.38
 -11  -5   0    1.81    0.53
  11   5   0    0.95    0.48
 -12  -5   0    0.77    0.57
 -11   6   0    5.80    0.83
 -10   6   0    3.50    0.67
  -9   6   0    6.59    0.67
  -9   6   0    6.29    0.59
  -8   6   0    2.37    0.44
  -8   6   0    3.56    0.47
  -7   6   0    8.99    0.58
  -7   6   0    7.51    0.57
  -6   6   0    4.71    0.35
  -6   6   0    4.49    0.41
  -6   6   0    4.09    0.41
  -6   6   0    4.61    0.43
  -5   6   0    1.48    0.33
  -5   6   0    2.63    0.33
  -5   6   0    1.69    0.26
  -5   6   0    2.02    0.27
  -5   6   0    2.33    0.32
  -5   6   0    1.62    0.31
  -4   6   0    1.54    0.29
  -4   6   0    1.97    0.24
  -4   6   0    1.86    0.23
  -4   6   0    2.33    0.28
  -4   6   0    1.62    0.26
  -4   6   0    1.61    0.32
  -4   6   0    2.06    0.28
   3  -6   0   10.25    0.57
  -3   6   0   10.95    0.48
  -3   6   0   11.79    0.42
  -3   6   0    9.81    0.50
  -3   6   0   10.24    0.56
  -3   6   0   11.11    0.52
  -3   6   0   10.23    0.49
   2  -6   0   16.08    0.71
  -2   6   0   17.90    0.72
  -2   6   0   17.72    0.60
  -2   6   0   16.25    0.60
  -2   6   0   17.16    0.63
  -2   6   0   17.09    0.53
  -2   6   0   16.68    0.62
   1  -6   0    0.04    0.19
  -1   6   0    0.20    0.12
  -1   6   0   -0.12    0.12
  -1   6   0    0.27    0.19
  -1   6   0    0.28    0.10
   0  -6   0   41.16    1.41
   0   6   0   41.30    1.41
  -1  -6   0   27.22    0.97
  -1  -6   0   26.90    0.94
  -2  -6   0   85.77    2.75
  -2  -6   0   85.94    2.76
   2   6   0   82.93    2.76
  -3  -6   0   44.59    1.43
  -3  -6   0   42.55    1.49
   3   6   0   45.96    1.51
   3   6   0   43.93    1.22
   3   6   0   43.86    1.36
   3   6   0   42.64    1.37
  -4  -6   0    5.47    0.30
   4   6   0    5.29    0.38
   4   6   0    5.47    0.40
   4   6   0    5.35    0.33
   4   6   0    5.48    0.30
   4   6   0    5.03    0.30
   4   6   0    6.04    0.31
  -5  -6   0   32.08    1.12
   5   6   0   31.19    1.11
   5   6   0   32.36    1.08
   5   6   0   32.11    1.09
   5   6   0   31.60    1.17
   5   6   0   31.98    1.09
   5   6   0   31.41    0.97
  -6  -6   0    0.42    0.24
   6   6   0    0.31    0.23
   6   6   0    0.27    0.28
   6   6   0    0.41    0.28
   6   6   0    0.25    0.21
   6   6   0    0.23    0.28
  -7  -6   0    0.14    0.25
   7   6   0    0.77    0.24
   7   6   0    0.42    0.27
   7   6   0    0.34    0.32
   7   6   0    0.72    0.32
  -8  -6   0   -0.07    0.26
   8   6   0   -0.25    0.27
   8   6   0    0.13    0.33
  -9  -6   0    8.48    0.59
   9   6   0    8.43    0.62
 -10  -6   0    5.61    0.49
  10   6   0    4.90    0.54
 -11  -6   0    3.28    0.53
  11   6   0    2.89    0.52
 -12  -6   0    4.23    0.63
  12   6   0    3.13    0.61
 -10   7   0   -0.57    0.67
  -9   7   0    4.15    0.51
  -9   7   0    4.14    0.61
  -8   7   0   11.59    0.78
  -8   7   0   12.44    0.71
  -7   7   0    6.24    0.55
  -7   7   0    7.25    0.60
  -6   7   0    8.00    0.57
  -6   7   0    8.30    0.65
  -6   7   0    8.06    0.55
  -6   7   0    7.90    0.53
  -5   7   0    7.75    0.51
  -5   7   0    6.68    0.52
  -5   7   0    7.62    0.49
  -5   7   0    8.17    0.53
  -5   7   0    7.35    0.59
   4  -7   0    4.37    0.42
  -4   7   0    3.86    0.28
  -4   7   0    4.04    0.36
  -4   7   0    4.08    0.34
  -4   7   0    4.04    0.30
  -4   7   0    4.14    0.35
  -4   7   0    4.44    0.36
   3  -7   0   16.43    0.76
  -3   7   0   16.23    0.64
  -3   7   0   15.92    0.64
  -3   7   0   15.32    0.67
  -3   7   0   16.90    0.67
  -3   7   0   16.85    0.56
  -3   7   0   16.44    0.75
  -3   7   0   15.79    0.64
   2  -7   0   27.61    1.05
  -2   7   0   27.79    0.89
  -2   7   0   26.37    0.90
  -2   7   0   27.19    1.05
  -2   7   0   27.25    0.92
  -2   7   0   27.53    0.81
  -2   7   0   27.69    0.96
   1  -7   0   34.04    1.22
  -1   7   0   33.01    1.07
  -1   7   0   35.44    1.23
  -1   7   0   33.76    1.06
  -1   7   0   34.08    1.13
   0  -7   0   -0.04    0.17
   0  -7   0   -0.05    0.20
   0   7   0   -0.05    0.18
  -1  -7   0    2.46    0.29
  -1  -7   0    2.82    0.23
  -2  -7   0   20.92    0.74
  -2  -7   0   20.40    0.79
   2   7   0   20.78    0.81
  -3  -7   0    4.63    0.37
  -3  -7   0    5.36    0.24
   3   7   0    4.88    0.39
   3   7   0    5.06    0.28
   3   7   0    4.89    0.23
   3   7   0    4.62    0.31
  -4  -7   0   28.21    1.02
  -4  -7   0   27.58    0.94
   4   7   0   26.04    0.82
   4   7   0   26.80    0.90
   4   7   0   27.17    0.87
   4   7   0   27.62    0.87
   4   7   0   27.01    1.03
   4   7   0   27.45    0.93
  -5  -7   0    0.89    0.20
   5   7   0    0.46    0.23
   5   7   0    0.41    0.20
   5   7   0    0.98    0.23
   5   7   0    0.75    0.19
   5   7   0    0.55    0.18
  -6  -7   0    3.89    0.30
   6   7   0    3.41    0.35
   6   7   0    2.63    0.33
   6   7   0    3.45    0.33
   6   7   0    3.56    0.27
   6   7   0    3.39    0.29
  -7  -7   0    1.45    0.27
   7   7   0    0.72    0.30
   7   7   0    1.02    0.25
   7   7   0    0.68    0.33
   7   7   0    1.08    0.33
   7   7   0    0.70    0.27
  -8  -7   0   20.01    0.84
   8   7   0   18.39    0.84
   8   7   0   21.22    0.88
  -9  -7   0   16.85    0.80
   9   7   0   17.11    0.83
 -10  -7   0    3.97    0.43
  10   7   0    3.88    0.50
 -11  -7   0    0.16    0.42
  11   7   0    0.66    0.48
 -12  -7   0    0.97    0.55
  12   7   0    0.63    0.52
 -10   8   0    3.81    0.60
 -10   8   0    3.35    0.75
  -9   8   0   10.78    0.88
  -9   8   0   10.75    0.74
  -8   8   0   13.76    0.75
  -8   8   0   12.23    0.86
  -7   8   0    5.49    0.49
  -7   8   0    5.07    0.49
  -6   8   0   10.19    0.59
  -6   8   0   10.40    0.57
  -6   8   0   10.60    0.69
  -6   8   0    9.75    0.62
  -5   8   0    6.04    0.50
  -5   8   0    5.73    0.46
  -5   8   0    6.45    0.47
  -5   8   0    5.47    0.43
  -5   8   0    6.43    0.49
   4  -8   0   19.73    0.88
  -4   8   0   18.57    0.65
  -4   8   0   18.26    0.75
  -4   8   0   18.24    0.77
  -4   8   0   18.01    0.79
  -4   8   0   18.47    0.76
  -4   8   0   18.50    0.77
   3  -8   0    6.41    0.53
  -3   8   0    5.52    0.44
  -3   8   0    7.16    0.35
  -3   8   0    6.48    0.40
  -3   8   0    7.25    0.52
  -3   8   0    6.92    0.36
  -3   8   0    6.62    0.40
  -3   8   0    6.49    0.50
  -3   8   0    6.56    0.43
   2  -8   0    0.18    0.27
  -2   8   0    0.32    0.27
  -2   8   0    0.16    0.19
  -2   8   0    0.13    0.14
  -2   8   0    0.10    0.13
  -2   8   0    0.05    0.16
  -2   8   0    0.16    0.19
   1  -8   0    1.03    0.26
  -1   8   0    0.82    0.25
  -1   8   0    0.84    0.14
  -1   8   0    0.90    0.14
  -1   8   0    0.71    0.16
   0  -8   0   13.83    0.63
   0  -8   0   14.88    0.66
   0   8   0   15.60    0.65
  -1  -8   0    3.67    0.34
  -1  -8   0    3.46    0.30
  -2  -8   0    5.94    0.33
  -2  -8   0    4.96    0.42
  -3  -8   0   39.11    1.26
  -3  -8   0   37.33    1.35
   3   8   0   37.22    1.17
   3   8   0   38.30    1.36
   3   8   0   37.24    1.05
   3   8   0   37.10    1.18
  -4  -8   0   13.63    0.52
  -4  -8   0   13.61    0.65
   4   8   0   14.22    0.57
   4   8   0   12.51    0.53
   4   8   0   13.35    0.47
  -5  -8   0   18.64    0.69
   5   8   0   17.93    0.73
   5   8   0   17.87    0.70
   5   8   0   17.37    0.63
   5   8   0   18.11    0.63
  -6  -8   0   25.95    0.96
   6   8   0   25.08    0.93
   6   8   0   26.11    0.86
   6   8   0   27.19    0.94
   6   8   0   26.53    0.98
   6   8   0   25.63    0.95
  -7  -8   0    8.27    0.51
   7   8   0    9.83    0.60
   7   8   0    9.13    0.47
   7   8   0    8.94    0.51
   7   8   0   10.04    0.54
   7   8   0    8.81    0.59
  -8  -8   0    7.26    0.53
   8   8   0    7.81    0.56
   8   8   0    6.86    0.53
   8   8   0    7.90    0.63
  -9  -8   0    1.08    0.31
   9   8   0    0.98    0.33
   9   8   0    1.30    0.37
 -10  -8   0   -0.39    0.30
  10   8   0    0.86    0.38
  11   8   0    1.41    0.48
  -9   9   0    3.86    0.67
  -9   9   0    4.78    0.59
  -8   9   0    1.37    0.51
  -8   9   0    1.82    0.43
  -7   9   0    0.49    0.37
  -7   9   0    0.17    0.39
  -6   9   0    0.60    0.32
  -6   9   0    0.29    0.33
  -6   9   0    0.39    0.26
  -6   9   0    0.58    0.33
  -5   9   0    0.12    0.30
  -5   9   0    0.08    0.30
  -5   9   0    0.65    0.24
  -5   9   0    0.10    0.28
  -5   9   0    0.51    0.29
  -4   9   0    0.87    0.27
  -4   9   0    0.47    0.28
  -4   9   0    1.38    0.28
  -4   9   0    0.82    0.27
  -4   9   0    0.89    0.27
  -4   9   0    0.83    0.25
  -4   9   0    1.09    0.23
   3  -9   0    4.94    0.47
  -3   9   0    5.18    0.35
  -3   9   0    5.39    0.48
  -3   9   0    5.08    0.33
  -3   9   0    5.46    0.43
  -3   9   0    4.88    0.32
   2  -9   0    3.62    0.39
  -2   9   0    3.77    0.28
  -2   9   0    3.49    0.25
  -2   9   0    4.40    0.27
  -2   9   0    4.03    0.40
  -2   9   0    3.88    0.33
   1  -9   0   18.76    0.81
  -1   9   0   18.20    0.66
  -1   9   0   18.23    0.66
  -1   9   0   18.00    0.64
  -1   9   0   20.02    0.82
   0  -9   0   15.95    0.72
   0  -9   0   17.60    0.75
  -1  -9   0    4.94    0.39
  -1  -9   0    5.70    0.46
  -2  -9   0   12.95    0.62
  -2  -9   0   13.22    0.56
  -3  -9   0   19.73    0.68
  -3  -9   0   18.38    0.80
   3   9   0   17.81    0.62
   3   9   0   18.09    0.64
  -4  -9   0   -0.39    0.30
   4   9   0   -0.07    0.16
   4   9   0    0.10    0.19
   4   9   0   -0.10    0.14
   5   9   0    2.58    0.26
   5   9   0    2.65    0.22
   5   9   0    2.77    0.24
   6   9   0    7.59    0.46
   6   9   0    7.36    0.36
   6   9   0    7.09    0.54
   6   9   0    7.54    0.49
   6   9   0    7.06    0.35
   7   9   0   -0.04    0.24
   7   9   0   -0.02    0.24
   7   9   0   -0.36    0.22
   7   9   0    0.05    0.21
   7   9   0   -0.09    0.26
   8   9   0    0.31    0.30
   8   9   0    0.41    0.30
   8   9   0    0.22    0.30
   9   9   0   -0.03    0.30
   9   9   0   -0.56    0.31
  10   9   0    8.56    0.60
  11   9   0    1.41    0.47
  -9  10   0   -0.03    0.60
  -9  10   0   -0.06    0.54
  -8  10   0    1.87    0.55
  -8  10   0    2.38    0.47
  -7  10   0    1.69    0.39
  -7  10   0    1.71    0.44
  -6  10   0   16.03    0.70
  -6  10   0   15.92    0.80
  -6  10   0   14.65    0.83
  -6  10   0   14.54    0.70
  -5  10   0   12.29    0.66
  -5  10   0   12.05    0.58
  -5  10   0   12.42    0.57
  -5  10   0   11.45    0.60
  -5  10   0   10.80    0.58
  -5  10   0   10.63    0.68
  -4  10   0    7.35    0.54
  -4  10   0    8.64    0.45
  -4  10   0    8.81    0.59
  -4  10   0    7.68    0.42
  -4  10   0    9.30    0.45
  -4  10   0    8.17    0.53
  -3  10   0    3.97    0.29
  -3  10   0    3.81    0.32
  -3  10   0    3.59    0.26
   2 -10   0    0.09    0.30
  -2  10   0    0.32    0.19
  -2  10   0    0.34    0.22
  -2  10   0    0.38    0.16
   1 -10   0    4.93    0.41
  -1  10   0    5.49    0.47
  -1  10   0    4.38    0.32
  -1  10   0    4.42    0.36
   0 -10   0   39.14    1.39
   0 -10   0   36.80    1.40
  -1 -10   0   18.93    0.84
  -1 -10   0   18.66    0.77
  -2 -10   0    6.37    0.40
  -2 -10   0    5.88    0.50
  -3 -10   0    0.10    0.32
  -4 -10   0   22.32    0.92
   4  10   0   21.33    0.73
   4  10   0   20.95    0.65
   4  10   0   20.61    0.76
  -5 -10   0    1.68    0.37
   5  10   0    1.82    0.20
   5  10   0    1.79    0.24
   5  10   0    1.78    0.22
   6  10   0    4.26    0.31
   6  10   0    4.07    0.33
   6  10   0    4.17    0.28
   7  10   0    3.91    0.34
   7  10   0    3.98    0.26
   7  10   0    4.42    0.36
   7  10   0    5.15    0.37
   8  10   0    1.65    0.26
   8  10   0    1.73    0.29
   8  10   0    1.50    0.33
   9  10   0    1.20    0.30
   9  10   0    0.51    0.35
   9  10   0    1.04    0.33
  10  10   0    1.40    0.37
  11  10   0    1.85    0.47
  -8  11   0    7.88    0.71
  -7  11   0    7.42    0.57
  -6  11   0    9.23    0.58
  -6  11   0   10.19    0.56
  -6  11   0   10.30    0.59
  -6  11   0    9.04    0.72
  -5  11   0   12.34    0.58
  -5  11   0   11.79    0.61
  -5  11   0   12.03    0.73
  -5  11   0   13.36    0.59
  -4  11   0    4.13    0.33
  -4  11   0    4.06    0.29
  -4  11   0    4.43    0.37
  -4  11   0    4.12    0.30
  -4  11   0    4.28    0.31
  -3  11   0    3.92    0.30
  -3  11   0    4.19    0.33
  -3  11   0    3.48    0.29
  -2  11   0    0.21    0.21
  -2  11   0    0.18    0.16
  -2  11   0    0.19    0.19
   1 -11   0    1.07    0.31
  -1  11   0    1.17    0.18
  -1  11   0    0.99    0.19
   0 -11   0    0.82    0.29
   0 -11   0    1.32    0.36
  -1 -11   0   14.17    0.66
  -1 -11   0   14.76    0.71
  -2 -11   0    0.44    0.35
  -3 -11   0    4.26    0.42
   4  11   0    7.11    0.39
   4  11   0    6.41    0.35
   4  11   0    6.89    0.31
   5  11   0    8.02    0.47
   5  11   0    7.71    0.38
   5  11   0    7.28    0.42
   6  11   0   20.08    0.69
   6  11   0   21.39    0.82
   6  11   0   21.16    0.80
   7  11   0    3.30    0.32
   7  11   0    3.14    0.28
   7  11   0    3.88    0.33
   8  11   0    3.06    0.37
   9  11   0    3.56    0.44
   9  11   0    3.42    0.29
   9  11   0    3.06    0.30
  10  11   0   -0.09    0.30
  10  11   0    0.41    0.26
  -7  12   0    1.27    0.44
  -6  12   0    1.43    0.31
  -6  12   0    2.05    0.33
  -6  12   0    1.53    0.44
  -5  12   0   -0.17    0.36
  -5  12   0    0.04    0.21
  -5  12   0    0.08    0.27
  -5  12   0    0.19    0.21
  -4  12   0    0.94    0.25
  -4  12   0    0.70    0.26
  -4  12   0    0.89    0.33
  -3  12   0    6.21    0.46
  -3  12   0    5.64    0.50
  -3  12   0    5.38    0.34
  -2  12   0    4.72    0.37
  -2  12   0    4.30    0.29
  -2  12   0    4.55    0.31
   1 -12   0    0.56    0.29
  -1  12   0    0.40    0.14
  -1  12   0    0.07    0.16
  -1  12   0    0.13    0.19
   0 -12   0   30.19    1.17
   4  12   0    9.90    0.37
   4  12   0   10.06    0.41
   5  12   0    2.38    0.23
   5  12   0    2.71    0.20
   5  12   0    2.38    0.24
   6  12   0   -0.26    0.22
   6  12   0   -0.12    0.17
   6  12   0   -0.02    0.23
   7  12   0    0.11    0.20
   7  12   0    0.02    0.28
   7  12   0    0.32    0.26
   8  12   0    0.30    0.34
   9  12   0   -0.29    0.39
  10  12   0    0.17    0.46
  -7  13   0    2.34    0.36
  -7  13   0    3.01    0.36
  -6  13   0    5.32    0.37
  -6  13   0    5.88    0.57
  -5  13   0   13.73    0.69
  -5  13   0   12.14    0.81
  -4  13   0    8.04    0.52
  -4  13   0    7.36    0.66
  -3  13   0   26.07    0.94
  -3  13   0   24.35    0.99
  -3  13   0   25.96    0.86
  -2  13   0    6.28    0.34
  -2  13   0    6.23    0.42
  -2  13   0    5.93    0.48
  -1  13   0    1.87    0.20
  -1  13   0    1.79    0.19
  -1  13   0    1.72    0.24
   4  13   0    0.02    0.13
   5  13   0    4.90    0.37
   5  13   0    4.50    0.32
   5  13   0    4.75    0.40
   6  13   0    2.42    0.29
   6  13   0    2.64    0.29
   6  13   0    2.31    0.22
   7  13   0    3.51    0.36
   7  13   0    3.33    0.35
   7  13   0    2.93    0.26
   8  13   0    4.80    0.44
   9  13   0    3.00    0.46
  -5  14   0    6.92    0.48
  -4  14   0    5.58    0.40
  -4  14   0    5.10    0.48
  -3  14   0    1.27    0.36
  -3  14   0    1.78    0.29
  -3  14   0    1.59    0.28
  -2  14   0    0.09    0.23
  -2  14   0    0.32    0.22
  -2  14   0    0.30    0.29
  -1  14   0    0.33    0.18
  -1  14   0    0.05    0.19
   5  14   0   10.70    0.42
   5  14   0   11.72    0.50
   6  14   0   12.47    0.51
   6  14   0   14.22    0.67
   6  14   0   14.43    0.62
   7  14   0    8.32    0.63
   7  14   0    7.00    0.41
   7  14   0    8.56    0.58
   8  14   0    1.08    0.39
  -5  15   0    0.03    0.36
  -4  15   0    0.43    0.32
  -3  15   0    6.40    0.49
  -3  15   0    5.77    0.41
  -2  15   0    5.77    0.42
  -2  15   0    4.99    0.36
  -1  15   0    6.70    0.37
   5  15   0    8.32    0.36
   6  15   0    9.13    0.58
   6  15   0    8.31    0.41
   6  15   0    8.82    0.50
   7  15   0    0.11    0.33
   7  15   0    0.21    0.32
   7  15   0    0.13    0.22
   8  15   0   -0.17    0.38
  -3  16   0    7.98    0.55
  -3  16   0    7.54    0.60
  -2  16   0   13.90    0.60
  -2  16   0   14.65    0.66
  -1  16   0    5.08    0.36
   6  16   0    6.30    0.35
   6  16  -1    2.17    0.25
   0  16  -1    3.18    0.23
  -1  16  -1    6.12    0.38
  -2  16  -1    8.73    0.54
  -3  16  -1    6.90    0.59
   7  15  -1    0.14    0.23
   7  15  -1    0.25    0.34
   7  15  -1   -0.44    0.33
   6  15  -1    2.73    0.25
   6  15  -1    2.82    0.33
   6  15  -1    2.78    0.33
   5  15  -1    3.60    0.25
  -1  15  -1    0.27    0.21
  -2  15  -1    1.84    0.30
  -2  15  -1    0.89    0.25
  -2  15  -1    0.96    0.34
  -3  15  -1    0.98    0.33
  -3  15  -1    1.09    0.40
  -3  15  -1    0.95    0.30
  -4  15  -1    0.02    0.44
  -4  15  -1    0.28    0.33
   8  14  -1    0.77    0.38
   7  14  -1    4.66    0.40
   7  14  -1    3.56    0.30
   7  14  -1    3.75    0.38
   6  14  -1   16.30    0.72
   6  14  -1   13.98    0.55
   5  14  -1    7.45    0.39
   5  14  -1    8.11    0.43
  -1  14  -1    1.14    0.27
  -1  14  -1    1.24    0.23
  -1  14  -1    1.51    0.21
  -2  14  -1    0.67    0.22
  -2  14  -1    0.30    0.31
  -2  14  -1    0.59    0.25
  -3  14  -1    1.37    0.27
  -3  14  -1    1.59    0.38
  -3  14  -1    1.53    0.30
  -4  14  -1    3.40    0.47
  -4  14  -1    4.24    0.38
  -5  14  -1   15.04    0.96
  -5  14  -1   16.10    0.79
   9  13  -1    5.29    0.52
   8  13  -1    1.28    0.39
   7  13  -1    4.27    0.37
   7  13  -1    3.53    0.37
   7  13  -1    3.22    0.28
   6  13  -1    5.05    0.39
   6  13  -1    5.57    0.37
   6  13  -1    6.07    0.48
   5  13  -1    1.97    0.20
   5  13  -1    2.08    0.25
   5  13  -1    2.06    0.25
   4  13  -1    4.62    0.26
  -1  13  -1    3.82    0.33
  -1  13  -1    4.64    0.27
  -1  13  -1    3.96    0.29
  -2  13  -1   10.45    0.58
  -2  13  -1   10.99    0.52
  -2  13  -1   10.86    0.45
  -3  13  -1   16.54    0.69
  -3  13  -1   15.08    0.76
  -3  13  -1   15.67    0.60
  -4  13  -1    5.32    0.47
  -4  13  -1    5.34    0.42
  -5  13  -1    4.52    0.41
  -5  13  -1    5.51    0.53
  -6  13  -1    4.36    0.56
  10  12  -1    1.28    0.49
   9  12  -1    0.10    0.41
   8  12  -1   -0.07    0.35
   7  12  -1    0.49    0.30
   7  12  -1    0.66    0.28
   7  12  -1    0.41    0.22
   6  12  -1    1.21    0.27
   6  12  -1    1.69    0.22
   6  12  -1    2.16    0.28
   5  12  -1    1.67    0.23
   5  12  -1    1.84    0.23
   5  12  -1    1.92    0.19
   4  12  -1   15.49    0.50
   0 -12   1   16.55    0.77
  -1  12  -1    3.65    0.32
  -1  12  -1    4.17    0.36
  -2  12  -1    1.49    0.20
  -2  12  -1    1.52    0.22
  -2  12  -1    1.82    0.26
  -3  12  -1    3.74    0.30
  -3  12  -1    3.05    0.34
  -3  12  -1    3.16    0.26
  -4  12  -1   -0.02    0.23
  -4  12  -1    0.04    0.33
  -4  12  -1    0.16    0.25
  -5  12  -1    0.02    0.27
  -5  12  -1   -0.41    0.37
  -6  12  -1    2.13    0.31
  -6  12  -1    1.59    0.31
  -6  12  -1    1.94    0.47
  -7  12  -1    2.52    0.43
  10  11  -1    0.04    0.28
  10  11  -1   -0.23    0.23
   9  11  -1    5.42    0.31
   9  11  -1    6.80    0.52
   8  11  -1    0.02    0.33
   7  11  -1    1.66    0.30
   7  11  -1    1.41    0.25
   7  11  -1    1.78    0.31
   6  11  -1    8.90    0.52
   6  11  -1    8.19    0.55
   6  11  -1    9.33    0.45
   5  11  -1    6.17    0.44
   5  11  -1    6.55    0.36
   5  11  -1    6.28    0.39
   4  11  -1   15.46    0.59
   4  11  -1   15.64    0.57
   4  11  -1   15.55    0.51
  -1 -11   1    3.56    0.34
   0 -11   1    0.60    0.27
  -1  11  -1    6.36    0.39
  -1  11  -1    6.39    0.37
   1 -11   1    7.18    0.53
  -2  11  -1    0.03    0.21
  -2  11  -1   -0.27    0.14
  -2  11  -1    0.07    0.19
  -3  11  -1    0.73    0.19
  -3  11  -1    0.74    0.23
  -3  11  -1    1.08    0.27
  -4  11  -1   10.52    0.48
  -4  11  -1   10.19    0.64
  -4  11  -1   11.77    0.60
  -5  11  -1   18.47    0.86
  -5  11  -1   17.05    0.70
  -5  11  -1   18.58    0.72
  -5  11  -1   16.64    0.67
  -6  11  -1   13.19    0.68
  -6  11  -1   15.18    0.69
  -6  11  -1   13.20    0.85
  -7  11  -1   11.38    0.68
  -8  11  -1    7.24    0.65
  11  10  -1    1.03    0.44
  10  10  -1    0.61    0.35
   9  10  -1    2.37    0.42
   9  10  -1    3.64    0.34
   9  10  -1    3.17    0.37
   8  10  -1    1.65    0.23
   8  10  -1    2.05    0.34
   8  10  -1    1.38    0.26
   7  10  -1    3.83    0.30
   7  10  -1    3.56    0.35
   7  10  -1    3.92    0.33
   6  10  -1    0.66    0.25
   6  10  -1    0.69    0.23
   6  10  -1    0.60    0.20
   5  10  -1    0.41    0.19
   5  10  -1    0.24    0.22
   5  10  -1    0.54    0.18
   4  10  -1   -0.05    0.16
   4  10  -1    0.00    0.15
   4  10  -1    0.05    0.19
  -4 -10   1    0.18    0.33
  -3 -10   1    4.95    0.46
  -2 -10   1    8.13    0.45
  -2 -10   1    8.50    0.56
  -1 -10   1    9.21    0.55
  -1 -10   1   11.71    0.55
   0 -10   1   18.37    0.81
  -1  10  -1   22.19    0.79
  -1  10  -1   22.60    0.78
   1 -10   1   23.16    0.95
   1 -10   1   23.37    0.96
  -2  10  -1    9.71    0.48
  -2  10  -1    9.37    0.50
   2 -10   1    9.73    0.62
  -3  10  -1   15.87    0.58
  -3  10  -1   16.34    0.71
  -3  10  -1   17.55    0.69
  -4  10  -1    0.07    0.23
  -4  10  -1   -0.42    0.26
  -4  10  -1   -0.03    0.21
  -4  10  -1    0.09    0.25
  -4  10  -1   -0.01    0.20
  -4  10  -1    0.08    0.22
  -5  10  -1   16.27    0.69
  -5  10  -1   14.08    0.71
  -5  10  -1   15.73    0.67
  -5  10  -1   15.30    0.77
  -5  10  -1   15.07    0.61
  -6  10  -1    6.41    0.50
  -6  10  -1    6.06    0.50
  -6  10  -1    7.08    0.61
  -7  10  -1    0.02    0.38
  -7  10  -1    0.74    0.43
  -8  10  -1   -0.28    0.50
  -8  10  -1   -0.04    0.45
  -9  10  -1    0.37    0.53
  11   9  -1    1.33    0.47
  10   9  -1    1.91    0.41
   9   9  -1    0.58    0.35
   9   9  -1    0.47    0.31
   8   9  -1    1.29    0.32
   8   9  -1    1.21    0.28
   8   9  -1    0.43    0.29
   7   9  -1    0.42    0.25
   7   9  -1    0.88    0.24
   7   9  -1    0.34    0.28
   7   9  -1    0.81    0.25
   7   9  -1    0.76    0.23
   6   9  -1    0.41    0.22
   6   9  -1    0.61    0.21
   6   9  -1    0.13    0.26
   5   9  -1    7.03    0.38
   5   9  -1    6.11    0.42
   5   9  -1    6.75    0.48
   4   9  -1    1.64    0.19
   4   9  -1    2.08    0.18
   4   9  -1    1.85    0.22
  -4  -9   1    1.78    0.36
   3   9  -1    9.73    0.39
   3   9  -1    9.50    0.33
  -3  -9   1    9.76    0.44
  -3  -9   1   10.45    0.58
  -2  -9   1   17.68    0.82
  -2  -9   1   22.67    0.79
  -1  -9   1   40.90    1.44
   0  -9   1   91.27    3.05
  -1   9  -1   10.91    0.47
  -1   9  -1   10.17    0.45
   1  -9   1   10.78    0.58
  -2   9  -1   28.51    0.98
  -2   9  -1   26.58    0.95
  -2   9  -1   27.40    0.94
   2  -9   1   27.63    1.11
  -3   9  -1    0.82    0.20
  -3   9  -1    0.47    0.25
  -3   9  -1    0.63    0.21
  -3   9  -1    0.68    0.20
  -3   9  -1    0.54    0.25
  -3   9  -1    0.22    0.22
   3  -9   1    1.01    0.35
  -4   9  -1    0.11    0.27
  -4   9  -1   -0.39    0.23
  -4   9  -1   -0.10    0.26
  -4   9  -1   -0.07    0.26
  -4   9  -1   -0.27    0.23
  -4   9  -1   -0.26    0.20
  -5   9  -1    0.13    0.21
  -5   9  -1    0.27    0.28
  -5   9  -1    0.66    0.30
  -5   9  -1   -0.11    0.28
  -5   9  -1   -0.25    0.28
  -5   9  -1    0.31    0.29
  -6   9  -1    3.80    0.42
  -6   9  -1    4.16    0.43
  -6   9  -1    4.05    0.34
  -6   9  -1    3.57    0.42
  -7   9  -1    2.37    0.40
  -7   9  -1    2.61    0.47
  -8   9  -1    2.69    0.46
  -8   9  -1    3.17    0.54
  -9   9  -1   16.74    1.11
  -9   9  -1   15.49    0.94
  11   8  -1    0.38    0.45
  10   8  -1    0.31    0.37
   9   8  -1    2.72    0.40
   9   8  -1    2.89    0.39
   8   8  -1   12.04    0.66
   8   8  -1   11.87    0.63
   8   8  -1   11.43    0.66
  -8  -8   1   11.98    0.62
   7   8  -1    0.11    0.25
   7   8  -1   -0.01    0.22
   7   8  -1   -0.07    0.28
   7   8  -1    0.61    0.28
   7   8  -1   -0.06    0.24
  -7  -8   1   -0.13    0.22
   6   8  -1    0.77    0.23
   6   8  -1    0.96    0.27
   6   8  -1    0.55    0.25
   6   8  -1    0.76    0.22
   6   8  -1    0.69    0.24
  -6  -8   1    0.57    0.22
   5   8  -1    1.33    0.25
   5   8  -1    1.34    0.21
   5   8  -1    1.25    0.22
  -5  -8   1    1.64    0.20
   4   8  -1    2.02    0.20
   4   8  -1    2.18    0.23
  -4  -8   1    2.43    0.18
  -4  -8   1    2.38    0.35
   3   8  -1   33.50    0.94
   3   8  -1   33.23    1.06
  -3  -8   1   35.02    1.14
  -3  -8   1   32.11    1.21
  -2  -8   1   16.33    0.65
  -2  -8   1   17.02    0.73
  -1  -8   1   15.29    0.67
  -1  -8   1   15.73    0.64
   0  -8   1    4.42    0.37
  -1   8  -1    0.70    0.17
  -1   8  -1    0.63    0.14
  -1   8  -1    0.63    0.15
   1  -8   1    0.71    0.26
  -2   8  -1    4.23    0.36
  -2   8  -1    3.81    0.33
  -2   8  -1    3.69    0.27
  -2   8  -1    4.96    0.45
   2  -8   1    4.19    0.39
  -3   8  -1    7.41    0.50
  -3   8  -1    8.43    0.44
  -3   8  -1    8.25    0.48
  -3   8  -1    8.63    0.39
  -3   8  -1    8.33    0.52
   3  -8   1    8.80    0.56
  -4   8  -1    1.33    0.28
  -4   8  -1    0.90    0.29
  -4   8  -1    0.83    0.25
  -4   8  -1    0.99    0.29
  -4   8  -1    1.00    0.28
  -4   8  -1    1.41    0.28
  -4   8  -1    1.44    0.23
  -5   8  -1    7.78    0.59
  -5   8  -1    7.35    0.43
  -5   8  -1    7.03    0.48
  -5   8  -1    7.33    0.52
  -5   8  -1    7.70    0.52
  -6   8  -1    1.97    0.35
  -6   8  -1    1.83    0.34
  -6   8  -1    1.79    0.28
  -6   8  -1    1.78    0.35
  -7   8  -1    9.83    0.62
  -7   8  -1   10.12    0.65
  -8   8  -1   15.79    0.81
  -8   8  -1   15.06    0.94
  -9   8  -1    5.94    0.70
  -9   8  -1    5.98    0.60
 -10   8  -1    2.59    0.71
 -10   8  -1    3.20    0.59
  12   7  -1    1.77    0.59
 -12  -7   1    1.82    0.55
  11   7  -1    0.56    0.47
 -11  -7   1   -0.15    0.43
  10   7  -1    3.30    0.48
 -10  -7   1    4.17    0.45
   9   7  -1   27.09    1.13
  -9  -7   1   30.21    1.15
   8   7  -1   16.08    0.74
   8   7  -1   13.20    0.71
  -8  -7   1   14.87    0.72
   7   7  -1    1.83    0.32
   7   7  -1    2.47    0.31
   7   7  -1    2.18    0.36
   7   7  -1    1.92    0.34
   7   7  -1    2.27    0.28
  -7  -7   1    2.40    0.29
   6   7  -1    1.05    0.23
   6   7  -1    1.03    0.28
   6   7  -1    1.60    0.30
   6   7  -1    0.59    0.29
   6   7  -1    1.11    0.26
  -6  -7   1    1.35    0.24
   5   7  -1    2.99    0.26
   5   7  -1    3.48    0.29
   5   7  -1    3.60    0.28
   5   7  -1    3.40    0.25
  -5  -7   1    3.68    0.34
   4   7  -1   21.61    0.77
   4   7  -1   21.30    0.74
   4   7  -1   20.17    0.66
  -4  -7   1   20.85    0.85
   3   7  -1   10.64    0.42
   3   7  -1   10.39    0.36
   3   7  -1   10.46    0.55
  -3  -7   1   11.23    0.42
  -3  -7   1    9.80    0.53
  -3  -7   1   11.11    0.43
   2   7  -1    0.44    0.23
  -2  -7   1    0.17    0.24
  -2  -7   1    0.10    0.14
  -1  -7   1    0.47    0.23
  -1  -7   1    0.46    0.17
   0   7  -1    3.96    0.21
   0  -7   1    4.41    0.33
  -1   7  -1   16.22    0.69
  -1   7  -1   15.13    0.58
  -1   7  -1   15.97    0.56
  -1   7  -1   16.23    0.57
   1  -7   1   16.16    0.69
  -2   7  -1   76.32    2.57
  -2   7  -1   76.14    2.31
  -2   7  -1   75.90    2.46
  -2   7  -1   74.24    2.31
  -2   7  -1   74.27    2.32
   2  -7   1   75.84    2.57
  -3   7  -1   77.85    2.47
  -3   7  -1   76.22    2.34
  -3   7  -1   72.47    2.33
  -3   7  -1   74.16    2.09
  -3   7  -1   75.70    2.34
  -3   7  -1   74.62    2.32
  -3   7  -1   73.71    2.57
  -3   7  -1   75.46    2.34
   3  -7   1   72.74    2.56
  -4   7  -1   36.24    1.25
  -4   7  -1   36.89    1.22
  -4   7  -1   35.74    1.24
  -4   7  -1   37.36    1.30
  -4   7  -1   34.95    1.25
  -4   7  -1   35.33    1.09
   4  -7   1   35.12    1.39
  -5   7  -1    0.72    0.30
  -5   7  -1    0.23    0.30
  -5   7  -1   -0.03    0.28
  -5   7  -1    0.16    0.23
  -5   7  -1    0.16    0.32
  -6   7  -1    1.36    0.35
  -6   7  -1    1.24    0.34
  -6   7  -1    1.38    0.32
  -6   7  -1    1.04    0.27
  -7   7  -1   -0.19    0.34
  -7   7  -1    0.16    0.35
  -8   7  -1    3.80    0.49
  -8   7  -1    2.68    0.49
  -9   7  -1    0.35    0.56
  -9   7  -1    0.09    0.42
 -10   7  -1    0.03    0.68
  12   6  -1    2.71    0.58
 -12  -6   1    2.34    0.59
  11   6  -1    1.96    0.48
 -11  -6   1    2.86    0.53
  10   6  -1    7.99    0.65
 -10  -6   1    9.06    0.67
   9   6  -1    4.85    0.51
  -9  -6   1    5.54    0.53
   8   6  -1    0.36    0.29
   8   6  -1    0.66    0.34
  -8  -6   1    0.19    0.27
   7   6  -1   -0.25    0.32
   7   6  -1   -0.17    0.27
   7   6  -1   -0.30    0.22
   7   6  -1   -0.19    0.30
  -7  -6   1    0.08    0.26
   6   6  -1   23.69    0.91
   6   6  -1   24.50    0.90
   6   6  -1   24.16    0.91
   6   6  -1   23.30    0.95
   6   6  -1   22.29    0.82
  -6  -6   1   24.57    0.92
   5   6  -1    2.03    0.28
   5   6  -1    2.08    0.26
   5   6  -1    2.02    0.22
   5   6  -1    2.23    0.27
   5   6  -1    2.16    0.24
  -5  -6   1    2.24    0.23
   4   6  -1    4.44    0.33
   4   6  -1    3.87    0.28
   4   6  -1    3.30    0.25
   4   6  -1    4.12    0.26
   4   6  -1    4.84    0.35
   4   6  -1    4.28    0.29
   3   6  -1   17.04    0.69
   3   6  -1   15.96    0.56
   3   6  -1   16.24    0.50
  -3  -6   1   17.06    0.57
  -3  -6   1   16.41    0.58
  -3  -6   1   15.81    0.67
   2   6  -1    2.17    0.17
   2   6  -1    1.84    0.25
  -2  -6   1    1.71    0.26
  -2  -6   1    2.44    0.18
   0   6  -1   24.32    0.80
   0  -6   1   23.75    0.89
  -1   6  -1    0.44    0.13
  -1   6  -1    0.36    0.11
  -1   6  -1    0.58    0.21
  -1   6  -1    0.46    0.12
   1  -6   1    0.47    0.21
  -2   6  -1   68.19    2.11
  -2   6  -1   67.46    2.11
  -2   6  -1   70.89    2.24
  -2   6  -1   70.41    2.11
  -2   6  -1   66.08    2.10
  -2   6  -1   68.50    2.32
   2  -6   1   67.82    2.33
  -3   6  -1   26.01    0.94
  -3   6  -1   26.91    0.96
  -3   6  -1   27.26    0.92
  -3   6  -1   26.41    1.04
  -3   6  -1   27.52    0.92
  -3   6  -1   26.01    0.81
   3  -6   1   25.90    1.04
  -4   6  -1    0.27    0.26
  -4   6  -1    0.56    0.27
  -4   6  -1    0.43    0.24
  -4   6  -1    0.18    0.20
  -4   6  -1    0.06    0.13
  -4   6  -1    0.64    0.22
  -4   6  -1    0.63    0.30
  -5   6  -1   -0.08    0.16
  -5   6  -1   -0.04    0.23
  -5   6  -1    0.08    0.30
  -5   6  -1    0.29    0.28
  -5   6  -1   -0.12    0.30
  -5   6  -1    0.44    0.25
   5  -6   1    0.37    0.16
  -6   6  -1   -0.06    0.28
  -6   6  -1    0.31    0.32
  -6   6  -1   -0.31    0.32
  -6   6  -1   -0.05    0.26
  -7   6  -1    3.71    0.44
  -7   6  -1    3.41    0.41
  -8   6  -1    1.22    0.44
  -8   6  -1    0.46    0.39
  -9   6  -1    9.16    0.81
  -9   6  -1    7.85    0.69
 -10   6  -1    3.63    0.69
 -12  -5   1   -0.71    0.56
  11   5  -1    3.93    0.56
 -11  -5   1    5.52    0.61
  10   5  -1    0.10    0.41
 -10  -5   1    0.04    0.36
   9   5  -1    0.53    0.38
  -9  -5   1    1.02    0.32
   8   5  -1   -0.01    0.32
   8   5  -1    0.60    0.28
  -8  -5   1    0.23    0.29
   7   5  -1   16.63    0.79
   7   5  -1   18.66    0.80
  -7  -5   1   17.71    0.78
   6   5  -1   45.08    1.58
   6   5  -1   47.45    1.55
   6   5  -1   48.07    1.58
   6   5  -1   47.97    1.56
   6   5  -1   49.35    1.40
  -6  -5   1   45.49    1.62
  -6  -5   1   45.78    1.56
   5   5  -1    5.19    0.38
   5   5  -1    5.55    0.25
   5   5  -1    6.35    0.43
   5   5  -1    4.40    0.41
   5   5  -1    5.19    0.38
   5   5  -1    5.10    0.33
  -5  -5   1    5.69    0.28
   4   5  -1    9.84    0.49
   4   5  -1   10.42    0.45
   4   5  -1   10.70    0.51
   4   5  -1   10.07    0.40
   4   5  -1    9.58    0.44
   3   5  -1    0.32    0.12
   3   5  -1    0.19    0.11
   3   5  -1    0.52    0.21
   3   5  -1    0.19    0.12
  -3  -5   1    0.36    0.10
  -3  -5   1    0.32    0.21
  -3  -5   1    0.29    0.12
   2   5  -1   71.50    2.29
   2   5  -1   72.33    1.93
   2   5  -1   70.57    2.33
   2   5  -1   71.42    2.15
  -2  -5   1   71.70    2.32
  -1  -5   1   91.66    2.97
   0   5  -1   17.22    0.58
   0  -5   1   17.37    0.66
  -1   5  -1    7.08    0.31
  -1   5  -1    7.29    0.40
  -1   5  -1    7.18    0.31
   1  -5   1    7.31    0.40
  -2   5  -1    0.57    0.14
  -2   5  -1    0.54    0.22
  -2   5  -1    0.43    0.15
  -2   5  -1    0.71    0.17
  -2   5  -1    0.46    0.16
  -2   5  -1    0.63    0.18
  -2   5  -1    0.55    0.16
   2  -5   1    0.04    0.21
  -3   5  -1   41.08    1.34
  -3   5  -1   42.24    1.47
  -3   5  -1   39.32    1.39
  -3   5  -1   40.22    1.32
  -3   5  -1   41.53    1.34
  -3   5  -1   40.75    1.31
  -3   5  -1   39.63    1.17
   3  -5   1   41.99    1.47
  -4   5  -1   18.47    0.72
  -4   5  -1   17.98    0.74
  -4   5  -1   18.40    0.75
  -4   5  -1   18.66    0.81
  -4   5  -1   18.17    0.64
  -4   5  -1   19.12    0.76
  -4   5  -1   19.16    0.75
  -5   5  -1    2.56    0.33
  -5   5  -1    3.13    0.37
  -5   5  -1    2.48    0.30
  -5   5  -1    2.56    0.27
  -5   5  -1    2.47    0.35
  -5   5  -1    1.98    0.28
   5  -5   1    2.26    0.37
  -6   5  -1   13.76    0.72
  -6   5  -1   12.91    0.68
  -6   5  -1   13.95    0.76
  -6   5  -1   13.98    0.62
  -7   5  -1   15.64    0.79
  -7   5  -1   14.89    0.76
  -8   5  -1    9.71    0.70
  -8   5  -1   10.72    0.71
  -9   5  -1    8.89    0.77
 -10   5  -1    3.08    0.66
 -11   5  -1    5.86    0.87
 -12  -4   1    6.13    0.70
 -11  -4   1   14.51    0.91
  10   4  -1   12.34    0.79
 -10  -4   1   11.87    0.79
   9   4  -1   11.16    0.70
  -9  -4   1   11.38    0.65
   8   4  -1    0.73    0.38
  -8  -4   1    0.13    0.30
   7   4  -1   18.74    0.77
   7   4  -1   15.01    0.76
  -7  -4   1   16.59    0.68
  -7  -4   1   17.44    0.75
   6   4  -1   10.90    0.44
   6   4  -1    9.82    0.56
   6   4  -1    9.52    0.58
   6   4  -1    9.61    0.64
   6   4  -1    8.29    0.59
   6   4  -1    9.89    0.52
  -6  -4   1   10.82    0.46
  -6  -4   1    9.65    0.56
   5   4  -1   -0.07    0.21
   5   4  -1    0.47    0.22
   5   4  -1    0.69    0.24
   5   4  -1    0.55    0.19
   5   4  -1    0.86    0.14
   5   4  -1    0.30    0.18
   5   4  -1    0.17    0.24
  -5  -4   1    0.62    0.15
  -5  -4   1    0.38    0.19
   4   4  -1    2.73    0.16
   4   4  -1    2.30    0.24
   4   4  -1    2.64    0.24
   4   4  -1    2.32    0.19
   4   4  -1    2.63    0.23
   4   4  -1    2.40    0.19
   4   4  -1    2.60    0.26
  -4  -4   1    2.50    0.21
  -4  -4   1    1.97    0.19
   3   4  -1   12.45    0.43
   3   4  -1   14.00    0.55
   3   4  -1   13.78    0.49
   3   4  -1   12.91    0.48
   3   4  -1   12.45    0.48
  -3  -4   1   12.72    0.46
   2   4  -1    0.21    0.08
   2   4  -1    0.19    0.09
   2   4  -1    0.16    0.09
   2   4  -1    0.16    0.18
   2   4  -1    0.17    0.10
  -2  -4   1    0.04    0.05
   1   4  -1   17.88    0.66
  -1  -4   1   18.19    0.64
   0   4  -1   51.29    1.56
   0  -4   1   52.37    1.72
  -1   4  -1   58.51    1.82
  -1   4  -1   60.83    1.83
  -1   4  -1   59.06    1.82
  -1   4  -1   60.66    2.00
  -1   4  -1   60.53    1.94
   1  -4   1   60.18    2.00
  -2   4  -1    4.32    0.34
  -2   4  -1    4.71    0.32
  -2   4  -1    3.76    0.28
  -2   4  -1    4.16    0.28
  -2   4  -1    4.24    0.28
  -2   4  -1    4.33    0.27
   2  -4   1    3.77    0.33
  -3   4  -1    0.66    0.21
  -3   4  -1    0.69    0.17
  -3   4  -1    0.45    0.22
  -3   4  -1    0.87    0.20
  -3   4  -1    0.55    0.15
  -3   4  -1    0.65    0.21
  -3   4  -1    0.60    0.15
   3  -4   1    0.84    0.08
  -4   4  -1   16.69    0.69
  -4   4  -1   16.72    0.73
  -4   4  -1   15.83    0.67
  -4   4  -1   17.05    0.58
  -4   4  -1   16.41    0.67
  -4   4  -1   17.53    0.68
  -4   4  -1   16.34    0.66
   4  -4   1   16.43    0.73
  -5   4  -1   51.32    1.65
  -5   4  -1   50.34    1.76
  -5   4  -1   51.68    1.49
  -5   4  -1   50.89    1.72
  -5   4  -1   52.10    1.68
  -5   4  -1   49.53    1.70
  -5   4  -1   50.19    1.81
   5  -4   1   51.33    1.83
  -6   4  -1   33.64    1.10
  -6   4  -1   35.54    1.23
  -6   4  -1   33.69    1.25
  -6   4  -1   32.81    1.25
   6  -4   1   31.89    1.30
  -7   4  -1    0.23    0.31
  -7   4  -1   -0.10    0.34
  -8   4  -1   -0.04    0.35
  -8   4  -1   -0.44    0.34
  -9   4  -1    0.71    0.49
 -10   4  -1    0.45    0.61
 -11   4  -1    0.05    0.69
 -12  -3   1    2.38    0.70
 -11  -3   1    1.03    0.54
 -10  -3   1   10.14    0.77
   9   3  -1    2.00    0.46
  -9  -3   1    1.53    0.37
   8   3  -1    2.66    0.44
  -8  -3   1    3.07    0.40
   7   3  -1    2.10    0.38
   7   3  -1    2.30    0.30
   7   3  -1    2.01    0.28
  -7  -3   1    2.12    0.28
  -7  -3   1    1.72    0.33
   6   3  -1   -0.01    0.28
   6   3  -1   -0.02    0.21
   6   3  -1   -0.35    0.19
   6   3  -1   -0.16    0.25
   6   3  -1   -0.21    0.22
   6   3  -1    0.08    0.31
  -6  -3   1   -0.25    0.20
  -6  -3   1   -0.08    0.22
   5   3  -1    1.80    0.19
   5   3  -1    1.32    0.23
   5   3  -1    1.34    0.19
   5   3  -1    1.84    0.26
   5   3  -1    1.62    0.28
   5   3  -1    1.76    0.21
  -5  -3   1    1.85    0.19
  -5  -3   1    1.33    0.21
   4   3  -1   53.56    1.53
   4   3  -1   55.01    1.74
   4   3  -1   51.75    1.72
   4   3  -1   55.73    1.71
   4   3  -1   57.36    1.77
   4   3  -1   54.66    1.69
  -4  -3   1   52.55    1.80
  -4  -3   1   53.24    1.78
   3   3  -1  232.10    6.99
   3   3  -1  229.60    6.94
   3   3  -1  225.56    6.93
   3   3  -1  222.00    7.38
   3   3  -1  248.67    7.31
   3   3  -1  232.58    6.99
   3   3  -1  227.35    6.24
   3   3  -1  239.99    7.39
  -3  -3   1  227.28    7.39
  -3  -3   1  233.90    7.38
   2   3  -1   22.58    0.67
   2   3  -1   23.21    0.79
   2   3  -1   24.12    0.76
   2   3  -1   22.83    0.75
   2   3  -1   23.81    0.82
   2   3  -1   23.94    0.76
  -2  -3   1   24.19    0.78
   1   3  -1   85.65    2.58
   1   3  -1   87.55    2.77
   0   3  -1  119.52    3.58
   0   3  -1  116.60    3.58
   0  -3   1  123.98    3.87
  -1   3  -1   98.69    3.03
  -1   3  -1  102.64    3.05
  -1   3  -1   97.30    3.05
  -1   3  -1  100.80    3.28
  -1   3  -1  103.46    3.22
  -1   3  -1   97.44    3.02
  -1   3  -1  102.27    3.05
   1  -3   1  103.36    3.28
  -2   3  -1  121.94    3.87
  -2   3  -1  113.60    3.62
  -2   3  -1  122.08    3.67
  -2   3  -1  121.19    3.93
  -2   3  -1  122.14    3.63
  -2   3  -1  122.62    3.67
  -3   3  -1   25.40    0.89
  -3   3  -1   27.00    0.89
  -3   3  -1   25.50    0.84
  -3   3  -1   25.08    0.95
  -3   3  -1   27.51    0.88
  -3   3  -1   24.68    0.76
  -3   3  -1   25.83    0.91
   3  -3   1   22.13    0.93
  -4   3  -1    5.12    0.42
  -4   3  -1    4.80    0.30
  -4   3  -1    4.91    0.38
  -4   3  -1    4.73    0.42
  -4   3  -1    4.32    0.38
  -4   3  -1    4.70    0.35
  -4   3  -1    4.47    0.37
   4  -3   1    5.12    0.38
  -5   3  -1    0.27    0.26
  -5   3  -1    0.52    0.27
  -5   3  -1    0.30    0.20
  -5   3  -1    0.11    0.20
  -5   3  -1    0.00    0.25
  -5   3  -1    0.21    0.26
  -5   3  -1   -0.07    0.25
   5  -3   1    0.18    0.28
   5  -3   1    0.47    0.30
  -6   3  -1    2.01    0.33
  -6   3  -1    1.67    0.27
  -6   3  -1    2.45    0.37
  -6   3  -1    2.26    0.36
  -6   3  -1    1.92    0.33
   6  -3   1    1.76    0.37
  -7   3  -1   11.10    0.70
  -7   3  -1   12.47    0.71
   7  -3   1   11.47    0.69
  -8   3  -1    0.96    0.38
  -8   3  -1    0.05    0.34
  -9   3  -1   10.28    0.76
 -10   3  -1    5.76    0.67
 -11   3  -1    7.69    0.82
 -12  -2   1    0.65    0.64
 -11  -2   1   -1.07    0.56
 -10  -2   1    0.32    0.44
   9   2  -1   11.20    0.74
  -9  -2   1   12.68    0.75
   8   2  -1   30.99    1.15
   8   2  -1   28.96    1.19
  -8  -2   1   30.43    1.19
  -8  -2   1   29.35    1.15
   7   2  -1   13.35    0.68
   7   2  -1   11.50    0.58
   7   2  -1   10.47    0.65
  -7  -2   1   11.27    0.62
  -7  -2   1   11.38    0.58
   6   2  -1    2.57    0.30
   6   2  -1    2.67    0.26
   6   2  -1    2.95    0.36
   6   2  -1    2.82    0.28
   6   2  -1    3.24    0.35
  -6  -2   1    2.91    0.30
  -6  -2   1    3.07    0.29
  -6  -2   1    2.89    0.35
   5   2  -1    1.12    0.26
   5   2  -1    1.06    0.19
   5   2  -1    0.79    0.18
   5   2  -1    1.01    0.26
   5   2  -1    0.75    0.21
   5   2  -1    1.00    0.20
  -5  -2   1    0.95    0.19
  -5  -2   1    0.97    0.21
   4   2  -1   41.06    1.34
   4   2  -1   42.84    1.39
   4   2  -1   41.70    1.36
   4   2  -1   42.23    1.40
   4   2  -1   40.29    1.38
   4   2  -1   41.20    1.21
  -4  -2   1   46.44    1.43
  -4  -2   1   40.82    1.41
   3   2  -1  143.08    3.99
   3   2  -1  151.43    4.72
   3   2  -1  145.21    4.47
   3   2  -1  148.64    4.43
   3   2  -1  148.36    4.42
   3   2  -1  138.86    4.71
   3   2  -1  143.81    4.47
  -3  -2   1  157.40    4.72
  -3  -2   1  148.51    4.72
   2   2  -1    6.14    0.26
   2   2  -1    5.82    0.31
   2   2  -1    7.05    0.26
   2   2  -1    6.77    0.31
   2   2  -1    6.48    0.31
   2   2  -1    6.20    0.29
   2   2  -1    6.49    0.29
  -2  -2   1    6.78    0.27
   1   2  -1    0.19    0.06
   1   2  -1    0.22    0.05
   1   2  -1    0.48    0.10
   1   2  -1    0.30    0.05
  -1  -2   1    0.11    0.02
   0   2  -1   62.56    1.94
   0   2  -1   67.43    1.96
   0   2  -1   63.80    1.94
   0  -2   1   66.56    2.11
  -1   2  -1    0.07    0.10
  -1   2  -1    0.22    0.08
  -1   2  -1    0.12    0.12
  -1   2  -1   -0.01    0.08
  -1   2  -1    0.21    0.09
  -1   2  -1    0.10    0.09
   1  -2   1    0.15    0.12
  -2   2  -1    6.65    0.38
  -2   2  -1    6.44    0.35
  -2   2  -1    7.03    0.35
  -2   2  -1    7.36    0.37
  -2   2  -1    7.09    0.37
  -2   2  -1    6.94    0.34
  -3   2  -1    1.62    0.20
  -3   2  -1    2.04    0.23
  -3   2  -1    2.30    0.24
  -3   2  -1    1.75    0.17
  -3   2  -1    1.46    0.16
  -3   2  -1    1.81    0.22
  -3   2  -1    1.82    0.20
  -4   2  -1    7.47    0.43
  -4   2  -1    7.35    0.43
  -4   2  -1    7.88    0.42
  -4   2  -1    7.71    0.46
  -4   2  -1    8.66    0.45
  -4   2  -1    8.04    0.36
   4  -2   1    6.89    0.43
   4  -2   1    7.82    0.46
  -5   2  -1    3.98    0.32
  -5   2  -1    4.01    0.35
  -5   2  -1    4.04    0.35
  -5   2  -1    3.49    0.31
  -5   2  -1    3.22    0.34
  -5   2  -1    3.67    0.30
   5  -2   1    3.98    0.36
   5  -2   1    3.67    0.36
  -6   2  -1    1.77    0.34
  -6   2  -1    2.14    0.37
  -6   2  -1    1.88    0.34
  -6   2  -1    1.97    0.26
  -6   2  -1    2.11    0.33
   6  -2   1    2.22    0.36
   6  -2   1    1.65    0.38
  -7   2  -1   10.85    0.68
  -7   2  -1   11.05    0.65
   7  -2   1   11.78    0.67
  -8   2  -1   28.77    1.17
  -9   2  -1    5.07    0.53
 -10   2  -1    0.08    0.62
 -11   2  -1    1.13    0.69
 -12   2  -1    0.53    0.75
 -12  -1   1    3.30    0.71
 -11  -1   1    8.53    0.79
 -10  -1   1    4.65    0.57
  -9  -1   1   15.14    0.80
   8   1  -1   19.29    0.91
   8   1  -1   19.58    0.86
  -8  -1   1   19.04    0.85
  -8  -1   1   19.41    0.88
   7   1  -1   17.45    0.83
   7   1  -1   18.03    0.78
  -7  -1   1   16.99    0.80
  -7  -1   1   18.43    0.78
   6   1  -1   42.04    1.50
   6   1  -1   42.49    1.49
   6   1  -1   41.44    1.47
   6   1  -1   43.99    1.43
   6   1  -1   44.13    1.30
  -6  -1   1   44.45    1.29
  -6  -1   1   42.53    1.50
  -6  -1   1   43.03    1.50
  -6  -1   1   42.33    1.51
   5   1  -1    0.27    0.24
   5   1  -1    0.44    0.17
   5   1  -1    1.00    0.26
   5   1  -1    0.42    0.14
  -5  -1   1    0.64    0.25
  -5  -1   1    0.47    0.17
  -5  -1   1    0.39    0.20
  -5  -1   1    0.78    0.21
   4   1  -1   12.62    0.47
   4   1  -1   13.05    0.54
   4   1  -1   13.16    0.55
   4   1  -1   12.41    0.51
   4   1  -1   12.16    0.52
  -4  -1   1   11.73    0.46
  -4  -1   1   12.46    0.51
  -4  -1   1   13.54    0.55
  -4  -1   1   11.51    0.52
   3   1  -1   86.02    2.63
   3   1  -1   83.01    2.76
   3   1  -1   83.38    2.58
   3   1  -1   82.83    2.33
   3   1  -1   86.72    2.63
   3   1  -1   82.68    2.75
   3   1  -1   83.90    2.59
  -3  -1   1   86.16    2.76
  -3  -1   1   87.62    2.63
  -3  -1   1   88.07    2.76
  -3  -1   1   84.87    2.33
   2   1  -1    9.30    0.36
   2   1  -1    9.29    0.34
   2   1  -1    8.90    0.36
   2   1  -1    9.19    0.35
   2   1  -1    8.55    0.34
  -2  -1   1    8.63    0.30
  -2  -1   1    8.96    0.35
   1   1  -1   14.91    0.47
   1   1  -1   15.65    0.48
   1   1  -1   13.79    0.46
   1   1  -1   15.31    0.50
   1   1  -1   14.94    0.49
   1   1  -1   14.05    0.41
  -1  -1   1   14.29    0.41
  -1  -1   1   15.04    0.49
   0   1  -1   61.17    1.88
   0   1  -1   62.50    1.89
   0  -1   1   65.85    1.99
  -1   1  -1  186.57    5.89
  -1   1  -1  174.41    5.49
  -1   1  -1  189.61    5.53
  -1   1  -1  185.61    5.53
  -1   1  -1  184.18    5.84
  -2   1  -1   82.52    2.51
  -2   1  -1   80.66    2.51
  -2   1  -1   82.73    2.66
  -2   1  -1   78.78    2.22
  -2   1  -1   80.27    2.63
  -2   1  -1   78.69    2.48
   2  -1   1   84.93    2.67
   2  -1   1   84.46    2.51
  -3   1  -1   10.92    0.48
  -3   1  -1   10.11    0.48
  -3   1  -1   11.03    0.48
  -3   1  -1   11.48    0.40
  -3   1  -1    9.41    0.47
  -3   1  -1   10.92    0.49
   3  -1   1   10.38    0.48
   3  -1   1   10.46    0.48
  -4   1  -1   10.86    0.49
  -4   1  -1   10.43    0.52
  -4   1  -1   10.65    0.51
  -4   1  -1   11.24    0.51
  -4   1  -1   11.87    0.42
   4  -1   1   10.70    0.52
   4  -1   1   10.94    0.50
  -5   1  -1    2.94    0.24
  -5   1  -1    3.24    0.30
  -5   1  -1    2.99    0.28
  -5   1  -1    2.94    0.28
  -5   1  -1    3.41    0.30
   5  -1   1    2.83    0.30
   5  -1   1    2.96    0.32
  -6   1  -1    9.89    0.58
  -6   1  -1   10.90    0.63
  -6   1  -1    9.17    0.57
  -6   1  -1    9.94    0.52
  -6   1  -1   10.66    0.61
   6  -1   1    9.54    0.62
   6  -1   1    9.91    0.56
  -7   1  -1    4.67    0.44
  -7   1  -1    4.38    0.41
  -7   1  -1    4.44    0.42
   7  -1   1    4.56    0.43
  -8   1  -1    9.14    0.62
   8  -1   1   10.01    0.61
  -9   1  -1   -0.78    0.38
 -10   1  -1    0.09    0.51
 -11   1  -1    0.87    0.62
 -12   1  -1    1.52    0.81
 -12   0   1   10.10    0.93
 -11   0   1    4.08    0.67
 -10   0   1    4.51    0.61
   9   0  -1    3.08    0.42
  -9   0   1    2.71    0.43
   8   0  -1    0.13    0.32
  -8   0   1    0.64    0.32
  -8   0   1    0.07    0.33
   7   0  -1   23.15    0.94
   7   0  -1   22.43    0.95
  -7   0   1   22.63    0.94
  -7   0   1   23.82    0.97
   6   0  -1    0.39    0.29
   6   0  -1    0.47    0.21
   6   0  -1    0.36    0.26
   6   0  -1    0.74    0.22
  -6   0   1    1.26    0.32
  -6   0   1    0.50    0.27
  -6   0   1    0.44    0.25
  -6   0   1    0.79    0.23
   5   0  -1   37.16    1.29
   5   0  -1   36.83    1.31
   5   0  -1   36.87    1.22
   5   0  -1   38.50    1.11
  -5   0   1   35.82    1.11
  -5   0   1   37.85    1.31
  -5   0   1   36.53    1.31
  -5   0   1   37.72    1.29
   4   0  -1   21.33    0.76
   4   0  -1   21.14    0.81
   4   0  -1   22.92    0.69
   4   0  -1   21.84    0.81
  -4   0   1   20.46    0.80
  -4   0   1   22.59    0.81
  -4   0   1   22.84    0.81
   3   0  -1    0.76    0.15
   3   0  -1    0.77    0.14
   3   0  -1    1.01    0.19
   3   0  -1    0.69    0.22
   3   0  -1    0.91    0.16
  -3   0   1    0.86    0.14
  -3   0   1    0.71    0.17
  -3   0   1    0.97    0.18
  -3   0   1    0.65    0.20
   2   0  -1    4.08    0.20
   2   0  -1    3.77    0.22
   2   0  -1    3.95    0.22
   2   0  -1    4.02    0.24
   2   0  -1    3.94    0.21
   2   0  -1    4.00    0.22
  -2   0   1    4.62    0.25
  -2   0   1    3.92    0.19
  -2   0   1    4.02    0.24
  -2   0   1    4.23    0.22
   1   0  -1  209.11    6.64
   1   0  -1  206.41    5.59
   1   0  -1  215.88    6.25
   1   0  -1  213.56    6.61
   1   0  -1  199.40    6.25
  -1   0   1  212.58    6.64
  -1   0   1  210.08    5.59
  -1   0   1  200.17    6.25
   0   0  -1   -0.09    0.01
   0   0  -1   -0.11    0.01
   0   0  -1   -0.07    0.01
   0   0  -1   -0.11    0.01
   0   0   1   -0.09    0.01
  -1   0  -1   96.69    2.89
  -1   0  -1   94.76    3.05
  -1   0  -1   96.83    2.89
   1   0   1   98.17    2.89
   1   0   1   92.39    3.07
  -2   0  -1   86.38    2.35
  -2   0  -1   85.12    2.80
  -2   0  -1   87.02    2.65
  -2   0  -1   85.38    2.78
   2   0   1   86.49    2.80
   2   0   1   89.41    2.65
  -3   0  -1   71.18    2.30
  -3   0  -1   69.66    1.93
  -3   0  -1   69.75    2.19
   3   0   1   68.07    2.30
   3   0   1   71.22    2.19
  -4   0  -1   79.98    2.54
  -4   0  -1   80.16    2.24
  -4   0  -1   84.49    2.67
   4   0   1   79.14    2.54
   4   0   1   81.04    2.24
  -5   0  -1   10.76    0.52
  -5   0  -1   10.22    0.52
  -5   0  -1   10.67    0.44
  -5   0  -1   10.66    0.54
   5   0   1   10.57    0.51
   5   0   1   10.74    0.55
  -6   0  -1    3.47    0.35
  -6   0  -1    4.30    0.41
  -6   0  -1    4.50    0.41
  -6   0  -1    3.97    0.29
   6   0   1    3.66    0.39
   6   0   1    5.08    0.41
   6   0   1    4.07    0.31
  -7   0  -1   22.56    0.93
  -7   0  -1   22.20    0.94
   7   0   1   23.21    0.98
   7   0   1   21.52    0.93
  -8   0  -1    1.76    0.39
   8   0   1    1.48    0.35
  -9   0  -1    1.62    0.41
   9   0   1    2.42    0.38
 -10   0  -1    3.51    0.56
 -11   0  -1    4.21    0.67
 -12   0  -1    2.94    0.80
 -12   1   1    0.67    0.71
 -11   1   1    1.46    0.65
 -10   1   1    0.19    0.54
  -9   1   1    5.77    0.53
   8  -1  -1    0.69    0.34
  -8   1   1   -0.34    0.33
   7  -1  -1   22.21    0.97
   7  -1  -1   20.92    0.92
  -7   1   1   21.84    0.92
  -7   1   1   21.38    0.92
  -7   1   1   20.55    0.94
   6  -1  -1   90.02    3.10
   6  -1  -1   94.33    2.99
   6  -1  -1   93.72    2.61
  -6   1   1   96.91    2.98
  -6   1   1   93.21    3.09
  -6   1   1   88.17    2.60
  -6   1   1   93.68    3.11
   5  -1  -1   51.98    1.68
   5  -1  -1   47.89    1.73
   5  -1  -1   50.72    1.46
  -5   1   1   50.43    1.74
  -5   1   1   49.34    1.72
  -5   1   1   50.40    1.63
  -5   1   1   50.08    1.46
  -5   1   1   52.37    1.68
   4  -1  -1   19.09    0.73
   4  -1  -1   20.83    0.64
  -4   1   1   19.02    0.75
  -4   1   1   20.02    0.74
  -4   1   1   19.21    0.73
  -4   1   1   19.11    0.74
  -4   1   1   19.37    0.64
   3  -1  -1   23.44    0.83
   3  -1  -1   23.31    0.70
   3  -1  -1   21.26    0.84
  -3   1   1   26.66    0.84
  -3   1   1   22.95    0.81
  -3   1   1   23.13    0.83
  -3   1   1   22.86    0.85
  -3   1   1   22.45    0.71
   2  -1  -1   67.89    2.01
   2  -1  -1   63.69    2.09
   2  -1  -1   63.60    1.77
   2  -1  -1   64.80    2.12
  -2   1   1   64.18    1.78
  -2   1   1   63.27    2.12
  -2   1   1   64.17    2.00
  -2   1   1   66.28    2.00
   1  -1  -1    2.13    0.13
   1  -1  -1    2.43    0.14
   1  -1  -1    2.23    0.13
  -1   1   1    2.43    0.14
  -1   1   1    2.68    0.13
  -1   1   1    2.44    0.11
  -1   1   1    2.72    0.14
   0   1   1   -0.07    0.02
  -1  -1  -1   12.54    0.36
  -1  -1  -1   12.29    0.36
  -1  -1  -1   13.47    0.42
   1   1   1   12.41    0.40
   1   1   1   13.09    0.42
   1   1   1   13.38    0.42
  -2  -1  -1    0.78    0.11
  -2  -1  -1    0.84    0.11
  -2  -1  -1    0.98    0.09
  -2  -1  -1    0.94    0.13
   2   1   1    1.07    0.11
   2   1   1    0.91    0.13
   2   1   1    1.02    0.14
   2   1   1    0.69    0.09
   2   1   1    0.99    0.10
  -3  -1  -1    3.00    0.27
  -3  -1  -1    3.36    0.28
  -3  -1  -1    3.72    0.31
  -3  -1  -1    3.16    0.23
   3   1   1    3.45    0.24
   3   1   1    3.23    0.20
   3   1   1    2.65    0.26
   3   1   1    3.61    0.27
   3   1   1    3.82    0.32
  -4  -1  -1   14.86    0.60
  -4  -1  -1   13.96    0.52
  -4  -1  -1   15.71    0.59
  -4  -1  -1   16.22    0.62
   4   1   1   15.04    0.58
   4   1   1   15.49    0.51
   4   1   1   14.97    0.62
   4   1   1   15.50    0.59
  -5  -1  -1    1.90    0.24
  -5  -1  -1    2.06    0.23
  -5  -1  -1    1.29    0.19
  -5  -1  -1    1.66    0.28
   5   1   1    1.66    0.19
   5   1   1    1.50    0.29
  -6  -1  -1   24.89    0.85
  -6  -1  -1   26.37    1.01
  -6  -1  -1   25.98    1.00
  -6  -1  -1   24.42    0.96
   6   1   1   26.64    1.00
   6   1   1   25.33    0.97
   6   1   1   25.34    0.83
   6   1   1   25.31    0.93
  -7  -1  -1   10.30    0.57
  -7  -1  -1   10.18    0.60
   7   1   1   10.08    0.56
   7   1   1   10.04    0.65
  -8  -1  -1    8.79    0.61
  -8  -1  -1    7.81    0.54
   8   1   1    9.21    0.66
   8   1   1    8.73    0.56
  -9  -1  -1    6.26    0.55
   9   1   1    7.74    0.56
 -10  -1  -1    4.74    0.60
 -11  -1  -1    8.37    0.75
 -12  -1  -1   -0.17    0.67
 -12   2   1    3.90    0.84
 -11   2   1   -0.58    0.60
 -10   2   1    6.30    0.66
  -9   2   1   26.10    1.15
   8  -2  -1   18.10    0.88
  -8   2   1   18.82    0.88
   7  -2  -1   27.02    1.09
  -7   2   1   27.35    1.08
  -7   2   1   26.47    1.09
  -7   2   1   25.68    1.09
   6  -2  -1   14.97    0.72
   6  -2  -1   15.91    0.77
  -6   2   1   16.18    0.76
  -6   2   1   14.99    0.73
  -6   2   1   15.72    0.75
  -6   2   1   15.84    0.63
  -6   2   1   16.05    0.74
   5  -2  -1   21.90    0.91
   5  -2  -1   23.97    0.91
  -5   2   1   24.38    0.78
  -5   2   1   22.88    0.88
  -5   2   1   23.18    0.89
  -5   2   1   23.31    0.90
  -5   2   1   23.62    0.92
   4  -2  -1    5.86    0.41
   4  -2  -1    4.91    0.36
  -4   2   1    5.56    0.38
  -4   2   1    5.66    0.34
  -4   2   1    5.53    0.44
  -4   2   1    5.19    0.37
  -4   2   1    4.98    0.35
  -4   2   1    5.29    0.38
   3  -2  -1   12.06    0.52
   3  -2  -1   11.50    0.43
  -3   2   1   11.34    0.52
  -3   2   1   11.55    0.44
  -3   2   1   11.78    0.50
  -3   2   1   11.74    0.52
  -3   2   1   12.33    0.51
  -3   2   1   11.50    0.51
   2  -2  -1    4.03    0.26
   2  -2  -1    4.60    0.25
   2  -2  -1    3.47    0.28
  -2   2   1    4.09    0.29
  -2   2   1    3.92    0.28
  -2   2   1    4.30    0.29
  -2   2   1    4.21    0.25
  -2   2   1    4.45    0.29
  -2   2   1    4.00    0.31
  -2   2   1    5.51    0.34
   1  -2  -1    0.80    0.08
  -1   2   1    0.95    0.11
  -1   2   1    1.10    0.10
  -1   2   1    0.95    0.07
  -1   2   1    1.01    0.08
  -1   2   1    0.95    0.09
  -1   2   1    1.16    0.10
   0  -2  -1    6.77    0.25
   0   2   1    6.71    0.22
   0   2   1    7.01    0.22
   0   2   1    6.75    0.25
   0   2   1    6.75    0.20
  -1  -2  -1  177.18    4.83
  -1  -2  -1  184.61    5.63
  -1  -2  -1  173.44    4.81
   1   2   1  170.76    5.35
   1   2   1  187.77    4.84
   1   2   1  188.94    5.43
   1   2   1  172.43    5.62
   1   2   1  180.96    4.82
   1   2   1  181.63    5.38
   1   2   1  176.52    5.35
  -2  -2  -1  979.29   30.57
  -2  -2  -1  953.96   25.81
   2   2   1  954.12   28.71
   2   2   1  955.61   25.85
   2   2   1  946.47   28.91
   2   2   1  928.54   28.66
   2   2   1 1000.00   30.66
   2   2   1  985.88   28.88
  -3  -2  -1  402.98   13.06
  -3  -2  -1  397.72   11.05
  -3  -2  -1  420.25   13.11
   3   2   1  440.74   12.37
   3   2   1  401.62   12.28
   3   2   1  417.22   12.27
   3   2   1  406.36   11.06
   3   2   1  407.14   13.11
   3   2   1  411.90   12.37
  -4  -2  -1   14.55    0.58
  -4  -2  -1   14.64    0.60
  -4  -2  -1   13.88    0.56
  -4  -2  -1   16.76    0.51
   4   2   1   14.30    0.59
   4   2   1   15.36    0.59
   4   2   1   14.21    0.56
   4   2   1   14.90    0.50
   4   2   1   14.93    0.60
   4   2   1   13.97    0.56
  -5  -2  -1   32.13    1.12
  -5  -2  -1   31.38    0.97
  -5  -2  -1   33.66    1.14
  -5  -2  -1   31.04    1.13
   5   2   1   33.01    1.08
   5   2   1   31.69    1.09
   5   2   1   31.29    1.12
   5   2   1   31.68    1.13
   5   2   1   32.62    1.12
   5   2   1   32.84    0.98
  -6  -2  -1   17.50    0.72
  -6  -2  -1   20.14    0.79
  -6  -2  -1   18.58    0.79
   6   2   1   18.51    0.66
   6   2   1   15.34    0.70
   6   2   1   18.65    0.74
   6   2   1   18.67    0.80
   6   2   1   18.43    0.79
  -7  -2  -1    1.65    0.28
  -7  -2  -1    1.09    0.30
   7   2   1    1.26    0.28
   7   2   1    1.16    0.27
   7   2   1    1.32    0.38
  -8  -2  -1   11.79    0.69
  -8  -2  -1   11.75    0.62
   8   2   1   12.77    0.66
   8   2   1   12.55    0.74
  -9  -2  -1    1.00    0.39
 -10  -2  -1   -0.05    0.48
 -11  -2  -1    3.32    0.64
 -12  -2  -1    2.04    0.68
 -11   3   1    4.14    0.73
 -10   3   1    3.09    0.61
  -9   3   1    0.96    0.45
  -8   3   1   13.04    0.73
   7  -3  -1    2.81    0.41
  -7   3   1    3.02    0.39
  -7   3   1    2.91    0.43
   6  -3  -1    1.07    0.33
  -6   3   1    1.54    0.33
  -6   3   1    1.08    0.32
  -6   3   1    1.29    0.32
  -6   3   1    1.28    0.34
  -6   3   1    0.99    0.25
   5  -3  -1   14.81    0.70
   5  -3  -1   16.67    0.72
  -5   3   1   15.77    0.70
  -5   3   1   16.20    0.72
  -5   3   1   15.91    0.70
  -5   3   1   15.76    0.69
  -5   3   1   15.90    0.69
  -5   3   1   15.86    0.59
   4  -3  -1   22.06    0.83
   4  -3  -1   22.28    0.86
  -4   3   1   23.01    0.82
  -4   3   1   22.10    0.78
  -4   3   1   21.63    0.83
  -4   3   1   21.11    0.86
  -4   3   1   21.77    0.82
  -4   3   1   21.39    0.81
  -4   3   1   21.07    0.71
   3  -3  -1   29.24    1.08
  -3   3   1   30.21    1.02
  -3   3   1   32.71    1.01
  -3   3   1   29.63    0.88
  -3   3   1   29.88    1.02
  -3   3   1   30.04    0.98
  -3   3   1   30.17    1.04
  -3   3   1   29.80    1.08
  -2   3   1   70.17    2.28
  -2   3   1   65.86    1.89
  -2   3   1   68.81    2.24
  -2   3   1   70.88    2.13
  -2   3   1   67.29    2.11
  -2   3   1   67.32    2.10
  -2   3   1   72.68    2.14
   1  -3  -1   86.34    2.82
   1  -3  -1   85.27    2.86
  -1   3   1   87.55    2.67
  -1   3   1   86.33    2.38
  -1   3   1   86.30    2.65
  -1   3   1   81.95    2.64
  -1   3   1   86.29    2.86
  -1   3   1   90.02    2.67
  -1   3   1  101.42    2.82
   0  -3  -1    7.23    0.28
   0   3   1    6.55    0.23
   0   3   1    6.31    0.23
   0   3   1    6.55    0.28
  -1  -3  -1   70.35    2.16
  -1  -3  -1   68.52    2.15
   1   3   1   70.27    2.03
   1   3   1   70.20    1.81
   1   3   1   65.22    2.02
   1   3   1   64.34    1.81
   1   3   1   71.24    2.15
   1   3   1   59.51    2.03
   1   3   1   68.00    2.16
  -2  -3  -1  287.24    8.66
  -2  -3  -1  283.31    8.77
   2   3   1  285.37    8.29
   2   3   1  278.66    7.42
   2   3   1  261.35    8.24
   2   3   1  273.44    8.29
   2   3   1  265.02    8.23
   2   3   1  276.57    8.67
  -3  -3  -1  262.20    8.33
   3   3   1  259.20    8.34
   3   3   1  273.42    8.24
   3   3   1  260.34    7.89
   3   3   1  270.49    7.89
   3   3   1  260.61    7.05
   3   3   1  250.73    7.83
   3   3   1  259.25    7.83
  -4  -3  -1   56.82    1.85
  -4  -3  -1   55.74    1.87
   4   3   1   57.37    1.78
   4   3   1   57.85    1.59
   4   3   1   57.06    1.77
   4   3   1   56.83    1.85
   4   3   1   55.37    1.81
  -5  -3  -1    4.77    0.29
  -5  -3  -1    4.34    0.38
   5   3   1    3.96    0.30
   5   3   1    4.99    0.38
   5   3   1    5.21    0.38
   5   3   1    5.41    0.40
   5   3   1    4.87    0.32
   5   3   1    4.34    0.38
  -6  -3  -1   12.98    0.60
  -6  -3  -1   11.62    0.51
   6   3   1   11.35    0.52
   6   3   1   10.90    0.58
   6   3   1   11.58    0.61
   6   3   1   11.60    0.61
   6   3   1   11.16    0.51
   6   3   1   11.13    0.60
  -7  -3  -1    4.02    0.36
  -7  -3  -1    4.26    0.38
   7   3   1    3.84    0.44
   7   3   1    4.39    0.39
   7   3   1    3.99    0.34
  -8  -3  -1    0.44    0.31
   8   3   1   -0.08    0.40
   8   3   1    0.76    0.30
  -9  -3  -1   11.01    0.67
   9   3   1   11.41    0.72
 -10  -3  -1    7.07    0.66
 -11  -3  -1    2.87    0.58
 -12  -3  -1    3.56    0.73
 -11   4   1    0.79    0.66
 -10   4   1    0.20    0.56
  -9   4   1    2.08    0.49
  -8   4   1    5.39    0.49
  -8   4   1    4.43    0.49
  -7   4   1    4.34    0.46
  -7   4   1    4.47    0.43
   6  -4  -1   45.93    1.67
  -6   4   1   43.91    1.61
  -6   4   1   45.65    1.56
  -6   4   1   46.55    1.38
  -6   4   1   43.73    1.58
   5  -4  -1   70.64    2.46
  -5   4   1   72.97    2.04
  -5   4   1   72.11    2.40
  -5   4   1   70.10    2.25
  -5   4   1   74.05    2.47
  -5   4   1   72.90    2.28
  -5   4   1   70.37    2.32
  -5   4   1   70.25    2.32
   4  -4  -1   32.08    1.22
  -4   4   1   33.61    1.14
  -4   4   1   32.11    1.09
  -4   4   1   33.31    1.00
  -4   4   1   33.17    1.23
  -4   4   1   33.50    1.17
  -4   4   1   33.17    1.14
  -4   4   1   33.51    1.13
  -3   4   1  122.03    3.69
  -3   4   1  118.10    3.87
  -3   4   1  124.01    3.69
  -3   4   1  120.58    3.63
  -3   4   1  119.03    3.94
  -3   4   1  120.03    3.28
  -3   4   1  117.21    3.65
   2  -4  -1    5.52    0.35
  -2   4   1    4.62    0.30
  -2   4   1    5.08    0.30
  -2   4   1    4.71    0.24
  -2   4   1    4.45    0.29
  -2   4   1    4.60    0.28
  -2   4   1    4.83    0.35
  -2   4   1    4.32    0.33
   1  -4  -1   18.07    0.70
  -1   4   1   19.65    0.62
  -1   4   1   18.16    0.61
  -1   4   1   18.87    0.62
  -1   4   1   18.62    0.70
  -1   4   1   18.74    0.65
  -1   4   1   18.58    0.54
   0  -4  -1   -0.01    0.16
   0   4   1    0.25    0.15
  -1  -4  -1   22.96    0.81
  -1  -4  -1   23.91    0.84
   1   4   1   24.63    0.84
   1   4   1   24.71    0.81
  -2  -4  -1    0.09    0.16
  -2  -4  -1    0.14    0.10
   2   4   1    0.13    0.08
   2   4   1    0.15    0.17
   2   4   1    0.00    0.09
   2   4   1   -0.06    0.09
   2   4   1   -0.01    0.12
   2   4   1   -0.06    0.11
   2   4   1    0.00    0.03
  -3  -4  -1   43.70    1.43
   3   4   1   45.31    1.38
   3   4   1   44.45    1.45
   3   4   1   43.58    1.22
   3   4   1   44.02    1.38
   3   4   1   41.79    1.36
   3   4   1   41.82    1.35
  -4  -4  -1   52.45    1.78
   4   4   1   52.68    1.68
   4   4   1   54.88    1.72
   4   4   1   55.52    1.79
   4   4   1   53.94    1.52
   4   4   1   55.22    1.72
   4   4   1   53.22    1.70
  -5  -4  -1   76.68    2.58
   5   4   1   78.74    2.48
   5   4   1   77.96    2.19
   5   4   1   77.95    2.44
   5   4   1   77.65    2.43
   5   4   1   79.76    2.55
   5   4   1   79.73    2.48
  -6  -4  -1   44.56    1.55
  -6  -4  -1   44.11    1.50
   6   4   1   45.36    1.34
   6   4   1   45.53    1.52
   6   4   1   44.92    1.54
   6   4   1   48.24    1.49
   6   4   1   43.97    1.50
   6   4   1   41.30    1.52
  -7  -4  -1   25.46    0.94
  -7  -4  -1   25.84    1.03
   7   4   1   24.65    1.02
   7   4   1   27.45    1.01
  -8  -4  -1    8.35    0.60
   8   4   1    7.84    0.59
  -9  -4  -1    7.15    0.56
   9   4   1    8.07    0.61
 -10  -4  -1    4.27    0.49
  10   4   1    4.01    0.51
 -11  -4  -1    0.88    0.51
 -12  -4  -1    0.97    0.60
 -11   5   1    5.61    0.79
 -10   5   1    2.33    0.66
  -9   5   1   11.44    0.83
  -8   5   1   10.84    0.68
  -8   5   1   11.47    0.76
  -7   5   1    0.41    0.34
  -7   5   1    0.15    0.31
   6  -5  -1   38.39    1.49
  -6   5   1   39.32    1.41
  -6   5   1   36.78    1.42
  -6   5   1   40.38    1.23
  -6   5   1   41.06    1.42
   5  -5  -1    0.41    0.32
  -5   5   1    0.35    0.28
  -5   5   1    0.15    0.22
  -5   5   1    0.04    0.27
  -5   5   1    0.28    0.30
  -5   5   1    0.29    0.22
  -5   5   1    0.35    0.28
  -5   5   1    0.12    0.29
   4  -5  -1   21.35    1.00
  -4   5   1   27.17    1.04
  -4   5   1   27.41    0.96
  -4   5   1   27.53    0.95
  -4   5   1   25.49    0.98
  -4   5   1   27.24    0.92
  -4   5   1   26.76    0.84
  -4   5   1   27.81    0.96
   3  -5  -1    4.01    0.37
  -3   5   1    4.06    0.39
  -3   5   1    4.99    0.39
  -3   5   1    4.25    0.33
  -3   5   1    4.43    0.33
  -3   5   1    5.00    0.34
  -3   5   1    3.93    0.33
  -3   5   1    5.10    0.31
   2  -5  -1    0.31    0.21
  -2   5   1    0.32    0.12
  -2   5   1    0.59    0.16
  -2   5   1    0.51    0.17
  -2   5   1    0.44    0.20
  -2   5   1    0.37    0.13
  -2   5   1    0.35    0.14
   1  -5  -1    2.21    0.23
  -1   5   1    2.14    0.18
  -1   5   1    1.99    0.16
  -1   5   1    2.04    0.15
  -1   5   1    2.13    0.15
  -1   5   1    2.56    0.24
  -1   5   1    2.12    0.13
   0  -5  -1   85.79    2.77
   0   5   1   84.16    2.77
  -1  -5  -1    4.23    0.30
  -1  -5  -1    6.32    0.28
   1   5   1    5.84    0.29
  -2  -5  -1   -0.04    0.08
  -2  -5  -1    0.40    0.08
   2   5   1    0.12    0.10
   2   5   1    0.26    0.17
   2   5   1    0.27    0.08
   2   5   1    0.41    0.07
   2   5   1    0.17    0.07
  -3  -5  -1  100.77    3.22
  -3  -5  -1  101.46    3.22
   3   5   1  101.72    3.06
   3   5   1  100.62    3.04
   3   5   1   98.00    3.05
   3   5   1   99.09    2.73
   3   5   1  104.23    3.23
   3   5   1   97.88    3.03
  -4  -5  -1  109.94    3.55
   4   5   1  108.22    3.00
   4   5   1  105.41    3.37
   4   5   1  111.80    3.34
   4   5   1  108.28    3.35
   4   5   1  116.32    3.55
   4   5   1  110.64    3.38
  -5  -5  -1   48.68    1.71
   5   5   1   50.66    1.46
   5   5   1   50.89    1.62
   5   5   1   51.47    1.64
   5   5   1   54.70    1.74
   5   5   1   50.75    1.66
   5   5   1   50.05    1.66
  -6  -5  -1   66.11    2.32
   6   5   1   68.33    2.25
   6   5   1   70.02    1.99
   6   5   1   71.37    2.21
   6   5   1   69.64    2.27
   6   5   1   68.94    2.25
   6   5   1   73.42    2.23
  -7  -5  -1    1.43    0.29
   7   5   1    1.54    0.28
   7   5   1    1.40    0.36
  -8  -5  -1    1.70    0.32
   8   5   1    1.74    0.40
   8   5   1    1.35    0.31
  -9  -5  -1    0.24    0.31
   9   5   1    0.14    0.39
 -10  -5  -1    0.36    0.40
  10   5   1    0.73    0.43
 -11  -5  -1   -0.07    0.45
  11   5   1   -0.27    0.45
 -12  -5  -1    2.44    0.65
 -11   6   1    8.89    0.90
 -10   6   1    7.40    0.78
  -9   6   1   11.99    0.84
  -8   6   1    0.85    0.41
  -8   6   1    2.14    0.41
  -7   6   1   10.44    0.62
  -7   6   1    9.49    0.62
  -6   6   1    3.01    0.39
  -6   6   1    3.05    0.31
  -6   6   1    2.65    0.38
  -6   6   1    3.43    0.37
   5  -6  -1    0.13    0.12
  -5   6   1    0.06    0.29
  -5   6   1    0.17    0.28
  -5   6   1    0.17    0.28
  -5   6   1    0.49    0.24
  -5   6   1    0.19    0.30
  -5   6   1    0.06    0.23
  -4   6   1    3.51    0.31
  -4   6   1    3.40    0.33
  -4   6   1    2.90    0.30
  -4   6   1    2.90    0.26
  -4   6   1    3.25    0.25
  -4   6   1    3.19    0.36
  -4   6   1    3.28    0.33
   3  -6  -1   85.29    2.89
  -3   6   1   87.96    2.67
  -3   6   1   87.27    2.63
  -3   6   1   85.90    2.64
  -3   6   1   86.05    2.89
  -3   6   1   85.67    2.37
  -3   6   1   83.30    2.67
   2  -6  -1    2.11    0.27
  -2   6   1    1.79    0.16
  -2   6   1    2.21    0.20
  -2   6   1    2.02    0.17
  -2   6   1    2.58    0.28
  -2   6   1    2.24    0.20
  -2   6   1    2.51    0.19
   1  -6  -1   69.19    2.33
  -1   6   1   69.61    2.25
  -1   6   1   69.44    2.12
  -1   6   1   70.01    2.33
  -1   6   1   69.32    2.11
  -1   6   1   72.40    1.90
  -1   6   1   67.64    2.11
   0  -6  -1   27.40    0.98
   0   6   1   27.93    0.98
  -1  -6  -1    1.20    0.22
  -1  -6  -1    1.55    0.16
   1   6   1    1.21    0.16
  -2  -6  -1   17.80    0.61
  -2  -6  -1   17.82    0.68
   2   6   1   17.32    0.56
   2   6   1   17.35    0.68
   2   6   1   17.82    0.58
  -3  -6  -1   36.01    1.19
  -3  -6  -1   37.57    1.25
   3   6   1   35.71    1.13
   3   6   1   36.02    1.14
   3   6   1   35.56    1.02
   3   6   1   36.28    1.26
   3   6   1   36.92    1.12
   3   6   1   36.42    1.15
  -4  -6  -1   -0.09    0.13
   4   6   1    0.00    0.14
   4   6   1   -0.23    0.16
   4   6   1    0.08    0.16
   4   6   1    0.17    0.14
   4   6   1   -0.09    0.17
   4   6   1   -0.03    0.20
  -5  -6  -1   12.41    0.53
   5   6   1   10.78    0.54
   5   6   1   13.18    0.57
   5   6   1   13.67    0.61
   5   6   1   12.60    0.59
   5   6   1   12.72    0.56
   5   6   1   12.06    0.48
  -6  -6  -1    3.64    0.31
   6   6   1    2.65    0.28
   6   6   1    2.81    0.31
   6   6   1    3.12    0.27
   6   6   1    3.38    0.36
   6   6   1    3.36    0.36
  -7  -6  -1    2.94    0.32
   7   6   1    2.74    0.39
   7   6   1    2.54    0.28
   7   6   1    3.02    0.32
   7   6   1    2.95    0.38
  -8  -6  -1    1.34    0.30
   8   6   1    0.65    0.28
   8   6   1    0.96    0.36
  -9  -6  -1   14.31    0.73
   9   6   1   13.11    0.76
 -10  -6  -1    5.63    0.51
  10   6   1    4.78    0.55
 -11  -6  -1    1.77    0.46
  11   6   1    2.56    0.51
 -12  -6  -1    7.29    0.68
  12   6   1    6.51    0.71
 -10   7   1    0.63    0.67
  -9   7   1    2.74    0.59
  -9   7   1    2.92    0.49
  -8   7   1    6.30    0.59
  -8   7   1    6.94    0.57
  -7   7   1    1.71    0.39
  -7   7   1    1.38    0.35
  -6   7   1   12.45    0.75
  -6   7   1   11.90    0.68
  -6   7   1   11.27    0.65
  -6   7   1   12.60    0.61
   5  -7  -1    2.70    0.36
  -5   7   1    4.14    0.39
  -5   7   1    4.67    0.42
  -5   7   1    3.13    0.35
  -5   7   1    4.32    0.33
  -5   7   1    4.08    0.31
  -5   7   1    4.49    0.38
   4  -7  -1   34.70    1.51
  -4   7   1   43.40    1.24
  -4   7   1   42.53    1.41
  -4   7   1   43.98    1.46
  -4   7   1   40.96    1.40
  -4   7   1   42.13    1.40
  -4   7   1   42.11    1.37
   3  -7  -1   43.25    1.57
  -3   7   1   43.81    1.25
  -3   7   1   45.25    1.42
  -3   7   1   44.14    1.58
  -3   7   1   41.68    1.39
  -3   7   1   43.48    1.41
  -3   7   1   43.00    1.42
  -3   7   1   42.18    1.48
   2  -7  -1   61.15    2.12
  -2   7   1   60.78    1.90
  -2   7   1   63.97    1.91
  -2   7   1   59.67    1.91
  -2   7   1   62.46    1.91
  -2   7   1   62.64    2.12
  -2   7   1   62.24    1.71
  -2   7   1   60.97    2.02
   1  -7  -1    0.13    0.21
  -1   7   1   -0.14    0.12
  -1   7   1    0.23    0.21
  -1   7   1   -0.07    0.10
  -1   7   1   -0.11    0.13
  -1   7   1    0.11    0.11
   0  -7  -1    2.02    0.23
   0   7   1    2.31    0.23
  -1  -7  -1   26.90    0.99
  -1  -7  -1   29.21    1.03
   1   7   1   29.14    1.00
  -2  -7  -1   14.88    0.62
  -2  -7  -1   14.23    0.54
   2   7   1   14.99    0.61
  -3  -7  -1    9.78    0.36
  -3  -7  -1    8.77    0.46
   3   7   1    9.09    0.46
   3   7   1    8.93    0.37
   3   7   1    9.02    0.32
   3   7   1    8.46    0.39
  -4  -7  -1    3.99    0.27
  -4  -7  -1    3.25    0.30
   4   7   1    4.18    0.32
   4   7   1    3.75    0.34
   4   7   1    3.70    0.28
   4   7   1    3.90    0.26
   4   7   1    3.76    0.25
  -5  -7  -1   17.21    0.67
   5   7   1   15.75    0.58
   5   7   1   16.87    0.67
   5   7   1   17.44    0.66
   5   7   1   17.42    0.70
   5   7   1   17.62    0.67
  -6  -7  -1   55.89    1.91
   6   7   1   56.92    1.64
   6   7   1   58.07    1.84
   6   7   1   57.16    1.85
   6   7   1   56.35    1.85
   6   7   1   56.75    1.83
  -7  -7  -1   21.77    0.89
   7   7   1   22.55    0.79
   7   7   1   23.46    0.90
   7   7   1   21.14    0.89
   7   7   1   23.53    0.93
  -8  -7  -1   16.61    0.76
   8   7   1   14.81    0.76
   8   7   1   15.70    0.78
  -9  -7  -1    7.52    0.57
   9   7   1    7.52    0.58
 -10  -7  -1    2.80    0.40
  10   7   1    2.08    0.44
 -11  -7  -1    0.33    0.43
  11   7   1    0.80    0.44
 -12  -7  -1    0.07    0.53
  12   7   1   -0.65    0.49
 -10   8   1    2.00    0.72
  -9   8   1   19.29    1.12
  -9   8   1   18.69    0.96
  -8   8   1   17.14    0.86
  -8   8   1   16.09    0.90
  -7   8   1   21.68    0.94
  -7   8   1   21.00    0.98
  -6   8   1   20.44    0.91
  -6   8   1   23.60    0.83
  -6   8   1   21.94    0.91
  -6   8   1   21.63    0.96
  -5   8   1    7.17    0.46
  -5   8   1    7.04    0.50
  -5   8   1    6.94    0.50
  -5   8   1    7.14    0.49
  -5   8   1    6.88    0.52
   4  -8  -1    9.57    0.63
  -4   8   1    9.11    0.53
  -4   8   1    9.44    0.53
  -4   8   1    9.64    0.49
  -4   8   1    9.98    0.53
  -4   8   1    9.29    0.51
  -4   8   1    9.46    0.59
   3  -8  -1    0.50    0.32
  -3   8   1    1.18    0.32
  -3   8   1    0.73    0.21
  -3   8   1    0.96    0.25
  -3   8   1    0.95    0.23
  -3   8   1    0.68    0.25
  -3   8   1    0.84    0.23
  -3   8   1    0.95    0.19
   2  -8  -1   -0.22    0.25
  -2   8   1    0.26    0.14
  -2   8   1    0.01    0.17
  -2   8   1    0.04    0.16
  -2   8   1    0.00    0.25
  -2   8   1    0.18    0.15
  -2   8   1   -0.05    0.19
  -2   8   1   -0.12    0.14
   1  -8  -1    0.42    0.23
  -1   8   1    0.17    0.11
  -1   8   1    0.20    0.13
  -1   8   1   -0.04    0.15
  -1   8   1    0.17    0.22
  -1   8   1    0.37    0.15
   0  -8  -1    1.10    0.26
   0  -8  -1    1.19    0.23
   0   8   1    1.23    0.23
  -1  -8  -1   25.64    0.91
  -1  -8  -1   24.14    0.94
   1   8   1   24.83    0.91
  -2  -8  -1    3.59    0.33
  -2  -8  -1    3.68    0.27
  -3  -8  -1   19.59    0.81
   3   8   1   20.25    0.69
   3   8   1   20.69    0.67
   3   8   1   20.02    0.60
   3   8   1   20.68    0.82
  -4  -8  -1   24.58    0.85
  -4  -8  -1   24.12    0.95
   4   8   1   24.19    0.75
   4   8   1   25.18    0.84
   4   8   1   24.14    0.85
  -5  -8  -1    9.50    0.45
   5   8   1    8.49    0.49
   5   8   1    9.91    0.43
   5   8   1    8.82    0.53
   5   8   1    9.56    0.40
  -6  -8  -1   19.74    0.81
   6   8   1   20.55    0.71
   6   8   1   20.86    0.78
   6   8   1   20.74    0.80
   6   8   1   21.92    0.82
   6   8   1   21.26    0.84
  -7  -8  -1   23.59    0.92
   7   8   1   22.71    0.93
   7   8   1   23.95    0.81
   7   8   1   25.11    0.96
   7   8   1   22.64    0.91
   7   8   1   23.91    0.93
  -8  -8  -1   13.92    0.67
   8   8   1   13.77    0.69
   8   8   1   15.64    0.74
  -9  -8  -1    5.58    0.52
   9   8   1    6.18    0.54
 -10  -8  -1    0.35    0.31
  10   8   1    0.16    0.37
 -11  -8  -1    1.40    0.42
  11   8   1    1.03    0.48
  -9   9   1    1.83    0.58
  -9   9   1    2.98    0.52
  -8   9   1    2.38    0.44
  -8   9   1    1.59    0.51
  -7   9   1    0.10    0.37
  -7   9   1    0.28    0.37
  -6   9   1    0.82    0.32
  -6   9   1    1.16    0.27
  -6   9   1    1.08    0.35
  -6   9   1    1.16    0.35
  -5   9   1    0.40    0.28
  -5   9   1    0.93    0.24
  -5   9   1    0.67    0.29
  -5   9   1    0.49    0.29
  -5   9   1    0.34    0.30
  -4   9   1    0.41    0.25
  -4   9   1    0.75    0.28
  -4   9   1    0.57    0.28
  -4   9   1    0.99    0.23
  -4   9   1    0.94    0.29
  -4   9   1    0.75    0.24
   3  -9  -1   15.86    0.79
  -3   9   1   15.56    0.62
  -3   9   1   16.55    0.67
  -3   9   1   15.63    0.65
  -3   9   1   16.50    0.70
  -3   9   1   16.37    0.56
   2  -9  -1   37.75    1.40
  -2   9   1   36.86    1.21
  -2   9   1   37.57    1.08
  -2   9   1   37.94    1.40
  -2   9   1   36.12    1.23
  -2   9   1   38.30    1.27
   1  -9  -1   11.09    0.57
  -1   9   1   10.72    0.46
  -1   9   1    9.19    0.44
  -1   9   1   11.22    0.58
  -1   9   1   10.83    0.37
  -1   9   1   10.64    0.44
   0  -9  -1   36.82    1.35
   0  -9  -1   37.01    1.35
   0   9   1   38.93    1.35
  -1  -9  -1   12.15    0.61
  -1  -9  -1   12.69    0.56
   1   9   1   11.93    0.56
  -2  -9  -1    4.03    0.39
  -2  -9  -1    3.19    0.30
  -3  -9  -1    5.95    0.29
  -3  -9  -1    4.67    0.44
   3   9   1    4.98    0.24
   3   9   1    4.72    0.29
   3   9   1    4.62    0.32
  -4  -9  -1   -0.09    0.29
   4   9   1    0.20    0.18
   4   9   1    0.20    0.15
   4   9   1    0.06    0.16
   5   9   1    0.09    0.17
   5   9   1    0.18    0.19
   5   9   1   -0.24    0.21
   6   9   1    0.47    0.20
   6   9   1    0.39    0.23
   6   9   1   -0.02    0.20
   6   9   1    0.26    0.24
   6   9   1    0.29    0.20
   7   9   1    0.32    0.25
   7   9   1    0.19    0.26
   7   9   1    0.35    0.24
   7   9   1    0.36    0.22
   7   9   1    0.23    0.26
   8   9   1    0.23    0.29
   8   9   1    0.73    0.32
   8   9   1    0.03    0.28
   9   9   1    5.74    0.46
   9   9   1    5.28    0.47
  10   9   1    4.50    0.49
  11   9   1    0.67    0.46
  -9  10   1    1.41    0.64
  -9  10   1    0.87    0.51
  -8  10   1    2.19    0.54
  -8  10   1    2.01    0.44
  -7  10   1    3.63    0.44
  -7  10   1    3.07    0.46
  -6  10   1    9.98    0.62
  -6  10   1    9.09    0.56
  -6  10   1    8.87    0.68
  -6  10   1    8.94    0.56
  -5  10   1   15.81    0.76
  -5  10   1   17.26    0.68
  -5  10   1   15.70    0.71
  -5  10   1   16.17    0.71
  -5  10   1   16.69    0.79
  -4  10   1   30.95    1.15
  -4  10   1   31.14    1.01
  -4  10   1   32.26    1.10
  -4  10   1   31.09    1.10
  -4  10   1   31.26    1.12
  -4  10   1   32.26    1.09
  -4  10   1   33.48    1.18
  -3  10   1   26.07    0.94
  -3  10   1   26.00    0.87
  -3  10   1   26.87    0.85
  -3  10   1   27.04    0.98
  -3  10   1   25.48    0.97
   2 -10  -1   13.82    0.72
  -2  10   1   13.54    0.57
  -2  10   1   13.76    0.60
  -2  10   1   13.59    0.48
   1 -10  -1    0.35    0.28
  -1  10   1    0.22    0.16
  -1  10   1    0.37    0.18
  -1  10   1   -0.02    0.27
  -1  10   1    0.24    0.13
   0 -10  -1   17.07    0.77
   0 -10  -1   17.12    0.74
   0  10   1   16.12    0.74
  -1 -10  -1    2.50    0.37
  -1 -10  -1    2.75    0.29
  -2 -10  -1    1.44    0.22
  -2 -10  -1    1.37    0.32
  -3 -10  -1    0.50    0.17
  -3 -10  -1    0.74    0.33
  -4 -10  -1    1.02    0.34
   4  10   1    0.79    0.19
   4  10   1    0.77    0.17
   4  10   1    1.35    0.16
  -5 -10  -1   -0.30    0.32
   5  10   1   -0.04    0.19
   5  10   1   -0.26    0.20
   5  10   1   -0.07    0.16
   6  10   1    4.41    0.31
   6  10   1    4.87    0.33
   6  10   1    5.07    0.35
   7  10   1   19.48    0.73
   7  10   1   20.69    0.82
   7  10   1   20.32    0.72
   7  10   1   19.72    0.71
   7  10   1   21.57    0.87
   8  10   1   28.04    1.04
   8  10   1   23.87    0.93
   8  10   1   25.95    0.97
   9  10   1   12.17    0.66
   9  10   1   11.07    0.61
   9  10   1   12.57    0.76
  10  10   1    2.76    0.41
  11  10   1    2.25    0.49
  -8  11   1   12.38    0.79
  -8  11   1   13.30    0.93
  -7  11   1    3.58    0.48
  -7  11   1    4.45    0.50
  -6  11   1   13.13    0.66
  -6  11   1   13.97    0.81
  -5  11   1    4.96    0.41
  -5  11   1    4.92    0.42
  -5  11   1    4.34    0.41
  -5  11   1    4.53    0.35
  -5  11   1    4.41    0.38
  -4  11   1    4.44    0.34
  -4  11   1    4.38    0.37
  -4  11   1    4.04    0.30
  -4  11   1    4.28    0.32
  -4  11   1    4.40    0.33
  -3  11   1    2.98    0.27
  -3  11   1    3.56    0.26
  -3  11   1    3.32    0.31
   2 -11  -1    5.55    0.47
  -2  11   1    5.05    0.30
  -2  11   1    5.06    0.39
  -2  11   1    4.81    0.42
   1 -11  -1    0.82    0.30
  -1  11   1    0.23    0.19
  -1  11   1    0.56    0.14
  -1  11   1    0.36    0.16
  -1  11   1    0.36    0.29
   0 -11  -1    1.73    0.37
   0 -11  -1    1.85    0.31
   0  11   1    1.26    0.30
  -1 -11  -1   27.15    1.10
  -1 -11  -1   27.06    1.04
  -2 -11  -1    4.95    0.37
  -2 -11  -1    4.31    0.45
  -3 -11  -1    2.60    0.37
  -4 -11  -1    0.63    0.35
   4  11   1    0.73    0.14
   4  11   1    0.88    0.16
   4  11   1    0.87    0.18
   5  11   1    6.85    0.40
   5  11   1    6.38    0.32
   5  11   1    6.77    0.45
   6  11   1    2.98    0.24
   6  11   1    2.95    0.27
   6  11   1    2.84    0.29
   7  11   1   -0.05    0.19
   7  11   1    0.16    0.26
   7  11   1   -0.13    0.26
   8  11   1    2.73    0.36
   8  11   1    2.72    0.25
   9  11   1    0.57    0.24
   9  11   1    0.86    0.39
   9  11   1    0.58    0.27
  10  11   1    1.36    0.31
  -8  12   1    1.04    0.53
  -7  12   1    2.57    0.46
  -6  12   1    0.28    0.29
  -6  12   1   -0.07    0.30
  -5  12   1    1.20    0.28
  -5  12   1    1.13    0.36
  -5  12   1    1.01    0.25
  -5  12   1    1.27    0.26
  -4  12   1    0.53    0.26
  -4  12   1    0.50    0.31
  -4  12   1    0.82    0.24
  -3  12   1    1.69    0.23
  -3  12   1    1.72    0.29
  -3  12   1    1.65    0.25
  -2  12   1    6.36    0.45
  -2  12   1    6.23    0.40
  -2  12   1    5.90    0.34
   1 -12  -1    9.81    0.60
  -1  12   1    9.60    0.36
  -1  12   1    9.59    0.43
   0 -12  -1   20.23    0.87
  -1 -12  -1    1.81    0.28
   4  12   1    5.61    0.34
   4  12   1    5.50    0.31
   4  12   1    5.11    0.25
   5  12   1    3.32    0.26
   5  12   1    2.87    0.24
   5  12   1    3.43    0.25
   6  12   1    0.42    0.24
   6  12   1    0.39    0.18
   6  12   1    0.06    0.23
   7  12   1    1.99    0.23
   7  12   1    1.94    0.31
   7  12   1    1.89    0.30
   8  12   1    0.25    0.34
   9  12   1    1.18    0.40
  10  12   1    1.49    0.46
  10  12   1    1.26    0.24
  -7  13   1    2.53    0.38
  -6  13   1    8.93    0.46
  -6  13   1    8.40    0.48
  -5  13   1    3.83    0.37
  -4  13   1    8.01    0.51
  -3  13   1   17.85    0.73
  -3  13   1   16.97    0.65
  -2  13   1   16.77    0.66
  -2  13   1   16.68    0.59
  -1  13   1   11.83    0.50
  -1  13   1   12.38    0.44
   4  13   1    0.28    0.12
   5  13   1   -0.12    0.20
   5  13   1    0.03    0.20
   5  13   1    0.04    0.14
   6  13   1    1.27    0.27
   6  13   1    1.32    0.25
   6  13   1    1.40    0.19
   7  13   1    2.59    0.32
   7  13   1    2.76    0.34
   7  13   1    2.44    0.25
   8  13   1    2.57    0.39
   9  13   1    2.98    0.45
  -5  14   1   12.64    0.69
  -4  14   1    3.44    0.34
  -3  14   1    0.53    0.25
  -3  14   1    0.73    0.25
  -2  14   1    0.50    0.22
  -2  14   1    0.41    0.21
  -1  14   1    0.54    0.18
  -1  14   1    0.86    0.19
   5  14   1    4.50    0.36
   5  14   1    3.99    0.26
   5  14   1    5.27    0.41
   6  14   1   12.71    0.63
   6  14   1   12.32    0.58
   6  14   1   10.93    0.46
   7  14   1    3.47    0.36
   7  14   1    3.59    0.36
   7  14   1    2.65    0.26
   8  14   1    2.07    0.39
   9  14   1   -0.02    0.42
  -5  15   1    0.51    0.35
  -4  15   1    2.16    0.35
  -3  15   1    1.68    0.31
  -3  15   1    1.73    0.30
  -2  15   1    5.54    0.47
  -2  15   1    4.97    0.33
  -1  15   1    6.32    0.42
  -1  15   1    6.69    0.36
   6  15   1    5.04    0.43
   6  15   1    4.54    0.31
   6  15   1    4.88    0.36
   7  15   1   -0.02    0.31
   7  15   1    0.30    0.32
   8  15   1   -0.09    0.37
  -4  16   1    2.91    0.38
  -3  16   1   12.93    0.69
  -3  16   1   11.79    0.62
  -2  16   1    8.47    0.49
  -2  16   1    8.38    0.54
  -1  16   1    6.80    0.39
   6  16   1    1.88    0.29
   7  16   1    3.90    0.39
   7  16   1    3.76    0.38
  -2  17   1    0.58    0.31
  -2  16  -2    0.91    0.32
  -2  16  -2    0.86    0.38
   7  15  -2   -0.52    0.35
   7  15  -2    0.14    0.36
   7  15  -2   -0.04    0.24
   6  15  -2    3.83    0.35
   6  15  -2    3.20    0.36
   6  15  -2    3.43    0.30
   5  15  -2    3.01    0.25
  -1  15  -2    0.54    0.22
  -1  15  -2   -0.03    0.29
  -2  15  -2    3.56    0.32
  -2  15  -2    4.50    0.35
  -2  15  -2    3.85    0.41
  -3  15  -2   -0.33    0.28
  -3  15  -2    0.54    0.33
  -3  15  -2    0.13    0.41
  -4  15  -2    0.09    0.47
  -4  15  -2    0.40    0.34
   8  14  -2    0.99    0.42
   7  14  -2    5.29    0.43
   7  14  -2    5.74    0.43
   7  14  -2    4.92    0.35
   6  14  -2    8.22    0.60
   6  14  -2    8.77    0.55
   6  14  -2    8.11    0.48
   5  14  -2    4.47    0.36
   5  14  -2    4.48    0.33
   4  14  -2    5.08    0.30
  -1  14  -2    2.35    0.26
  -1  14  -2    2.50    0.30
  -2  14  -2    3.61    0.32
  -2  14  -2    3.36    0.36
  -2  14  -2    3.59    0.29
  -3  14  -2    3.16    0.32
  -3  14  -2    2.58    0.41
  -3  14  -2    2.85    0.34
  -4  14  -2    1.34    0.32
  -4  14  -2    2.55    0.46
  -5  14  -2   10.26    0.70
  -5  14  -2   11.49    0.73
   9  13  -2    2.67    0.48
   8  13  -2    0.17    0.38
   7  13  -2    3.15    0.37
   7  13  -2    2.34    0.36
   7  13  -2    3.04    0.30
   6  13  -2    3.47    0.27
   6  13  -2    2.85    0.33
   6  13  -2    2.71    0.33
   5  13  -2    0.63    0.25
   5  13  -2    0.43    0.24
   5  13  -2    0.69    0.19
   4  13  -2    0.32    0.15
  -1  13  -2    1.61    0.21
  -1  13  -2    1.75    0.26
  -2  13  -2    3.76    0.35
  -2  13  -2    3.56    0.29
  -2  13  -2    3.53    0.27
  -3  13  -2    4.01    0.41
  -3  13  -2    3.50    0.31
  -3  13  -2    4.42    0.33
  -4  13  -2    4.64    0.36
  -4  13  -2    5.02    0.48
  -5  13  -2    3.77    0.41
  -5  13  -2    3.86    0.51
  -6  13  -2    1.82    0.53
   9  12  -2    0.59    0.43
   8  12  -2   -0.54    0.35
   7  12  -2    0.63    0.32
   7  12  -2    0.33    0.23
   7  12  -2    0.14    0.29
   6  12  -2   -0.15    0.26
   6  12  -2    0.04    0.20
   6  12  -2   -0.18    0.25
   5  12  -2    1.47    0.24
   5  12  -2    1.22    0.24
   5  12  -2    1.14    0.19
   4  12  -2   13.01    0.52
   4  12  -2   13.06    0.54
   4  12  -2   13.00    0.45
   0  12  -2    8.18    0.40
   0 -12   2    8.89    0.56
  -1  12  -2    4.45    0.38
  -1  12  -2    5.13    0.35
  -2  12  -2    5.91    0.41
  -2  12  -2    5.35    0.47
  -3  12  -2    0.38    0.30
  -3  12  -2    0.23    0.21
  -3  12  -2    0.34    0.24
  -4  12  -2   -0.35    0.34
  -4  12  -2    0.26    0.24
  -5  12  -2    0.25    0.28
  -5  12  -2    0.89    0.41
  -6  12  -2    3.05    0.32
  -6  12  -2    3.14    0.33
  -6  12  -2    2.02    0.49
  -7  12  -2    4.21    0.44
  10  11  -2   -0.09    0.25
   9  11  -2    2.82    0.45
   8  11  -2    6.13    0.47
   7  11  -2    6.89    0.56
   7  11  -2    6.98    0.58
   7  11  -2    7.68    0.49
   6  11  -2    4.98    0.38
   6  11  -2    4.38    0.34
   6  11  -2    3.80    0.33
   5  11  -2    1.50    0.20
   5  11  -2    1.55    0.24
   5  11  -2    1.66    0.23
   4  11  -2    2.53    0.24
   4  11  -2    2.93    0.23
   4  11  -2    2.64    0.21
  -1 -11   2    8.66    0.52
   0  11  -2    5.13    0.30
   0 -11   2    5.04    0.45
  -1  11  -2    0.05    0.19
  -1  11  -2   -0.23    0.16
   1 -11   2   -0.44    0.26
  -2  11  -2   -0.08    0.22
  -2  11  -2   -0.03    0.19
  -3  11  -2    4.57    0.35
  -3  11  -2    3.96    0.31
  -3  11  -2    4.28    0.31
  -4  11  -2    6.22    0.44
  -4  11  -2    6.99    0.52
  -4  11  -2    6.64    0.40
  -5  11  -2    8.08    0.70
  -5  11  -2    9.78    0.48
  -5  11  -2   10.06    0.50
  -5  11  -2    9.72    0.49
  -6  11  -2    5.21    0.46
  -6  11  -2    5.94    0.53
  -6  11  -2    6.08    0.47
  -7  11  -2    3.31    0.48
  -8  11  -2    7.30    0.66
  10  10  -2    1.80    0.34
   9  10  -2   12.66    0.63
   9  10  -2   11.94    0.57
   9  10  -2   14.13    0.83
   8  10  -2    5.56    0.44
   8  10  -2    5.53    0.35
   8  10  -2    5.27    0.33
   7  10  -2   13.61    0.69
   7  10  -2   13.12    0.60
   7  10  -2   14.17    0.72
   6  10  -2    2.93    0.28
   6  10  -2    3.08    0.31
   6  10  -2    3.22    0.27
   5  10  -2    0.01    0.17
   5  10  -2   -0.07    0.22
   5  10  -2    0.22    0.19
   4  10  -2    0.79    0.17
   4  10  -2    0.56    0.15
   3  10  -2    2.84    0.20
  -3 -10   2    3.62    0.42
  -2 -10   2    8.45    0.57
  -2 -10   2    8.85    0.48
  -1 -10   2   19.78    0.83
  -1 -10   2   19.90    0.86
   0  10  -2   45.28    1.48
   0 -10   2   49.22    1.71
   0 -10   2   48.83    1.72
  -1  10  -2   41.84    1.35
  -1  10  -2   42.12    1.36
   1 -10   2   42.92    1.58
   1 -10   2   44.17    1.58
  -2  10  -2   33.89    1.15
  -2  10  -2   34.67    1.14
  -3  10  -2    5.62    0.48
  -3  10  -2    5.89    0.45
  -3  10  -2    6.13    0.34
  -4  10  -2    2.21    0.28
  -4  10  -2    2.54    0.32
  -4  10  -2    2.07    0.24
  -4  10  -2    2.12    0.26
  -4  10  -2    2.33    0.26
  -5  10  -2   11.68    0.59
  -5  10  -2   11.64    0.70
  -5  10  -2   12.43    0.59
  -5  10  -2   11.14    0.53
  -6  10  -2    4.62    0.45
  -6  10  -2    3.92    0.45
  -6  10  -2    3.88    0.43
  -7  10  -2    0.33    0.40
  -7  10  -2   -0.27    0.40
  -8  10  -2   -0.31    0.50
  -8  10  -2   -0.03    0.47
  11   9  -2    0.18    0.43
  10   9  -2   -0.31    0.35
   9   9  -2    0.36    0.30
   9   9  -2    0.78    0.36
   8   9  -2    0.85    0.30
   8   9  -2    0.81    0.26
   8   9  -2    0.49    0.30
   7   9  -2    0.19    0.22
   7   9  -2   -0.10    0.28
   7   9  -2    0.12    0.22
   7   9  -2   -0.22    0.25
   7   9  -2   -0.02    0.19
   6   9  -2   12.03    0.60
   6   9  -2   12.39    0.64
   6   9  -2   12.53    0.54
   5   9  -2    2.15    0.24
   5   9  -2    2.33    0.28
   5   9  -2    2.35    0.22
   4   9  -2    2.53    0.19
   4   9  -2    2.14    0.21
  -4  -9   2    2.45    0.39
   3   9  -2    5.17    0.24
   3   9  -2    5.50    0.31
  -3  -9   2    3.99    0.38
  -3  -9   2    4.91    0.34
  -1  -9   2   87.56    2.92
   0   9  -2   65.32    2.04
   0   9  -2   68.03    2.05
   0  -9   2   68.33    2.30
  -1   9  -2   10.13    0.48
  -1   9  -2   10.93    0.47
   1  -9   2    8.99    0.55
   1  -9   2   11.35    0.59
  -2   9  -2   21.32    0.78
  -2   9  -2   20.86    0.80
  -2   9  -2   22.11    0.81
   2  -9   2   21.00    0.94
  -3   9  -2    6.66    0.51
  -3   9  -2    7.20    0.48
  -3   9  -2    6.63    0.36
  -3   9  -2    7.65    0.47
  -3   9  -2    6.62    0.35
  -4   9  -2    1.16    0.23
  -4   9  -2    1.64    0.29
  -4   9  -2    1.29    0.27
  -4   9  -2    1.51    0.30
  -4   9  -2    1.63    0.28
  -4   9  -2    1.12    0.25
  -5   9  -2    0.16    0.30
  -5   9  -2   -0.01    0.29
  -5   9  -2    0.08    0.28
  -5   9  -2   -0.50    0.21
  -5   9  -2   -0.08    0.29
  -6   9  -2    4.15    0.42
  -6   9  -2    4.29    0.43
  -6   9  -2    3.59    0.42
  -7   9  -2    4.05    0.51
  -7   9  -2    4.56    0.47
  -8   9  -2    5.39    0.61
  -8   9  -2    5.94    0.57
  -9   9  -2   20.50    1.04
  -9   9  -2   22.38    1.21
  11   8  -2    0.61    0.47
  10   8  -2   -0.37    0.36
   9   8  -2    5.37    0.48
   9   8  -2    7.80    0.63
   8   8  -2    0.48    0.34
   8   8  -2   -0.06    0.27
   8   8  -2    0.12    0.29
   7   8  -2   28.08    1.05
   7   8  -2   28.95    1.08
   7   8  -2   26.49    1.01
   7   8  -2   28.94    1.03
   7   8  -2   28.83    0.95
   6   8  -2   23.35    0.84
   6   8  -2   23.24    0.81
   6   8  -2   23.74    0.89
   6   8  -2   24.09    0.92
   6   8  -2   22.02    0.81
   5   8  -2    7.54    0.41
   5   8  -2    6.94    0.52
   5   8  -2    7.51    0.46
   4   8  -2   14.63    0.51
   4   8  -2   14.50    0.59
  -4  -8   2   15.05    0.57
  -4  -8   2   15.79    0.56
   3   8  -2    0.75    0.13
   3   8  -2    0.70    0.15
  -3  -8   2    1.08    0.19
  -2  -8   2    1.63    0.22
  -1  -8   2    2.01    0.26
   0   8  -2    0.93    0.13
   0   8  -2    0.87    0.15
   0   8  -2    0.78    0.13
   0  -8   2    0.63    0.22
   0  -8   2    0.80    0.24
  -1   8  -2   -0.07    0.14
  -1   8  -2   -0.07    0.17
  -1   8  -2   -0.09    0.15
   1  -8   2    0.12    0.26
  -2   8  -2    3.66    0.26
  -2   8  -2    3.40    0.27
  -2   8  -2    3.57    0.25
   2  -8   2    3.97    0.39
  -3   8  -2   25.68    0.97
  -3   8  -2   27.58    0.92
  -3   8  -2   27.18    0.98
  -3   8  -2   26.17    0.94
   3  -8   2   25.15    1.09
  -4   8  -2   34.89    1.17
  -4   8  -2   33.79    1.21
  -4   8  -2   34.19    1.19
  -4   8  -2   32.10    1.16
  -4   8  -2   31.02    1.02
  -4   8  -2   32.69    1.16
  -5   8  -2   11.50    0.61
  -5   8  -2   12.01    0.52
  -5   8  -2   11.15    0.69
  -5   8  -2   12.32    0.63
  -5   8  -2   11.93    0.66
  -5   8  -2   12.18    0.61
  -6   8  -2    3.20    0.40
  -6   8  -2    2.90    0.31
  -6   8  -2    3.24    0.39
  -6   8  -2    2.87    0.39
  -7   8  -2    2.09    0.39
  -7   8  -2    1.21    0.39
  -8   8  -2    8.57    0.80
  -8   8  -2    6.28    0.57
  -9   8  -2    6.58    0.63
  -9   8  -2    6.77    0.76
  11   7  -2   -0.18    0.42
 -11  -7   2    0.24    0.44
  10   7  -2    6.73    0.61
 -10  -7   2    8.98    0.68
   9   7  -2   14.63    0.74
  -9  -7   2   15.05    0.74
   8   7  -2    2.82    0.35
   8   7  -2    3.12    0.41
  -8  -7   2    3.82    0.38
   7   7  -2   -0.07    0.26
   7   7  -2   -0.48    0.22
   7   7  -2   -0.43    0.27
   7   7  -2   -0.47    0.30
  -7  -7   2    0.23    0.25
   6   7  -2   -0.13    0.25
   6   7  -2    0.20    0.26
   6   7  -2   -0.04    0.27
   6   7  -2    0.35    0.22
   6   7  -2   -0.09    0.23
  -6  -7   2    0.00    0.22
   5   7  -2    7.62    0.43
   5   7  -2    7.83    0.47
   5   7  -2    8.27    0.42
   5   7  -2    7.78    0.53
   4   7  -2    0.95    0.19
   4   7  -2    1.04    0.17
  -4  -7   2    0.93    0.15
  -4  -7   2    0.42    0.23
   3   7  -2    1.76    0.15
   3   7  -2    1.55    0.15
   3   7  -2    1.35    0.16
   3   7  -2    1.90    0.28
  -3  -7   2    1.69    0.27
  -3  -7   2    1.80    0.19
  -3  -7   2    2.02    0.19
   2   7  -2   13.66    0.48
   2   7  -2   13.62    0.47
   2   7  -2   13.52    0.40
   2   7  -2   13.52    0.61
  -2  -7   2   13.94    0.56
  -1  -7   2    0.17    0.18
  -1  -7   2    0.04    0.17
   0   7  -2   11.85    0.44
   0   7  -2   11.95    0.45
   0   7  -2   11.73    0.43
   0  -7   2   12.39    0.57
   0  -7   2   11.97    0.55
  -1   7  -2   30.33    0.98
  -1   7  -2   30.18    1.03
  -1   7  -2   31.47    0.99
   1  -7   2   29.39    1.13
  -2   7  -2   76.79    2.50
  -2   7  -2   75.04    2.35
  -2   7  -2   78.37    2.35
  -2   7  -2   75.52    2.36
   2  -7   2   76.11    2.60
  -3   7  -2   93.39    2.84
  -3   7  -2   90.19    2.84
  -3   7  -2   92.25    3.00
  -3   7  -2   90.10    2.82
  -3   7  -2   93.60    2.82
   3  -7   2   88.97    3.11
  -4   7  -2   22.97    0.89
  -4   7  -2   23.94    0.78
  -4   7  -2   22.96    0.93
  -4   7  -2   23.51    0.88
  -4   7  -2   22.95    0.89
  -4   7  -2   23.19    0.89
  -4   7  -2   23.76    0.92
   4  -7   2   22.90    1.01
  -5   7  -2   18.59    0.80
  -5   7  -2   19.31    0.85
  -5   7  -2   19.33    0.84
  -5   7  -2   18.38    0.70
  -5   7  -2   19.42    0.81
  -6   7  -2    2.69    0.30
  -6   7  -2    3.12    0.38
  -6   7  -2    2.64    0.37
  -6   7  -2    3.56    0.40
  -7   7  -2    0.01    0.36
  -7   7  -2   -0.22    0.33
  -8   7  -2    0.55    0.47
  -8   7  -2    0.89    0.40
  -9   7  -2    1.64    0.45
  -9   7  -2    1.09    0.57
 -10   7  -2   -0.38    0.66
  12   6  -2    1.77    0.56
 -12  -6   2    2.24    0.61
  11   6  -2    3.48    0.53
 -11  -6   2    3.69    0.55
  10   6  -2    5.11    0.53
 -10  -6   2    5.53    0.49
   9   6  -2   -0.20    0.35
  -9  -6   2    0.26    0.32
   8   6  -2    0.09    0.29
   8   6  -2   -0.15    0.33
  -8  -6   2    0.15    0.28
   7   6  -2    1.89    0.27
   7   6  -2    2.30    0.36
   7   6  -2    1.68    0.30
   7   6  -2    1.80    0.35
  -7  -6   2    1.92    0.30
   6   6  -2   -0.17    0.27
   6   6  -2    0.06    0.23
   6   6  -2   -0.10    0.22
   6   6  -2   -0.01    0.29
   6   6  -2    0.03    0.30
  -6  -6   2    0.15    0.23
   5   6  -2    4.72    0.36
   5   6  -2    4.13    0.32
   5   6  -2    4.52    0.41
   5   6  -2    4.22    0.35
   5   6  -2    4.75    0.39
  -5  -6   2    4.44    0.28
   4   6  -2    4.56    0.35
   4   6  -2    4.26    0.30
   4   6  -2    4.83    0.41
   4   6  -2    5.22    0.31
  -4  -6   2    4.74    0.26
  -4  -6   2    5.08    0.33
   3   6  -2   72.11    2.36
   3   6  -2   73.26    2.00
   3   6  -2   73.35    2.22
   3   6  -2   72.27    2.42
  -3  -6   2   74.52    2.38
   2   6  -2   12.81    0.44
   2   6  -2   11.85    0.56
   2   6  -2   12.07    0.37
   2   6  -2   12.03    0.43
  -2  -6   2   12.44    0.50
   1   6  -2    0.46    0.09
  -1  -6   2    0.69    0.18
  -1  -6   2    0.41    0.18
   0   6  -2    1.95    0.14
   0   6  -2    1.91    0.14
   0   6  -2    1.74    0.12
   0  -6   2    1.75    0.26
   0  -6   2    1.82    0.23
  -1   6  -2    5.99    0.30
  -1   6  -2    5.84    0.32
  -1   6  -2    6.04    0.30
   1  -6   2    5.71    0.39
  -2   6  -2   14.34    0.55
  -2   6  -2   14.61    0.57
  -2   6  -2   14.21    0.53
  -2   6  -2   13.81    0.57
  -2   6  -2   14.48    0.54
   2  -6   2   14.33    0.66
  -3   6  -2    4.07    0.27
  -3   6  -2    4.24    0.35
  -3   6  -2    3.70    0.29
  -3   6  -2    3.29    0.37
  -3   6  -2    3.43    0.29
  -3   6  -2    4.00    0.35
  -3   6  -2    4.05    0.31
   3  -6   2    3.73    0.38
  -4   6  -2    0.92    0.30
  -4   6  -2    1.29    0.27
  -4   6  -2    0.74    0.21
  -4   6  -2    1.21    0.24
  -4   6  -2    1.47    0.28
  -4   6  -2    0.82    0.27
  -5   6  -2    3.75    0.40
  -5   6  -2    3.84    0.36
  -5   6  -2    4.26    0.37
  -5   6  -2    3.39    0.30
  -5   6  -2    2.26    0.32
  -6   6  -2    0.63    0.33
  -6   6  -2    0.65    0.33
  -6   6  -2    0.64    0.26
  -6   6  -2    0.69    0.35
  -7   6  -2    3.13    0.43
  -7   6  -2    1.59    0.37
  -8   6  -2    7.73    0.65
  -8   6  -2    8.88    0.75
  -9   6  -2    4.89    0.65
  -9   6  -2    4.79    0.55
 -10   6  -2    2.61    0.68
 -12  -5   2    0.76    0.60
  11   5  -2    2.62    0.51
 -11  -5   2    3.31    0.56
  10   5  -2    2.54    0.48
 -10  -5   2    2.51    0.44
   9   5  -2    0.57    0.39
  -9  -5   2    1.60    0.36
   8   5  -2    4.29    0.45
   8   5  -2    3.96    0.38
  -8  -5   2    4.62    0.40
   7   5  -2    5.39    0.47
   7   5  -2    6.03    0.50
   7   5  -2    6.62    0.55
  -7  -5   2    6.03    0.51
   6   5  -2   45.17    1.55
   6   5  -2   46.65    1.38
   6   5  -2   46.44    1.52
   6   5  -2   44.31    1.53
   6   5  -2   48.33    1.56
  -6  -5   2   46.03    1.54
   5   5  -2    2.16    0.28
   5   5  -2    1.81    0.27
   5   5  -2    2.61    0.31
   5   5  -2    2.08    0.22
   5   5  -2    2.23    0.24
  -5  -5   2    1.71    0.24
  -5  -5   2    3.31    0.24
   4   5  -2   -0.18    0.14
   4   5  -2   -0.03    0.15
   4   5  -2    0.26    0.19
   4   5  -2    0.06    0.18
   4   5  -2    0.07    0.15
   4   5  -2   -0.07    0.18
  -4  -5   2    0.05    0.13
  -4  -5   2   -0.11    0.17
   3   5  -2   60.45    1.89
   3   5  -2   61.74    2.05
   3   5  -2   63.20    1.90
   3   5  -2   61.59    2.01
   3   5  -2   60.20    1.70
  -3  -5   2   63.33    2.01
   2   5  -2    7.51    0.43
   2   5  -2    8.57    0.28
   2   5  -2    8.30    0.33
   2   5  -2    8.52    0.33
   1   5  -2    9.70    0.35
   1   5  -2    9.11    0.33
  -1  -5   2    9.30    0.41
  -1  -5   2    9.18    0.44
   0   5  -2    4.25    0.23
   0   5  -2    4.73    0.24
   0   5  -2    3.96    0.22
   0  -5   2    4.23    0.32
   0  -5   2    4.36    0.31
  -1   5  -2    1.00    0.12
  -1   5  -2    0.78    0.14
  -1   5  -2    0.96    0.13
  -1   5  -2    1.04    0.13
   1  -5   2    0.80    0.21
  -2   5  -2    0.20    0.09
  -2   5  -2    0.69    0.15
  -2   5  -2    0.46    0.17
  -2   5  -2    0.60    0.14
  -2   5  -2    0.62    0.18
   2  -5   2    0.90    0.23
  -3   5  -2   18.81    0.72
  -3   5  -2   18.03    0.73
  -3   5  -2   19.29    0.80
  -3   5  -2   18.65    0.71
  -3   5  -2   20.02    0.70
  -3   5  -2   18.62    0.69
   3  -5   2   18.25    0.79
  -4   5  -2   22.63    0.92
  -4   5  -2   24.14    1.00
  -4   5  -2   24.45    0.91
  -4   5  -2   26.29    0.79
  -4   5  -2   23.81    0.89
  -4   5  -2   24.41    0.92
  -4   5  -2   24.95    0.92
  -5   5  -2   24.29    0.95
  -5   5  -2   24.56    0.97
  -5   5  -2   25.59    0.98
  -5   5  -2   25.42    0.83
  -5   5  -2   23.89    0.98
  -5   5  -2   24.69    0.98
  -6   5  -2   44.75    1.60
  -6   5  -2   43.45    1.56
  -6   5  -2   44.61    1.54
  -6   5  -2   42.40    1.34
  -7   5  -2   20.32    0.90
  -7   5  -2   17.75    0.86
  -8   5  -2    3.30    0.46
  -8   5  -2    3.34    0.46
  -9   5  -2    0.64    0.54
 -10   5  -2   -0.10    0.61
 -11   5  -2    0.54    0.74
 -12  -4   2    3.25    0.65
  11   4  -2   13.98    0.89
 -11  -4   2   15.06    0.91
  10   4  -2   11.00    0.72
 -10  -4   2   10.90    0.72
   9   4  -2   14.25    0.80
  -9  -4   2   14.63    0.74
   8   4  -2    3.27    0.45
  -8  -4   2    3.86    0.39
   7   4  -2   29.85    1.18
   7   4  -2   33.25    1.15
  -7  -4   2   30.54    1.19
   6   4  -2   33.80    1.15
   6   4  -2   32.90    1.20
   6   4  -2   32.81    1.05
   6   4  -2   33.67    1.20
   6   4  -2   33.23    1.14
   6   4  -2   31.98    1.20
  -6  -4   2   33.93    1.16
   5   4  -2    8.11    0.35
   5   4  -2    7.49    0.45
   5   4  -2    7.05    0.51
   5   4  -2    7.79    0.47
   5   4  -2    7.53    0.46
   5   4  -2    8.15    0.49
   5   4  -2    7.45    0.43
  -5  -4   2    6.88    0.44
  -5  -4   2    8.51    0.38
   4   4  -2    2.08    0.20
   4   4  -2    2.06    0.24
   4   4  -2    1.80    0.19
   4   4  -2    1.77    0.24
   4   4  -2    2.03    0.18
   4   4  -2    2.09    0.18
   4   4  -2    1.85    0.21
   4   4  -2    2.30    0.25
  -4  -4   2    2.23    0.22
  -4  -4   2    2.90    0.23
   3   4  -2   44.81    1.47
   3   4  -2   43.01    1.35
   3   4  -2   42.68    1.43
   3   4  -2   44.16    1.37
   3   4  -2   42.91    1.37
   3   4  -2   42.07    1.21
  -3  -4   2   43.52    1.42
   2   4  -2    6.56    0.29
   2   4  -2    6.58    0.37
   2   4  -2    6.29    0.24
   2   4  -2    6.48    0.26
   2   4  -2    6.46    0.28
  -2  -4   2    6.75    0.29
   1   4  -2    0.69    0.07
   1   4  -2    0.47    0.19
   1   4  -2    0.56    0.09
   1   4  -2    0.55    0.09
  -1  -4   2    0.46    0.19
   0   4  -2   21.10    0.73
   0   4  -2   20.74    0.68
   0   4  -2   20.93    0.69
   0  -4   2   22.64    0.78
   0  -4   2   22.03    0.78
  -1   4  -2   22.82    0.74
  -1   4  -2   23.49    0.75
  -1   4  -2   22.66    0.75
  -1   4  -2   22.05    0.78
   1  -4   2   22.83    0.84
  -2   4  -2    2.42    0.20
  -2   4  -2    2.61    0.20
  -2   4  -2    3.65    0.28
  -2   4  -2    2.09    0.22
  -2   4  -2    3.00    0.27
  -2   4  -2    2.86    0.25
   2  -4   2    2.46    0.27
  -3   4  -2   11.17    0.51
  -3   4  -2   11.38    0.52
  -3   4  -2   10.97    0.49
  -3   4  -2   11.71    0.57
  -3   4  -2   11.65    0.51
  -3   4  -2   11.34    0.51
  -4   4  -2   19.46    0.81
  -4   4  -2   18.56    0.73
  -4   4  -2   19.33    0.75
  -4   4  -2   18.87    0.77
  -4   4  -2   18.65    0.64
  -4   4  -2   18.64    0.74
  -4   4  -2   18.90    0.74
   4  -4   2   18.31    0.81
  -5   4  -2   37.92    1.17
  -5   4  -2   38.08    1.44
  -5   4  -2   39.62    1.38
  -5   4  -2   37.73    1.35
  -5   4  -2   37.97    1.31
  -5   4  -2   36.99    1.35
  -5   4  -2   39.53    1.34
   5  -4   2   38.09    1.44
  -6   4  -2   18.45    0.85
  -6   4  -2   20.37    0.88
  -6   4  -2   20.15    0.74
  -6   4  -2   20.14    0.88
   6  -4   2   19.50    0.92
  -7   4  -2    4.43    0.47
  -7   4  -2    4.53    0.44
  -8   4  -2    3.72    0.46
  -8   4  -2    3.83    0.50
  -9   4  -2    0.06    0.51
 -10   4  -2    0.22    0.63
 -11   4  -2    0.58    0.76
 -12  -3   2    7.27    0.78
 -11  -3   2    6.25    0.65
  10   3  -2    1.73    0.46
 -10  -3   2    1.42    0.44
   9   3  -2    0.05    0.38
  -9  -3   2    0.50    0.33
   8   3  -2    0.28    0.37
  -8  -3   2    0.72    0.30
   7   3  -2    0.11    0.26
   7   3  -2    0.27    0.23
   7   3  -2   -0.07    0.33
  -7  -3   2   -0.27    0.23
  -7  -3   2    0.10    0.27
   6   3  -2    2.76    0.26
   6   3  -2    3.08    0.33
   6   3  -2    3.54    0.28
   6   3  -2    3.05    0.37
   6   3  -2    2.69    0.37
   6   3  -2    3.43    0.30
  -6  -3   2    3.55    0.31
  -6  -3   2    3.75    0.35
   5   3  -2    0.57    0.25
   5   3  -2    0.45    0.18
   5   3  -2    0.11    0.25
   5   3  -2    0.40    0.18
   5   3  -2    0.11    0.21
   5   3  -2    0.59    0.16
  -5  -3   2    0.79    0.18
  -5  -3   2    0.63    0.21
   4   3  -2    2.19    0.21
   4   3  -2    2.06    0.19
   4   3  -2    2.44    0.25
   4   3  -2    2.64    0.20
   4   3  -2    2.54    0.24
   4   3  -2    2.68    0.21
   4   3  -2    2.04    0.24
   4   3  -2    2.53    0.26
  -4  -3   2    2.02    0.19
   3   3  -2   31.46    0.99
   3   3  -2   30.77    1.02
   3   3  -2   29.74    1.01
   3   3  -2   29.24    0.95
   3   3  -2   29.43    0.97
   3   3  -2   26.61    0.98
  -3  -3   2   29.49    0.99
   2   3  -2   37.13    1.21
   2   3  -2   36.12    1.14
   2   3  -2   35.90    1.02
   2   3  -2   36.45    1.15
   2   3  -2   35.72    1.15
   2   3  -2   38.13    1.24
  -2  -3   2   37.59    1.22
   1   3  -2  137.67    4.12
   1   3  -2  131.83    4.37
   1   3  -2  138.28    3.71
   1   3  -2  139.24    4.14
   1   3  -2  144.14    4.39
  -1  -3   2  135.75    4.37
   0   3  -2    1.86    0.14
   0   3  -2    1.91    0.13
   0   3  -2    1.82    0.16
   0   3  -2    1.74    0.12
   0  -3   2    1.86    0.21
  -1   3  -2   24.30    0.78
  -1   3  -2   24.32    0.78
  -1   3  -2   22.63    0.77
  -1   3  -2   22.71    0.81
  -1   3  -2   25.00    0.78
   1  -3   2   24.24    0.87
  -2   3  -2   17.76    0.62
  -2   3  -2   16.55    0.61
  -2   3  -2   17.46    0.65
  -2   3  -2   17.75    0.62
  -2   3  -2   17.18    0.63
  -3   3  -2    0.21    0.20
  -3   3  -2    0.01    0.14
  -3   3  -2    0.15    0.20
  -3   3  -2    0.02    0.17
  -3   3  -2    0.05    0.20
  -3   3  -2    0.13    0.18
   3  -3   2    0.04    0.21
  -4   3  -2    4.90    0.39
  -4   3  -2    5.33    0.40
  -4   3  -2    5.62    0.32
  -4   3  -2    5.50    0.41
  -4   3  -2    5.13    0.37
  -4   3  -2    5.03    0.40
  -4   3  -2    5.53    0.38
   4  -3   2    4.98    0.40
  -5   3  -2    4.25    0.34
  -5   3  -2    3.78    0.36
  -5   3  -2    3.13    0.32
  -5   3  -2    3.20    0.27
  -5   3  -2    3.32    0.35
  -5   3  -2    3.43    0.28
  -5   3  -2    3.62    0.37
   5  -3   2    3.50    0.38
  -6   3  -2    1.98    0.33
  -6   3  -2    1.56    0.27
  -6   3  -2    1.31    0.33
  -6   3  -2    1.83    0.37
   6  -3   2    1.96    0.38
  -7   3  -2    0.27    0.32
  -7   3  -2    0.02    0.34
  -8   3  -2    2.67    0.41
  -8   3  -2    2.91    0.44
  -9   3  -2   20.76    1.03
 -10   3  -2    8.07    0.74
 -12  -2   2    0.62    0.70
 -11  -2   2   -0.42    0.55
 -10  -2   2   -0.36    0.46
   9   2  -2   32.24    1.34
  -9  -2   2   35.95    1.37
   8   2  -2   25.84    1.01
   8   2  -2   25.12    1.07
  -8  -2   2   25.56    1.06
   7   2  -2   23.04    0.93
   7   2  -2   24.03    0.98
   7   2  -2   23.94    0.92
  -7  -2   2   23.52    0.93
  -7  -2   2   22.78    0.98
   6   2  -2    7.15    0.42
   6   2  -2    8.57    0.54
   6   2  -2    8.89    0.49
   6   2  -2    8.31    0.54
   6   2  -2    7.68    0.54
   6   2  -2    8.46    0.58
  -6  -2   2    8.62    0.53
  -6  -2   2    8.46    0.47
   5   2  -2   24.54    0.90
   5   2  -2   23.53    0.90
   5   2  -2   24.95    0.88
   5   2  -2   24.95    0.79
   5   2  -2   24.53    0.87
   5   2  -2   24.47    0.90
  -5  -2   2   23.83    0.89
  -5  -2   2   24.03    0.91
   4   2  -2   62.48    1.96
   4   2  -2   65.17    2.08
   4   2  -2   63.85    2.01
   4   2  -2   63.26    1.99
   4   2  -2   63.96    2.02
   4   2  -2   61.85    1.78
   4   2  -2   64.11    2.09
  -4  -2   2   63.90    2.09
  -4  -2   2   62.33    2.11
   3   2  -2    2.02    0.16
   3   2  -2    2.25    0.18
   3   2  -2    2.23    0.20
   3   2  -2    1.83    0.23
   3   2  -2    2.43    0.23
   3   2  -2    2.17    0.17
  -3  -2   2    2.20    0.21
   2   2  -2    7.39    0.28
   2   2  -2    7.83    0.36
   2   2  -2    7.26    0.33
   2   2  -2    7.33    0.31
   2   2  -2    7.39    0.34
   2   2  -2    7.42    0.32
   2   2  -2    6.77    0.32
  -2  -2   2    7.18    0.31
   1   2  -2   55.27    1.66
   1   2  -2   53.00    1.68
   1   2  -2   55.53    1.77
   1   2  -2   58.49    1.68
   1   2  -2   53.93    1.77
   1   2  -2   54.25    1.49
  -1  -2   2   54.61    1.77
   0   2  -2   -0.04    0.08
   0   2  -2    0.01    0.09
   0   2  -2   -0.04    0.07
   0   2  -2   -0.08    0.08
   0   2  -2   -0.01    0.08
   0  -2   2   -0.01    0.13
  -1   2  -2    0.68    0.13
  -1   2  -2    0.68    0.11
  -1   2  -2    0.87    0.16
  -1   2  -2    0.78    0.15
   1  -2   2    0.74    0.18
  -2   2  -2   25.41    0.82
  -2   2  -2   24.64    0.82
  -2   2  -2   24.50    0.84
  -2   2  -2   23.83    0.85
  -2   2  -2   23.54    0.80
  -3   2  -2   28.27    0.95
  -3   2  -2   27.39    0.91
  -3   2  -2   28.09    0.96
  -3   2  -2   28.14    0.95
  -3   2  -2   28.05    1.02
  -3   2  -2   27.16    0.97
   3  -2   2   27.69    1.01
  -4   2  -2   13.68    0.59
  -4   2  -2   13.32    0.58
  -4   2  -2   13.25    0.59
  -4   2  -2   13.74    0.60
  -4   2  -2   13.50    0.60
  -4   2  -2   12.68    0.55
  -4   2  -2   14.30    0.49
   4  -2   2   13.53    0.62
   4  -2   2   13.59    0.60
  -5   2  -2    0.77    0.26
  -5   2  -2    0.57    0.25
  -5   2  -2    0.63    0.27
  -5   2  -2    1.04    0.28
  -5   2  -2    0.60    0.23
  -5   2  -2    0.70    0.20
   5  -2   2    1.09    0.28
   5  -2   2    0.59    0.29
  -6   2  -2    2.20    0.33
  -6   2  -2    2.38    0.28
  -6   2  -2    3.11    0.37
  -6   2  -2    2.97    0.38
  -6   2  -2    2.99    0.35
   6  -2   2    2.33    0.37
  -7   2  -2   31.01    1.19
  -7   2  -2   28.23    1.16
   7  -2   2   30.05    1.20
  -8   2  -2   14.46    0.76
  -9   2  -2    6.19    0.58
 -10   2  -2    1.93    0.62
 -11   2  -2    1.45    0.67
 -12  -1   2    4.81    0.80
 -11  -1   2    3.49    0.66
 -10  -1   2    9.63    0.82
  -9  -1   2   13.54    0.81
   8   1  -2    8.95    0.65
   8   1  -2    8.25    0.54
  -8  -1   2    7.86    0.60
  -8  -1   2    8.82    0.56
   7   1  -2   31.74    1.24
   7   1  -2   32.96    1.21
  -7  -1   2   32.39    1.24
  -7  -1   2   33.31    1.22
   6   1  -2   40.46    1.37
   6   1  -2   40.80    1.42
   6   1  -2   39.88    1.23
   6   1  -2   40.59    1.42
   6   1  -2   39.47    1.43
  -6  -1   2   42.38    1.44
  -6  -1   2   40.80    1.44
  -6  -1   2   40.77    1.45
   5   1  -2    5.67    0.42
   5   1  -2    5.96    0.42
   5   1  -2    5.79    0.38
   5   1  -2    5.22    0.39
  -5  -1   2    4.81    0.38
  -5  -1   2    5.91    0.43
  -5  -1   2    5.57    0.36
  -5  -1   2    5.63    0.34
   4   1  -2    4.11    0.32
   4   1  -2    3.74    0.28
   4   1  -2    4.31    0.32
   4   1  -2    4.03    0.35
   4   1  -2    4.05    0.35
   4   1  -2    4.40    0.30
   4   1  -2    4.92    0.40
  -4  -1   2    3.71    0.29
  -4  -1   2    4.11    0.35
  -4  -1   2    3.55    0.28
  -4  -1   2    4.35    0.36
   3   1  -2   34.86    1.17
   3   1  -2   36.70    1.18
   3   1  -2   35.97    1.03
   3   1  -2   34.76    1.21
   3   1  -2   34.81    1.14
   3   1  -2   36.96    1.21
  -3  -1   2   35.58    1.02
  -3  -1   2   36.48    1.21
   2   1  -2   25.11    0.83
   2   1  -2   25.30    0.85
   2   1  -2   24.61    0.73
   2   1  -2   24.88    0.80
   2   1  -2   24.78    0.84
   2   1  -2   24.76    0.83
  -2  -1   2   24.68    0.85
  -2  -1   2   25.01    0.72
   1   1  -2    0.07    0.06
   1   1  -2    0.03    0.07
   1   1  -2    0.14    0.06
   1   1  -2    0.12    0.08
   1   1  -2    0.23    0.08
   1   1  -2    0.16    0.08
   1   1  -2    0.10    0.06
  -1  -1   2    0.05    0.07
  -1  -1   2    0.05    0.07
  -1  -1   2    0.05    0.06
   0   1  -2    0.27    0.07
   0   1  -2    0.25    0.07
   0   1  -2    0.19    0.06
   0   1  -2    0.24    0.06
   0  -1   2    0.30    0.08
  -1   1  -2    0.74    0.11
  -1   1  -2    0.68    0.09
  -1   1  -2    0.61    0.08
  -1   1  -2    0.59    0.09
  -1   1  -2    0.73    0.11
  -2   1  -2    7.60    0.39
  -2   1  -2    8.89    0.39
  -2   1  -2    7.93    0.41
  -2   1  -2    8.00    0.36
  -2   1  -2    8.95    0.38
   2  -1   2    8.02    0.40
   2  -1   2    7.57    0.40
  -3   1  -2  230.04    7.16
  -3   1  -2  220.03    6.73
  -3   1  -2  215.30    6.79
  -3   1  -2  225.39    6.79
  -3   1  -2  234.07    7.22
   3  -1   2  220.36    6.79
  -4   1  -2   44.30    1.43
  -4   1  -2   44.07    1.50
  -4   1  -2   44.16    1.46
  -4   1  -2   42.79    1.45
  -4   1  -2   43.38    1.27
  -4   1  -2   43.42    1.52
   4  -1   2   45.51    1.47
   4  -1   2   43.22    1.53
  -5   1  -2   28.09    0.88
  -5   1  -2   28.32    1.03
  -5   1  -2   27.69    1.01
  -5   1  -2   28.00    1.06
  -5   1  -2   27.30    1.00
   5  -1   2   27.97    1.06
   5  -1   2   28.98    1.05
  -6   1  -2    5.20    0.39
  -6   1  -2    4.84    0.44
  -6   1  -2    5.38    0.41
  -6   1  -2    5.13    0.40
  -6   1  -2    5.22    0.46
   6  -1   2    4.60    0.42
   6  -1   2    5.29    0.47
  -7   1  -2    0.21    0.34
  -7   1  -2    0.16    0.30
  -7   1  -2    0.45    0.31
   7  -1   2    0.21    0.32
  -8   1  -2    4.31    0.44
   8  -1   2    4.34    0.46
  -9   1  -2   -0.38    0.40
 -10   1  -2    0.52    0.53
 -11   1  -2    0.14    0.66
 -12   0   2    2.86    0.75
 -11   0   2    4.01    0.66
 -10   0   2   14.84    0.90
   9   0  -2   -0.26    0.33
  -9   0   2   -0.10    0.37
   8   0  -2    0.53    0.34
  -8   0   2    0.23    0.30
  -8   0   2    0.11    0.35
   7   0  -2    2.89    0.38
   7   0  -2    3.31    0.45
  -7   0   2    2.97    0.37
  -7   0   2    3.00    0.37
   6   0  -2    5.03    0.34
   6   0  -2    5.76    0.42
   6   0  -2    4.87    0.41
   6   0  -2    5.67    0.46
  -6   0   2    5.31    0.43
  -6   0   2    5.32    0.44
  -6   0   2    6.43    0.40
  -6   0   2    5.47    0.46
   5   0  -2   34.77    1.26
   5   0  -2   36.04    1.20
   5   0  -2   37.88    1.10
   5   0  -2   41.07    1.30
  -5   0   2   35.18    1.26
  -5   0   2   34.83    1.28
  -5   0   2   35.58    1.29
  -5   0   2   35.52    1.09
   4   0  -2   41.07    1.40
   4   0  -2   40.67    1.31
   4   0  -2   40.61    1.36
   4   0  -2   41.69    1.19
   4   0  -2   35.92    1.39
  -4   0   2   46.22    1.42
  -4   0   2   42.32    1.41
  -4   0   2   39.46    1.18
  -4   0   2   41.03    1.36
   3   0  -2    0.59    0.21
   3   0  -2    0.44    0.18
   3   0  -2    0.45    0.14
   3   0  -2    0.29    0.14
   3   0  -2    0.35    0.20
   3   0  -2    0.50    0.16
  -3   0   2    0.44    0.18
  -3   0   2    0.47    0.14
  -3   0   2    0.37    0.20
   2   0  -2   10.74    0.44
   2   0  -2   11.51    0.45
   2   0  -2   11.30    0.42
   2   0  -2   11.69    0.44
   2   0  -2   11.77    0.46
  -2   0   2   11.64    0.45
  -2   0   2   11.57    0.38
  -2   0   2   11.97    0.45
   1   0  -2  249.04    7.95
   1   0  -2  261.21    8.41
   1   0  -2  259.34    7.11
   1   0  -2  270.40    8.45
   1   0  -2  279.39    7.96
   1   0  -2  260.51    7.90
  -1   0   2  266.19    8.45
  -1   0   2  265.32    7.11
  -1   0   2  275.27    7.96
   0   0  -2   60.27    1.80
   0   0  -2   59.69    1.92
   0   0  -2   59.49    1.82
   0   0  -2   58.13    1.82
   0   0  -2   58.70    1.88
   0   0  -2   58.63    1.62
   0   0   2   56.55    1.82
   0   0   2   60.90    1.62
   0   0   2   61.00    1.88
  -1   0  -2    0.02    0.08
  -1   0  -2    0.01    0.07
  -1   0  -2    0.05    0.06
  -1   0  -2    0.06    0.06
  -1   0  -2    0.00    0.07
   1   0   2    0.07    0.08
  -2   0  -2   35.63    1.14
  -2   0  -2   33.59    1.10
   2   0   2   33.55    1.11
   2   0   2   33.65    1.16
  -3   0  -2   66.11    2.06
  -3   0  -2   67.85    1.85
  -3   0  -2   66.99    2.20
  -3   0  -2   64.19    2.09
  -3   0  -2   64.88    2.18
   3   0   2   68.06    2.21
   3   0   2   68.22    2.10
  -4   0  -2    6.79    0.38
  -4   0  -2    6.84    0.44
  -4   0  -2    6.69    0.34
  -4   0  -2    6.82    0.39
  -4   0  -2    6.47    0.42
   4   0   2    6.92    0.39
  -5   0  -2   23.86    0.90
  -5   0  -2   23.17    0.90
  -5   0  -2   22.81    0.87
  -5   0  -2   25.10    0.90
  -5   0  -2   23.19    0.76
   5   0   2   24.18    0.91
   5   0   2   23.02    0.89
  -6   0  -2    1.37    0.29
  -6   0  -2    1.03    0.32
  -6   0  -2    0.90    0.27
  -6   0  -2    1.14    0.24
   6   0   2    1.28    0.29
   6   0   2    1.22    0.32
  -7   0  -2    0.55    0.34
  -7   0  -2    0.27    0.28
  -7   0  -2   -0.20    0.29
   7   0   2    0.40    0.37
   7   0   2    0.35    0.31
  -8   0  -2    0.15    0.33
   8   0   2    0.71    0.33
  -9   0  -2    5.91    0.53
 -10   0  -2    1.30    0.52
 -11   0  -2    3.79    0.72
 -12   0  -2    4.29    0.79
 -12   1   2   -0.54    0.70
 -11   1   2   -0.62    0.59
 -10   1   2   -0.35    0.48
  -9   1   2    3.08    0.47
   8  -1  -2    1.97    0.40
  -8   1   2    2.51    0.39
   7  -1  -2    8.37    0.56
   7  -1  -2    8.66    0.58
  -7   1   2    9.19    0.60
  -7   1   2    7.90    0.55
   6  -1  -2   57.41    1.64
   6  -1  -2   55.68    1.89
   6  -1  -2   57.37    1.81
   6  -1  -2   53.49    1.94
  -6   1   2   56.85    1.95
  -6   1   2   56.65    1.64
  -6   1   2   56.08    1.89
  -6   1   2   54.08    1.93
   5  -1  -2   57.23    1.99
   5  -1  -2   59.60    1.92
   5  -1  -2   60.95    1.68
  -5   1   2   56.52    1.99
  -5   1   2   59.51    1.98
  -5   1   2   58.61    1.92
  -5   1   2   57.54    1.67
   4  -1  -2   72.44    2.27
   4  -1  -2   68.24    2.36
   4  -1  -2   71.14    2.00
  -4   1   2   77.74    2.38
  -4   1   2   69.60    1.99
  -4   1   2   71.81    2.38
  -4   1   2   70.38    2.26
   3  -1  -2   80.81    2.61
   3  -1  -2   80.82    2.21
   3  -1  -2   77.76    2.49
   3  -1  -2   80.34    2.63
  -3   1   2   78.76    2.21
  -3   1   2   78.03    2.63
  -3   1   2   81.80    2.64
  -3   1   2   83.96    2.50
   2  -1  -2   21.56    0.79
   2  -1  -2   23.30    0.68
   2  -1  -2   23.09    0.81
   2  -1  -2   24.12    0.79
  -2   1   2   23.10    0.81
  -2   1   2   23.81    0.78
  -2   1   2   21.84    0.67
   1  -1  -2   71.83    2.15
   1  -1  -2   67.20    2.28
   1  -1  -2   68.00    2.26
  -1   1   2   73.20    2.15
  -1   1   2   70.15    2.28
  -1   1   2   72.62    1.91
  -1   1   2   71.00    2.15
   0  -1  -2    3.70    0.18
   0  -1  -2    4.19    0.18
   0   1   2    4.30    0.19
   0   1   2    3.92    0.18
   0   1   2    3.74    0.15
   0   1   2    4.02    0.18
  -1  -1  -2   16.88    0.48
  -1  -1  -2   16.85    0.57
  -1  -1  -2   17.30    0.56
   1   1   2   17.27    0.56
   1   1   2   16.49    0.55
   1   1   2   17.54    0.49
  -2  -1  -2  104.13    3.13
  -2  -1  -2   95.20    3.29
   2   1   2  103.88    3.13
   2   1   2   99.77    3.09
   2   1   2  109.37    3.13
   2   1   2  102.67    3.31
  -3  -1  -2   18.93    0.69
  -3  -1  -2   18.27    0.69
  -3  -1  -2   18.15    0.59
   3   1   2   19.31    0.69
   3   1   2   17.65    0.66
   3   1   2   19.20    0.70
  -4  -1  -2   16.81    0.65
  -4  -1  -2   17.18    0.67
  -4  -1  -2   16.70    0.65
   4   1   2   17.09    0.63
   4   1   2   16.06    0.65
   4   1   2   17.17    0.67
  -5  -1  -2   35.11    1.22
  -5  -1  -2   35.05    1.20
  -5  -1  -2   33.86    1.20
  -5  -1  -2   35.03    1.02
   5   1   2   31.17    1.19
   5   1   2   33.41    1.19
   5   1   2   34.49    1.14
  -6  -1  -2   21.84    0.89
  -6  -1  -2   23.16    0.93
  -6  -1  -2   22.94    0.78
  -6  -1  -2   23.89    0.91
   6   1   2   22.59    0.90
   6   1   2   23.28    0.91
  -7  -1  -2    5.81    0.46
  -7  -1  -2    5.96    0.51
   7   1   2    6.69    0.57
   7   1   2    6.14    0.46
  -8  -1  -2    5.88    0.49
  -8  -1  -2    6.75    0.55
   8   1   2    6.34    0.49
  -9  -1  -2    4.95    0.50
   9   1   2    5.84    0.50
 -10  -1  -2   10.94    0.81
 -11  -1  -2    5.96    0.71
 -12  -1  -2    0.32    0.69
 -12   2   2    5.39    0.83
 -11   2   2    0.21    0.62
 -10   2   2    6.76    0.69
  -9   2   2   15.29    0.92
   8  -2  -2    8.73    0.61
  -8   2   2    9.59    0.69
   7  -2  -2   29.72    1.19
  -7   2   2   29.39    1.18
  -7   2   2   30.43    1.20
  -7   2   2   30.78    1.19
   6  -2  -2   33.92    1.33
   6  -2  -2   37.88    1.33
  -6   2   2   36.44    1.32
  -6   2   2   36.17    1.34
  -6   2   2   34.37    1.11
  -6   2   2   36.91    1.31
   5  -2  -2    2.44    0.30
   5  -2  -2    2.19    0.32
  -5   2   2    2.34    0.29
  -5   2   2    1.88    0.29
  -5   2   2    2.65    0.28
  -5   2   2    1.94    0.22
   4  -2  -2   36.78    1.34
   4  -2  -2   40.08    1.29
   4  -2  -2   38.90    1.12
   4  -2  -2   37.69    1.31
  -4   2   2   37.42    1.11
  -4   2   2   36.79    1.27
  -4   2   2   36.88    1.34
  -4   2   2   38.77    1.32
   3  -2  -2    8.16    0.43
   3  -2  -2    7.93    0.36
   3  -2  -2    8.11    0.38
  -3   2   2    7.95    0.42
  -3   2   2    8.68    0.42
  -3   2   2    8.01    0.42
  -3   2   2    6.69    0.43
  -3   2   2    8.28    0.34
   2  -2  -2   50.13    1.53
   2  -2  -2   46.34    1.61
   2  -2  -2   48.19    1.58
   2  -2  -2   48.08    1.34
  -2   2   2   48.18    1.52
  -2   2   2   46.72    1.62
  -2   2   2   48.93    1.34
  -2   2   2   48.46    1.52
   1  -2  -2   17.77    0.62
   1  -2  -2   18.39    0.52
  -1   2   2   18.28    0.52
  -1   2   2   17.47    0.64
  -1   2   2   18.46    0.60
  -1   2   2   18.46    0.60
   0  -2  -2   57.62    1.94
   0  -2  -2   61.87    1.96
   0  -2  -2   61.17    1.64
   0   2   2   62.61    1.84
   0   2   2   60.63    1.64
   0   2   2   62.92    1.85
   0   2   2   57.46    1.82
   0   2   2   61.06    1.96
  -1  -2  -2   76.41    2.47
  -1  -2  -2   80.11    2.48
  -1  -2  -2   78.77    2.43
  -1  -2  -2   75.00    2.09
   1   2   2   79.47    2.48
   1   2   2   76.16    2.33
   1   2   2   72.87    2.32
   1   2   2   76.03    2.44
   1   2   2   78.23    2.35
   1   2   2   79.48    2.35
   1   2   2   79.13    2.09
  -2  -2  -2    2.13    0.13
  -2  -2  -2    2.32    0.18
  -2  -2  -2    2.02    0.16
   2   2   2    1.90    0.18
   2   2   2    2.01    0.14
   2   2   2    2.98    0.25
   2   2   2    2.16    0.19
  -3  -2  -2   38.53    1.26
  -3  -2  -2   38.15    1.30
  -3  -2  -2   37.75    1.09
   3   2   2   40.52    1.26
   3   2   2   38.52    1.22
   3   2   2   39.49    1.29
   3   2   2   38.14    1.26
   3   2   2   38.24    1.23
  -4  -2  -2   29.50    0.87
  -4  -2  -2   29.52    1.03
  -4  -2  -2   30.64    1.02
   4   2   2   29.13    1.02
   4   2   2   29.04    1.02
   4   2   2   28.64    0.97
   4   2   2   29.40    1.02
  -5  -2  -2   54.19    1.76
  -5  -2  -2   53.17    1.49
  -5  -2  -2   53.84    1.71
   5   2   2   47.75    1.74
   5   2   2   51.95    1.71
   5   2   2   49.38    1.71
   5   2   2   53.65    1.66
  -6  -2  -2    6.45    0.46
  -6  -2  -2    5.28    0.38
  -6  -2  -2    6.24    0.43
  -6  -2  -2    5.45    0.44
   6   2   2    6.94    0.48
   6   2   2    5.87    0.39
   6   2   2    6.07    0.52
   6   2   2    5.74    0.49
  -7  -2  -2    0.11    0.29
   7   2   2    0.47    0.27
   7   2   2    0.43    0.35
  -8  -2  -2   -0.53    0.30
   8   2   2   -0.67    0.38
   8   2   2    0.46    0.30
  -9  -2  -2    0.51    0.36
 -10  -2  -2   -0.37    0.44
 -11  -2  -2    0.94    0.58
 -12  -2  -2   -0.12    0.70
 -11   3   2    1.26    0.66
 -10   3   2    1.30    0.58
  -9   3   2    4.08    0.55
  -8   3   2    7.08    0.58
   7  -3  -2    3.13    0.42
  -7   3   2    2.58    0.40
  -7   3   2    2.62    0.38
   6  -3  -2    4.12    0.41
  -6   3   2    3.99    0.41
  -6   3   2    4.19    0.38
  -6   3   2    3.33    0.39
  -6   3   2    3.14    0.30
   5  -3  -2   17.83    0.77
   5  -3  -2   19.28    0.79
  -5   3   2   18.29    0.76
  -5   3   2   17.95    0.79
  -5   3   2   18.46    0.76
  -5   3   2   18.17    0.66
  -5   3   2   17.84    0.75
  -5   3   2   18.52    0.76
   4  -3  -2   13.71    0.62
   4  -3  -2   14.47    0.63
  -4   3   2   13.71    0.60
  -4   3   2   13.87    0.61
  -4   3   2   15.41    0.61
  -4   3   2   13.42    0.62
  -4   3   2   13.47    0.62
  -4   3   2   14.53    0.53
   3  -3  -2   83.09    3.01
   3  -3  -2   92.80    2.98
  -3   3   2   95.33    2.85
  -3   3   2   90.86    3.03
  -3   3   2   91.14    2.79
  -3   3   2   92.21    2.52
  -3   3   2   90.13    2.81
  -3   3   2   95.04    2.84
  -3   3   2   95.67    2.99
   2  -3  -2   24.32    0.83
  -2   3   2   22.62    0.79
  -2   3   2   22.92    0.86
  -2   3   2   24.22    0.71
  -2   3   2   24.66    0.81
  -2   3   2   23.82    0.81
   1  -3  -2  256.44    8.25
   1  -3  -2  252.80    8.19
  -1   3   2  251.16    7.69
  -1   3   2  264.43    7.75
  -1   3   2  249.03    8.25
  -1   3   2  261.09    6.93
  -1   3   2  270.78    7.75
   0  -3  -2   65.35    2.18
   0  -3  -2   69.42    2.21
   0   3   2   69.38    1.84
   0   3   2   70.27    2.07
   0   3   2   69.75    2.07
   0   3   2   68.73    2.21
   0   3   2   64.34    2.05
  -1  -3  -2    1.51    0.13
  -1  -3  -2    1.35    0.12
  -1  -3  -2    1.40    0.10
   1   3   2    1.35    0.13
   1   3   2    1.32    0.11
   1   3   2    1.58    0.12
   1   3   2    1.29    0.10
   1   3   2    1.35    0.10
   1   3   2    1.65    0.12
  -2  -3  -2  192.64    6.13
   2   3   2  180.31    5.76
   2   3   2  200.80    6.17
   2   3   2  195.21    5.18
   2   3   2  194.40    6.05
   2   3   2  184.41    5.76
   2   3   2  193.47    5.81
   2   3   2  200.72    5.81
  -3  -3  -2  147.38    4.78
   3   3   2  150.97    4.50
   3   3   2  151.80    4.79
   3   3   2  147.10    4.05
   3   3   2  153.71    4.55
   3   3   2  144.46    4.50
   3   3   2  151.85    4.55
  -4  -3  -2   41.40    1.42
   4   3   2   44.78    1.35
   4   3   2   42.31    1.35
   4   3   2   42.34    1.21
   4   3   2   41.02    1.40
   4   3   2   42.43    1.38
   4   3   2   40.61    1.38
  -5  -3  -2    0.74    0.19
   5   3   2    0.54    0.17
   5   3   2    1.16    0.26
   5   3   2    0.96    0.24
   5   3   2    0.85    0.19
   5   3   2    0.70    0.17
   5   3   2    0.27    0.20
  -6  -3  -2    7.81    0.47
  -6  -3  -2    8.64    0.54
   6   3   2    7.48    0.57
   6   3   2    6.97    0.51
   6   3   2    7.00    0.54
   6   3   2    8.13    0.41
   6   3   2    7.51    0.51
  -7  -3  -2    3.38    0.35
   7   3   2    3.27    0.43
   7   3   2    3.42    0.32
   7   3   2    3.56    0.33
  -8  -3  -2    0.04    0.31
   8   3   2    0.65    0.28
   8   3   2    0.31    0.38
  -9  -3  -2   13.37    0.77
   9   3   2   12.45    0.80
 -10  -3  -2    4.51    0.55
 -11  -3  -2    2.22    0.57
 -11   4   2    0.12    0.66
 -10   4   2    0.01    0.59
  -9   4   2    0.49    0.46
  -8   4   2   10.74    0.68
  -7   4   2   24.25    1.04
  -7   4   2   22.72    0.99
   6  -4  -2   13.69    0.73
  -6   4   2   13.95    0.75
  -6   4   2   13.43    0.71
  -6   4   2   14.65    0.64
  -6   4   2   15.01    0.71
   5  -4  -2    8.73    0.54
   5  -4  -2    9.71    0.58
  -5   4   2    9.46    0.52
  -5   4   2    9.29    0.51
  -5   4   2    8.64    0.52
  -5   4   2    9.15    0.53
  -5   4   2    8.54    0.56
  -5   4   2    8.37    0.48
  -5   4   2    8.75    0.58
   4  -4  -2  113.67    3.87
  -4   4   2  116.03    3.81
  -4   4   2  113.17    3.63
  -4   4   2  120.75    3.23
  -4   4   2  120.54    3.59
  -4   4   2  115.50    3.57
  -4   4   2  122.09    3.88
  -4   4   2  117.21    3.63
   3  -4  -2  177.66    5.76
  -3   4   2  178.82    4.88
  -3   4   2  188.15    5.77
  -3   4   2  177.08    5.47
  -3   4   2  182.41    5.83
  -3   4   2  176.11    5.47
  -3   4   2  181.71    5.42
  -3   4   2  177.11    5.40
   2  -4  -2   87.46    2.79
   2  -4  -2   82.87    2.73
  -2   4   2   90.38    2.61
  -2   4   2   78.69    2.75
  -2   4   2   86.80    2.58
  -2   4   2   87.84    2.61
  -2   4   2   80.16    2.57
  -2   4   2   83.53    2.79
  -2   4   2   84.19    2.32
   1  -4  -2   21.21    0.79
   1  -4  -2   21.18    0.74
  -1   4   2   21.16    0.78
  -1   4   2   21.14    0.70
  -1   4   2   22.37    0.72
  -1   4   2   21.05    0.63
  -1   4   2   22.35    0.72
   0  -4  -2   42.03    1.45
   0  -4  -2   43.18    1.41
   0   4   2   44.60    1.34
   0   4   2   42.92    1.33
   0   4   2   45.35    1.46
   0   4   2   43.60    1.19
  -1  -4  -2   90.84    2.86
  -1  -4  -2   91.14    2.89
   1   4   2   91.06    2.42
   1   4   2   88.03    2.69
   1   4   2   90.76    2.71
   1   4   2   87.15    2.89
  -2  -4  -2  146.51    4.72
  -2  -4  -2  147.92    4.68
   2   4   2  142.41    4.68
   2   4   2  152.09    4.48
   2   4   2  152.35    4.48
   2   4   2  145.23    4.44
   2   4   2  146.32    4.00
   2   4   2  145.44    4.44
   2   4   2  157.06    4.00
  -3  -4  -2   66.10    2.16
   3   4   2   65.01    2.03
   3   4   2   69.91    2.15
   3   4   2   66.28    1.83
   3   4   2   64.44    2.04
   3   4   2   66.59    2.07
   3   4   2   67.72    2.07
  -4  -4  -2   45.69    1.55
   4   4   2   45.86    1.47
   4   4   2   45.02    1.51
   4   4   2   45.44    1.32
   4   4   2   47.45    1.50
   4   4   2   44.87    1.46
   4   4   2   46.63    1.50
   4   4   2   49.39    1.55
  -5  -4  -2    3.54    0.27
   5   4   2    4.00    0.30
   5   4   2    3.31    0.27
   5   4   2    3.46    0.31
   5   4   2    3.29    0.25
   5   4   2    3.44    0.32
   5   4   2    2.77    0.24
  -6  -4  -2   18.19    0.80
   6   4   2   20.01    0.69
   6   4   2   19.92    0.80
   6   4   2   18.86    0.73
   6   4   2   19.87    0.83
   6   4   2   19.02    0.80
   6   4   2   19.28    0.78
  -7  -4  -2   26.16    1.04
   7   4   2   28.11    1.02
   7   4   2   24.23    1.05
  -8  -4  -2    6.22    0.51
   8   4   2    6.68    0.57
  -9  -4  -2    9.68    0.66
   9   4   2    8.58    0.66
 -10  -4  -2   -0.02    0.42
 -11  -4  -2    4.23    0.59
 -12  -4  -2    0.25    0.64
 -11   5   2    3.03    0.74
 -10   5   2    8.07    0.76
  -9   5   2   18.04    0.98
  -8   5   2    1.06    0.39
  -8   5   2    1.17    0.42
  -7   5   2   -0.48    0.33
  -7   5   2   -0.21    0.31
   6  -5  -2   23.83    1.04
  -6   5   2   25.33    0.87
  -6   5   2   23.57    0.99
  -6   5   2   24.15    0.97
  -6   5   2   24.04    1.00
   5  -5  -2    9.53    0.57
  -5   5   2    8.42    0.53
  -5   5   2   10.37    0.52
  -5   5   2   10.30    0.61
  -5   5   2    9.63    0.53
  -5   5   2    9.10    0.59
  -5   5   2    9.09    0.60
  -5   5   2    9.23    0.58
   4  -5  -2   39.19    1.51
  -4   5   2   43.03    1.41
  -4   5   2   42.47    1.25
  -4   5   2   44.21    1.43
  -4   5   2   42.30    1.38
  -4   5   2   41.23    1.46
  -4   5   2   43.32    1.53
  -4   5   2   43.51    1.42
   3  -5  -2   -0.33    0.19
  -3   5   2    0.17    0.20
  -3   5   2    0.15    0.21
  -3   5   2    0.29    0.15
  -3   5   2    0.23    0.23
  -3   5   2    0.10    0.20
  -3   5   2    0.39    0.15
  -3   5   2   -0.02    0.18
   2  -5  -2   24.98    0.88
   2  -5  -2   26.13    0.95
  -2   5   2   22.48    0.88
  -2   5   2   25.25    0.83
  -2   5   2   26.13    0.85
  -2   5   2   27.01    0.86
  -2   5   2   26.53    0.86
  -2   5   2   25.58    0.75
  -2   5   2   25.42    0.94
   1  -5  -2   10.28    0.40
   1  -5  -2   10.95    0.48
  -1   5   2   10.22    0.40
  -1   5   2   10.83    0.40
  -1   5   2    9.90    0.35
  -1   5   2   10.85    0.40
  -1   5   2   10.51    0.48
   0  -5  -2    5.66    0.24
   0  -5  -2    5.41    0.32
   0   5   2    5.29    0.21
   0   5   2    5.40    0.32
   0   5   2    5.68    0.26
  -1  -5  -2   83.09    2.66
  -1  -5  -2   83.11    2.64
   1   5   2   81.20    2.46
   1   5   2   81.30    2.66
  -2  -5  -2   -0.08    0.17
  -2  -5  -2   -0.05    0.09
   2   5   2   -0.11    0.09
   2   5   2    0.00    0.02
   2   5   2   -0.02    0.09
   2   5   2   -0.07    0.16
   2   5   2   -0.14    0.09
   2   5   2    0.06    0.11
   2   5   2    0.30    0.11
  -3  -5  -2  106.52    3.37
   3   5   2  106.11    3.36
   3   5   2  100.42    2.86
   3   5   2  104.96    3.20
   3   5   2  105.57    3.20
   3   5   2  106.98    3.18
   3   5   2  104.86    3.17
  -4  -5  -2   76.19    2.48
   4   5   2   80.62    2.49
   4   5   2   72.82    2.35
   4   5   2   78.41    2.38
   4   5   2   75.38    2.11
   4   5   2   75.75    2.38
   4   5   2   74.15    2.34
  -5  -5  -2  116.77    3.87
   5   5   2  119.63    3.70
   5   5   2  125.14    3.85
   5   5   2  119.10    3.65
   5   5   2  118.17    3.28
   5   5   2  116.63    3.69
   5   5   2  120.52    3.64
  -6  -5  -2   70.26    2.37
   6   5   2   74.64    2.32
   6   5   2   70.20    2.36
   6   5   2   72.96    2.26
   6   5   2   74.66    2.25
   6   5   2   69.73    2.29
   6   5   2   67.85    2.01
   6   5   2   66.35    2.28
  -7  -5  -2    6.39    0.50
   7   5   2    6.00    0.39
   7   5   2    5.57    0.48
   7   5   2    6.61    0.53
  -8  -5  -2    4.87    0.47
   8   5   2    5.26    0.51
  -9  -5  -2    1.14    0.32
   9   5   2    1.25    0.40
 -10  -5  -2    0.08    0.37
  10   5   2    0.67    0.40
 -11  -5  -2    0.97    0.52
 -12  -5  -2    0.14    0.58
 -11   6   2    2.21    0.74
 -10   6   2    3.46    0.67
  -9   6   2    9.07    0.78
  -8   6   2    6.29    0.54
  -8   6   2    6.55    0.57
  -7   6   2   -0.54    0.33
  -7   6   2   -0.33    0.30
  -6   6   2    1.70    0.37
  -6   6   2    1.10    0.27
  -6   6   2    1.13    0.34
  -6   6   2    1.45    0.34
  -5   6   2   10.32    0.52
  -5   6   2    9.81    0.56
  -5   6   2    9.09    0.59
  -5   6   2    8.81    0.57
  -5   6   2    8.57    0.53
  -5   6   2    9.77    0.64
  -4   6   2   11.31    0.53
  -4   6   2   12.65    0.57
  -4   6   2   11.73    0.56
  -4   6   2   12.31    0.58
  -4   6   2   12.22    0.65
  -4   6   2   12.35    0.63
  -4   6   2   12.05    0.58
   3  -6  -2   59.27    2.04
  -3   6   2   60.23    1.88
  -3   6   2   56.69    1.85
  -3   6   2   58.68    1.97
  -3   6   2   58.52    1.88
  -3   6   2   59.79    1.67
  -3   6   2   59.66    2.04
  -3   6   2   60.28    1.86
   2  -6  -2   93.04    3.14
  -2   6   2   93.77    2.59
  -2   6   2   94.05    3.14
  -2   6   2   94.37    2.90
  -2   6   2   95.86    3.06
  -2   6   2   97.93    2.91
  -2   6   2   94.08    2.88
  -2   6   2   94.13    2.87
   1  -6  -2  109.14    3.62
   1  -6  -2  109.86    3.70
  -1   6   2  108.37    3.40
  -1   6   2  114.69    3.07
  -1   6   2  129.88    3.63
  -1   6   2  107.40    3.70
   0  -6  -2   94.97    3.09
   0  -6  -2   97.75    3.16
   0   6   2   97.83    2.61
   0   6   2   98.36    2.91
   0   6   2   95.72    3.16
  -1  -6  -2    5.44    0.29
   1   6   2    5.25    0.29
  -2  -6  -2   15.59    0.53
  -2  -6  -2   12.93    0.58
  -2  -6  -2   15.94    0.52
   2   6   2   15.58    0.45
   2   6   2   15.51    0.54
   2   6   2   16.22    0.61
   2   6   2   15.39    0.45
   2   6   2   15.16    0.52
   2   6   2   14.87    0.51
  -3  -6  -2    1.15    0.21
  -3  -6  -2    1.37    0.13
   3   6   2    0.97    0.14
   3   6   2    1.67    0.13
   3   6   2    0.77    0.22
   3   6   2    1.39    0.16
   3   6   2    1.42    0.14
  -4  -6  -2   19.55    0.71
   4   6   2   19.89    0.76
   4   6   2   19.24    0.71
   4   6   2   19.82    0.62
   4   6   2   18.94    0.69
   4   6   2   19.57    0.70
  -5  -6  -2    0.10    0.18
   5   6   2    0.41    0.23
   5   6   2    0.06    0.09
   5   6   2   -0.03    0.17
   5   6   2    0.38    0.19
   5   6   2   -0.01    0.21
   5   6   2   -0.11    0.24
  -6  -6  -2    4.41    0.32
   6   6   2    3.43    0.28
   6   6   2    3.99    0.34
   6   6   2    4.22    0.39
   6   6   2    3.54    0.30
  -7  -6  -2    3.49    0.33
   7   6   2    3.17    0.40
   7   6   2    3.17    0.31
  -8  -6  -2    5.67    0.50
   8   6   2    5.28    0.48
   8   6   2    5.19    0.40
  -9  -6  -2   11.37    0.68
   9   6   2   10.57    0.70
 -10  -6  -2    2.79    0.41
  10   6   2    2.88    0.49
 -11  -6  -2    2.67    0.50
  11   6   2    2.95    0.54
 -12  -6  -2    1.11    0.59
 -10   7   2    0.08    0.61
  -9   7   2    0.43    0.42
  -9   7   2    1.29    0.56
  -8   7   2    5.61    0.56
  -8   7   2    5.12    0.53
  -7   7   2    6.63    0.54
  -7   7   2    5.63    0.51
  -6   7   2   21.80    0.92
  -6   7   2   20.24    0.80
  -6   7   2   19.66    0.86
  -6   7   2   20.75    0.93
   5  -7  -2    0.47    0.19
  -5   7   2    0.05    0.26
  -5   7   2    0.09    0.23
  -5   7   2    0.50    0.29
  -5   7   2    0.32    0.30
  -5   7   2   -0.18    0.14
   4  -7  -2    1.00    0.28
  -4   7   2    1.50    0.24
  -4   7   2    1.18    0.29
  -4   7   2    1.68    0.23
  -4   7   2    1.24    0.34
  -4   7   2    1.23    0.27
  -4   7   2    1.68    0.30
   3  -7  -2   25.23    1.03
  -3   7   2   26.20    0.91
  -3   7   2   26.44    0.81
  -3   7   2   26.52    0.92
  -3   7   2   24.97    0.95
  -3   7   2   26.12    0.91
  -3   7   2   25.23    1.02
   2  -7  -2   52.09    1.83
  -2   7   2   52.38    1.65
  -2   7   2   53.07    1.74
  -2   7   2   52.07    1.64
  -2   7   2   51.83    1.83
  -2   7   2   54.55    1.48
  -2   7   2   54.21    1.66
  -2   7   2   51.41    1.65
   1  -7  -2  109.60    3.63
  -1   7   2  113.75    3.54
  -1   7   2  111.32    3.33
  -1   7   2  110.12    3.00
  -1   7   2  110.04    3.64
  -1   7   2  108.71    3.33
   0  -7  -2   34.73    1.22
   0   7   2   35.49    1.13
   0   7   2   34.33    1.07
   0   7   2   34.78    1.22
  -1  -7  -2    1.92    0.20
  -1  -7  -2    1.88    0.25
   1   7   2    2.03    0.20
  -2  -7  -2   -0.05    0.20
  -2  -7  -2    0.44    0.14
   2   7   2   -0.21    0.12
   2   7   2    0.15    0.10
   2   7   2   -0.13    0.08
   2   7   2   -0.06    0.08
   2   7   2    0.04    0.07
  -3  -7  -2   29.62    0.94
  -3  -7  -2   27.72    1.00
   3   7   2   28.36    1.01
   3   7   2   29.45    0.80
   3   7   2   26.24    0.91
   3   7   2   27.30    0.80
   3   7   2   26.85    0.90
  -4  -7  -2    0.95    0.15
   4   7   2    0.82    0.15
   4   7   2    0.48    0.16
   4   7   2    0.70    0.17
   4   7   2    0.78    0.18
   4   7   2    0.71    0.24
   4   7   2    0.64    0.18
  -5  -7  -2   55.30    1.81
   5   7   2   53.87    1.72
   5   7   2   54.13    1.73
   5   7   2   53.75    1.73
   5   7   2   50.61    1.54
   5   7   2   55.80    1.74
   5   7   2   54.37    1.85
  -6  -7  -2   42.36    1.53
   6   7   2   43.34    1.47
   6   7   2   45.44    1.49
   6   7   2   44.93    1.49
   6   7   2   43.93    1.49
   6   7   2   45.21    1.32
  -7  -7  -2   23.47    0.91
   7   7   2   21.33    0.92
   7   7   2   23.13    0.91
   7   7   2   22.54    0.79
   7   7   2   23.29    0.94
  -8  -7  -2   18.79    0.81
   8   7   2   18.95    0.84
   8   7   2   17.03    0.82
  -9  -7  -2   16.20    0.77
   9   7   2   14.22    0.78
 -10  -7  -2   11.47    0.71
  10   7   2   10.25    0.71
 -11  -7  -2   -0.46    0.43
  11   7   2    0.42    0.43
 -12  -7  -2    0.45    0.54
  12   7   2   -0.41    0.50
 -10   8   2    1.64    0.71
  -9   8   2   14.52    1.02
  -9   8   2   15.23    0.86
  -8   8   2   21.58    1.04
  -8   8   2   22.22    1.00
  -7   8   2   31.70    1.25
  -7   8   2   33.12    1.30
  -6   8   2   14.18    0.65
  -6   8   2   14.22    0.72
  -6   8   2   13.95    0.77
  -6   8   2   13.64    0.70
  -5   8   2   -0.15    0.30
  -5   8   2    0.26    0.29
  -5   8   2   -0.03    0.30
  -5   8   2    0.00    0.23
  -5   8   2    0.01    0.28
   4  -8  -2    5.49    0.52
  -4   8   2    5.39    0.43
  -4   8   2    5.54    0.45
  -4   8   2    5.45    0.45
  -4   8   2    5.08    0.44
  -4   8   2    5.65    0.39
  -4   8   2    5.75    0.44
   3  -8  -2    2.55    0.37
  -3   8   2    2.53    0.24
  -3   8   2    2.68    0.36
  -3   8   2    2.27    0.27
  -3   8   2    2.30    0.27
  -3   8   2    2.53    0.29
  -3   8   2    2.70    0.23
  -3   8   2    2.67    0.29
   2  -8  -2    0.25    0.26
  -2   8   2    0.40    0.16
  -2   8   2    0.44    0.16
  -2   8   2    0.27    0.26
  -2   8   2    0.40    0.17
  -2   8   2    0.53    0.16
  -2   8   2    0.55    0.21
   1  -8  -2   40.79    1.42
  -1   8   2   39.15    1.31
  -1   8   2   40.15    1.24
  -1   8   2   40.15    1.41
  -1   8   2   38.44    1.12
   0  -8  -2   20.86    0.79
   0   8   2   20.56    0.80
   0   8   2   20.13    0.68
   0   8   2   20.47    0.66
  -1  -8  -2   14.62    0.62
  -1  -8  -2   13.77    0.57
   1   8   2   14.04    0.58
  -2  -8  -2   31.58    1.16
  -2  -8  -2   33.52    1.11
   2   8   2   32.79    1.11
   2   8   2   32.51    1.01
  -3  -8  -2   24.62    0.90
  -3  -8  -2   24.61    0.79
   3   8   2   23.21    0.68
   3   8   2   24.15    0.91
   3   8   2   22.58    0.78
   3   8   2   23.71    0.68
   3   8   2   22.36    0.77
  -4  -8  -2   11.03    0.46
  -4  -8  -2   11.18    0.55
   4   8   2   10.05    0.57
   4   8   2   11.05    0.41
   4   8   2   11.20    0.48
   4   8   2   11.08    0.51
  -5  -8  -2    5.08    0.36
   5   8   2    5.44    0.36
   5   8   2    5.28    0.33
   5   8   2    5.31    0.43
   5   8   2    4.94    0.33
  -6  -8  -2    2.35    0.26
   6   8   2    2.50    0.30
   6   8   2    2.65    0.32
   6   8   2    2.28    0.31
   6   8   2    2.19    0.27
   6   8   2    2.23    0.25
  -7  -8  -2    4.85    0.44
   7   8   2    4.14    0.35
   7   8   2    4.18    0.40
   7   8   2    3.86    0.30
   7   8   2    4.25    0.37
   7   8   2    4.78    0.40
  -8  -8  -2    3.39    0.36
   8   8   2    3.83    0.36
   8   8   2    3.70    0.42
  -9  -8  -2    3.32    0.37
   9   8   2    2.92    0.43
 -10  -8  -2   -0.24    0.31
  10   8   2    0.39    0.37
 -11  -8  -2    0.44    0.41
  11   8   2   -0.25    0.44
  12   8   2    1.74    0.57
 -10   9   2    1.95    0.57
  -9   9   2    3.98    0.56
  -9   9   2    4.70    0.68
  -8   9   2    1.70    0.43
  -8   9   2    0.74    0.49
  -7   9   2    2.83    0.44
  -7   9   2    2.89    0.44
  -6   9   2    0.25    0.31
  -6   9   2    0.51    0.31
  -6   9   2    0.34    0.26
  -5   9   2   -0.16    0.23
  -5   9   2    0.09    0.30
  -5   9   2   -0.05    0.28
  -5   9   2    0.51    0.29
  -5   9   2   -0.08    0.27
  -4   9   2    2.85    0.34
  -4   9   2    2.63    0.32
  -4   9   2    2.70    0.33
  -4   9   2    2.65    0.29
  -4   9   2    2.76    0.30
  -4   9   2    3.11    0.27
   3  -9  -2   10.68    0.64
  -3   9   2   10.56    0.52
  -3   9   2    8.81    0.45
  -3   9   2   10.22    0.54
  -3   9   2   10.71    0.58
  -3   9   2   10.77    0.48
  -3   9   2   10.54    0.47
   2  -9  -2   21.21    0.91
  -2   9   2   21.26    0.67
  -2   9   2   20.32    0.75
  -2   9   2   21.31    0.79
  -2   9   2   20.94    0.77
  -2   9   2   21.07    0.69
  -2   9   2   21.21    0.90
   1  -9  -2   22.29    0.91
  -1   9   2   23.53    0.92
  -1   9   2   21.84    0.67
  -1   9   2   22.20    0.78
  -1   9   2   22.33    0.76
   0  -9  -2   22.70    0.89
   0  -9  -2   22.37    0.86
   0   9   2   21.72    0.71
   0   9   2   21.69    0.87
  -1  -9  -2   44.41    1.56
  -1  -9  -2   45.52    1.53
   1   9   2   43.43    1.53
  -2  -9  -2   56.38    1.83
  -2  -9  -2   52.30    1.87
   2   9   2   56.00    1.84
  -3  -9  -2    4.41    0.42
   3   9   2    4.84    0.22
   3   9   2    4.31    0.29
   3   9   2    4.66    0.39
   3   9   2    4.69    0.23
   3   9   2    5.03    0.33
  -4  -9  -2    7.17    0.48
   4   9   2    7.07    0.42
   4   9   2    6.94    0.39
   4   9   2    7.06    0.31
   5   9   2    0.24    0.22
   5   9   2    0.51    0.20
   5   9   2    0.09    0.17
   5   9   2    0.00    0.14
   6   9   2    0.26    0.23
   6   9   2    0.05    0.25
   6   9   2   -0.05    0.19
   6   9   2   -0.03    0.22
   6   9   2   -0.05    0.22
   7   9   2    6.39    0.47
   7   9   2    5.92    0.43
   7   9   2    5.56    0.50
   7   9   2    5.40    0.38
   7   9   2    6.33    0.55
   8   9   2    9.54    0.62
   8   9   2    7.35    0.53
   8   9   2    8.42    0.57
   9   9   2   25.57    1.06
   9   9   2   28.09    1.09
  10   9   2    4.68    0.50
  11   9   2    1.11    0.48
  -9  10   2    0.95    0.63
  -9  10   2    0.90    0.52
  -8  10   2    0.06    0.38
  -8  10   2    0.31    0.50
  -7  10   2    5.22    0.50
  -7  10   2    5.96    0.52
  -6  10   2   27.24    1.08
  -6  10   2   25.27    1.03
  -6  10   2   25.81    0.95
  -5  10   2   47.20    1.62
  -5  10   2   48.16    1.70
  -5  10   2   46.46    1.62
  -5  10   2   49.90    1.46
  -4  10   2   35.14    1.20
  -4  10   2   35.60    1.20
  -4  10   2   34.72    1.10
  -4  10   2   35.58    1.27
  -4  10   2   35.57    1.21
  -4  10   2   33.69    1.24
   3 -10  -2    8.94    0.61
  -3  10   2    8.88    0.41
  -3  10   2    8.87    0.49
  -3  10   2    8.75    0.51
  -3  10   2    9.08    0.45
  -3  10   2    8.62    0.55
  -3  10   2    8.85    0.42
   2 -10  -2    0.98    0.31
  -2  10   2    0.47    0.20
  -2  10   2    0.87    0.20
  -2  10   2    0.72    0.18
   1 -10  -2    1.51    0.30
  -1  10   2    1.19    0.17
  -1  10   2    0.99    0.29
  -1  10   2    0.97    0.15
   0 -10  -2   39.95    1.45
   0 -10  -2   42.33    1.47
   0  10   2   39.33    1.25
   0  10   2   41.04    1.46
  -1 -10  -2    9.53    0.57
  -1 -10  -2    9.93    0.51
   1  10   2   10.35    0.51
  -2 -10  -2    1.32    0.34
  -2 -10  -2    1.52    0.23
  -3 -10  -2   21.67    0.74
  -3 -10  -2   20.98    0.87
   3  10   2   20.05    0.71
   3  10   2   20.49    0.70
   3  10   2   21.72    0.61
   3  10   2   20.48    0.61
  -4 -10  -2   21.17    0.85
   4  10   2   19.92    0.70
   4  10   2   18.74    0.61
   4  10   2   19.14    0.72
   5  10   2   -0.01    0.19
   5  10   2    0.24    0.17
   5  10   2    0.39    0.22
   6  10   2    3.48    0.26
   6  10   2    4.08    0.32
   6  10   2    4.13    0.30
   7  10   2    8.81    0.60
   7  10   2    9.45    0.56
   7  10   2    9.08    0.44
   7  10   2    8.27    0.47
   7  10   2    9.15    0.45
   8  10   2    7.92    0.59
   8  10   2    6.48    0.46
   8  10   2    7.08    0.50
   9  10   2   17.21    0.80
   9  10   2   20.69    0.91
  10  10   2    1.48    0.40
  11  10   2    6.13    0.60
  -8  11   2    3.42    0.58
  -8  11   2    2.81    0.52
  -7  11   2    5.12    0.51
  -7  11   2    5.05    0.52
  -6  11   2   12.74    0.70
  -6  11   2   12.43    0.66
  -5  11   2    8.05    0.49
  -5  11   2    8.63    0.50
  -5  11   2    8.03    0.55
  -5  11   2    7.93    0.52
  -4  11   2    8.68    0.55
  -4  11   2    9.08    0.44
  -4  11   2    8.80    0.45
  -4  11   2    8.87    0.48
  -4  11   2    7.94    0.44
  -3  11   2    0.25    0.19
  -3  11   2    0.28    0.22
   2 -11  -2    0.32    0.30
  -2  11   2    0.00    0.17
  -2  11   2    0.12    0.19
   1 -11  -2    3.39    0.37
  -1  11   2    2.74    0.19
  -1  11   2    2.73    0.36
  -1  11   2    2.69    0.21
   0 -11  -2   25.49    1.04
   0 -11  -2   25.62    1.00
   0  11   2   25.07    1.01
  -1 -11  -2   22.65    0.86
  -1 -11  -2   20.63    0.91
   1  11   2   20.85    0.86
  -2 -11  -2   10.62    0.63
  -2 -11  -2   11.55    0.53
  -3 -11  -2   23.54    0.95
   3  11   2   22.26    0.75
  -4 -11  -2    6.64    0.51
   4  11   2    6.38    0.36
   4  11   2    6.43    0.40
   4  11   2    6.54    0.29
  -5 -11  -2   11.17    0.63
   5  11   2   11.38    0.52
   5  11   2   11.23    0.54
   5  11   2   10.25    0.42
   6  11   2   17.23    0.62
   6  11   2   18.08    0.73
   6  11   2   19.42    0.76
   7  11   2    0.07    0.25
   7  11   2    0.03    0.19
   7  11   2    0.39    0.26
   8  11   2    0.28    0.23
   8  11   2    0.18    0.30
   8  11   2    0.23    0.20
   9  11   2    0.51    0.27
   9  11   2    0.76    0.30
   9  11   2    0.44    0.36
  10  11   2    0.23    0.34
  11  11   2    0.25    0.43
  -8  12   2    1.78    0.54
  -7  12   2    0.27    0.42
  -6  12   2    0.10    0.32
  -6  12   2    0.49    0.28
  -5  12   2    1.48    0.28
  -5  12   2    1.42    0.26
  -5  12   2    1.37    0.29
  -5  12   2    1.73    0.28
  -4  12   2    2.94    0.30
  -4  12   2    3.14    0.29
  -3  12   2   14.90    0.63
  -3  12   2   13.91    0.56
  -2  12   2   24.71    0.78
  -2  12   2   25.34    0.88
   1 -12  -2   25.38    1.02
  -1  12   2   24.07    0.83
  -1  12   2   23.66    0.73
   0 -12  -2    8.81    0.51
   0  12   2    8.18    0.53
   0  12   2    7.12    0.30
  -1 -12  -2    0.24    0.35
  -1 -12  -2    0.51    0.24
  -2 -12  -2   21.10    0.93
  -3 -12  -2   15.82    0.77
   4  12   2    3.40    0.29
   4  12   2    3.79    0.33
   4  12   2    3.06    0.21
   5  12   2    2.62    0.19
   5  12   2    2.60    0.23
   5  12   2    2.58    0.24
   6  12   2    0.64    0.24
   6  12   2    0.22    0.23
   6  12   2    0.47    0.17
   7  12   2    0.90    0.21
   7  12   2    0.90    0.28
   7  12   2    1.21    0.28
   8  12   2   -0.19    0.32
   9  12   2   14.39    0.87
  10  12   2    1.90    0.31
  10  12   2    1.23    0.26
  -7  13   2    0.38    0.40
  -6  13   2    9.66    0.53
  -6  13   2   10.47    0.52
  -5  13   2   10.29    0.61
  -4  13   2   10.44    0.56
  -3  13   2   16.35    0.69
  -3  13   2   15.76    0.62
  -2  13   2   13.44    0.51
  -2  13   2   13.40    0.57
  -1  13   2    8.40    0.36
  -1  13   2    8.36    0.42
   0 -13  -2    1.04    0.28
   0  13   2    0.43    0.13
   5  13   2    1.02    0.21
   5  13   2    0.77    0.15
   5  13   2    0.59    0.20
   6  13   2    4.76    0.30
   6  13   2    5.34    0.46
   6  13   2    4.40    0.33
   7  13   2    3.96    0.36
   7  13   2    4.00    0.35
   8  13   2    2.81    0.40
   9  13   2    2.77    0.46
  10  13   2    2.67    0.49
  -5  14   2    5.91    0.44
  -4  14   2    3.02    0.33
  -3  14   2    0.90    0.26
  -3  14   2    1.00    0.26
  -2  14   2    0.26    0.21
  -2  14   2    0.21    0.22
  -1  14   2    2.86    0.23
  -1  14   2    3.42    0.24
   0  14   2    1.87    0.17
   5  14   2    4.00    0.36
   5  14   2    3.75    0.28
   6  14   2    5.46    0.46
   6  14   2    5.87    0.50
   7  14   2    0.94    0.32
   7  14   2    0.79    0.29
   8  14   2    1.10    0.39
   9  14   2   -0.10    0.41
  -5  15   2    1.27    0.37
  -4  15   2    2.26    0.35
  -3  15   2    2.36    0.32
  -3  15   2    2.48    0.31
  -2  15   2    4.04    0.32
  -2  15   2    3.67    0.30
  -1  15   2    6.32    0.42
  -1  15   2    6.40    0.36
   6  15   2    1.86    0.29
   6  15   2    2.49    0.31
   7  15   2   -0.01    0.30
   7  15   2    0.41    0.31
   8  15   2    0.41    0.37
  -4  16   2    6.69    0.46
  -3  16   2   16.06    0.72
  -3  16   2   18.97    0.80
  -2  16   2    2.81    0.30
  -2  16   2    2.95    0.32
  -1  16   2    4.08    0.29
  -1  16   2    4.22    0.31
   0  16   2   10.43    0.41
   6  16   2    0.58    0.27
   6  16   2    0.73    0.29
   7  16   2    2.35    0.37
   7  16   2    1.69    0.34
  -2  17   2   -0.12    0.30
  -1  17   2    0.35    0.24
   0  16  -3    3.81    0.27
  -1  16  -3    3.44    0.29
   6  15  -3    4.16    0.38
   6  15  -3    5.06    0.40
   6  15  -3    4.44    0.33
   5  15  -3    5.54    0.40
   4  15  -3    3.86    0.31
   0  15  -3    2.04    0.22
  -1  15  -3    0.41    0.31
  -2  15  -3    0.91    0.38
  -2  15  -3    1.94    0.29
  -2  15  -3    1.11    0.31
  -3  15  -3    0.33    0.34
  -3  15  -3   -0.52    0.42
   7  14  -3    4.88    0.44
   7  14  -3    3.97    0.43
   6  14  -3    2.82    0.29
   6  14  -3    2.96    0.35
   6  14  -3    2.75    0.36
   5  14  -3    2.72    0.26
   5  14  -3    3.23    0.31
   5  14  -3    2.65    0.30
   4  14  -3    3.98    0.29
   0  14  -3    0.52    0.17
  -1  14  -3    0.52    0.24
  -1  14  -3    0.52    0.29
  -2  14  -3    2.89    0.28
  -2  14  -3    2.94    0.38
  -2  14  -3    2.70    0.32
  -3  14  -3    0.87    0.41
  -3  14  -3    2.13    0.33
  -3  14  -3    1.96    0.30
  -4  14  -3   -0.01    0.45
  -4  14  -3    0.09    0.30
   8  13  -3    1.72    0.43
   7  13  -3    5.25    0.45
   7  13  -3    5.84    0.45
   6  13  -3    0.18    0.23
   6  13  -3    0.54    0.30
   6  13  -3    0.26    0.30
   5  13  -3    0.34    0.26
   5  13  -3    0.11    0.26
   5  13  -3   -0.07    0.20
   4  13  -3    0.78    0.18
   1  13  -3    9.40    0.34
  -1  13  -3    2.31    0.24
  -1  13  -3    2.18    0.29
  -2  13  -3    5.49    0.41
  -2  13  -3    5.89    0.43
  -3  13  -3    2.27    0.28
  -3  13  -3    1.67    0.38
  -3  13  -3    1.96    0.31
  -4  13  -3    3.57    0.35
  -4  13  -3    3.16    0.46
  -5  13  -3    2.18    0.35
  -5  13  -3    2.31    0.50
   9  12  -3   -0.25    0.43
   8  12  -3   -0.23    0.38
   7  12  -3    1.64    0.34
   7  12  -3    1.84    0.36
   6  12  -3    2.88    0.26
   6  12  -3    3.20    0.33
   6  12  -3    2.91    0.33
   5  12  -3    2.50    0.23
   5  12  -3    2.43    0.28
   5  12  -3    2.75    0.29
   4  12  -3    2.20    0.19
   4  12  -3    1.95    0.23
   3  12  -3    4.74    0.25
   1  12  -3   10.54    0.36
   0  12  -3    4.86    0.37
   0  12  -3    4.57    0.30
  -1  12  -3    5.29    0.36
  -1  12  -3    5.17    0.43
  -2  12  -3    1.35    0.29
  -2  12  -3    1.18    0.24
  -3  12  -3   -0.09    0.31
  -3  12  -3    0.06    0.22
  -3  12  -3    0.02    0.24
  -4  12  -3    0.06    0.37
  -4  12  -3    0.20    0.25
  -5  12  -3   -0.33    0.41
  -5  12  -3   -0.03    0.28
  -6  12  -3    2.13    0.31
  -6  12  -3    2.06    0.50
   9  11  -3    6.58    0.54
   8  11  -3    2.63    0.40
   7  11  -3    4.96    0.41
   7  11  -3    5.41    0.41
   6  11  -3    6.92    0.54
   6  11  -3    6.11    0.51
   6  11  -3    6.39    0.42
   5  11  -3    9.17    0.52
   5  11  -3    8.52    0.49
   5  11  -3    8.14    0.41
   4  11  -3   16.16    0.54
   4  11  -3   16.78    0.62
   3  11  -3   12.36    0.41
   1  11  -3    0.94    0.12
  -1 -11   3    1.31    0.28
   0  11  -3   10.73    0.44
   0  11  -3   10.62    0.47
   0 -11   3   11.49    0.63
  -1  11  -3    2.50    0.25
  -1  11  -3    2.60    0.23
  -2  11  -3    0.00    0.20
  -2  11  -3    0.17    0.23
  -3  11  -3    0.24    0.29
  -3  11  -3    0.88    0.24
  -4  11  -3    1.07    0.34
  -4  11  -3    1.10    0.25
  -5  11  -3    2.30    0.42
  -5  11  -3    2.30    0.28
  -5  11  -3    2.37    0.31
  -5  11  -3    2.48    0.29
  -6  11  -3    7.21    0.49
  -6  11  -3    5.98    0.55
  -6  11  -3    5.85    0.46
  -7  11  -3    1.30    0.44
  10  10  -3    6.90    0.47
   9  10  -3    9.45    0.51
   9  10  -3   10.11    0.78
   9  10  -3    8.97    0.47
   8  10  -3    8.25    0.68
   7  10  -3   11.18    0.67
   7  10  -3   10.48    0.64
   6  10  -3    0.56    0.27
   6  10  -3    0.79    0.25
   6  10  -3    0.87    0.22
   5  10  -3    0.24    0.18
   5  10  -3    0.05    0.23
   5  10  -3    0.19    0.21
   4  10  -3    2.80    0.20
   4  10  -3    2.52    0.22
   3  10  -3    1.31    0.15
   3  10  -3    1.29    0.17
  -2 -10   3    2.93    0.31
   1  10  -3    4.88    0.22
  -1 -10   3    5.65    0.44
  -1 -10   3    4.78    0.47
   0  10  -3   40.17    1.29
   0  10  -3   39.53    1.28
   0 -10   3   42.20    1.50
  -1  10  -3   50.16    1.59
  -1  10  -3   49.52    1.58
   1 -10   3   50.79    1.82
  -2  10  -3   41.28    1.35
  -2  10  -3   41.02    1.36
  -3  10  -3    7.41    0.48
  -3  10  -3    6.81    0.50
  -4  10  -3   -0.20    0.20
  -4  10  -3    0.06    0.29
  -4  10  -3    0.09    0.22
  -4  10  -3   -0.23    0.20
  -4  10  -3    0.06    0.24
  -5  10  -3    4.82    0.35
  -5  10  -3    4.87    0.43
  -5  10  -3    4.85    0.43
  -5  10  -3    4.85    0.42
  -6  10  -3    2.48    0.42
  -6  10  -3    2.81    0.39
  -7  10  -3   -0.01    0.40
  -8  10  -3    0.21    0.50
  11   9  -3    0.19    0.47
  10   9  -3    0.65    0.36
   9   9  -3    2.61    0.35
   9   9  -3    2.73    0.39
   9   9  -3    2.71    0.42
   8   9  -3    0.89    0.32
   8   9  -3    0.77    0.25
   8   9  -3    0.76    0.29
   7   9  -3    0.44    0.20
   7   9  -3    0.24    0.27
   7   9  -3   -0.38    0.29
   7   9  -3    0.70    0.22
   6   9  -3   17.23    0.73
   6   9  -3   18.10    0.67
   6   9  -3   17.41    0.79
   5   9  -3   16.27    0.66
   5   9  -3   16.36    0.70
   5   9  -3   16.43    0.59
   4   9  -3    5.50    0.31
   4   9  -3    5.40    0.39
  -4  -9   3    4.46    0.45
   3   9  -3    8.59    0.40
   3   9  -3    8.37    0.33
  -3  -9   3    8.50    0.45
  -3  -9   3    8.79    0.55
   2   9  -3    5.31    0.32
   2   9  -3    5.33    0.24
  -2  -9   3    4.88    0.42
  -2  -9   3    5.43    0.40
   1   9  -3   41.07    1.14
   1   9  -3   40.02    1.29
  -1  -9   3   42.20    1.51
  -1  -9   3   42.65    1.48
   0   9  -3   11.94    0.48
   0   9  -3   11.78    0.50
   0  -9   3   12.10    0.63
   0  -9   3   11.74    0.65
  -1   9  -3   25.48    0.91
  -1   9  -3   27.07    0.89
   1  -9   3   26.40    1.07
   1  -9   3   26.62    1.07
  -2   9  -3   19.29    0.75
  -2   9  -3   19.96    0.77
   2  -9   3   20.51    0.91
  -3   9  -3    1.41    0.22
  -3   9  -3    1.74    0.27
  -3   9  -3    1.72    0.28
  -3   9  -3    1.53    0.25
  -3   9  -3    1.41    0.21
  -4   9  -3    0.96    0.25
  -4   9  -3    1.18    0.29
  -4   9  -3    1.10    0.21
  -4   9  -3    1.42    0.26
  -4   9  -3    1.41    0.28
  -4   9  -3    0.86    0.27
  -5   9  -3    0.50    0.29
  -5   9  -3    1.08    0.24
  -5   9  -3    0.63    0.29
  -5   9  -3    0.70    0.30
  -5   9  -3    1.14    0.32
  -6   9  -3    0.67    0.34
  -6   9  -3    0.92    0.35
  -6   9  -3    1.31    0.37
  -7   9  -3    0.16    0.36
  -7   9  -3   -0.59    0.39
  -8   9  -3    5.22    0.62
  -8   9  -3    4.01    0.55
  -9   9  -3    3.59    0.59
  -9   9  -3    4.13    0.70
  11   8  -3    0.11    0.44
  10   8  -3    0.17    0.36
   9   8  -3    3.58    0.41
   9   8  -3    4.15    0.42
   8   8  -3    5.58    0.46
   8   8  -3    5.37    0.44
   8   8  -3    5.19    0.41
   7   8  -3   31.09    1.15
   7   8  -3   33.74    1.19
   7   8  -3   34.87    1.18
   6   8  -3   23.77    0.90
   6   8  -3   25.27    0.83
   6   8  -3   24.51    0.86
   6   8  -3   23.78    0.94
   6   8  -3   23.24    0.84
   5   8  -3   13.69    0.53
   5   8  -3   13.27    0.64
   5   8  -3   12.69    0.59
   4   8  -3   24.43    0.78
   4   8  -3   26.09    0.88
  -4  -8   3   25.99    0.91
   3   8  -3   32.55    0.97
   3   8  -3   32.49    1.09
  -3  -8   3   34.79    1.19
  -3  -8   3   35.76    1.19
   2   8  -3    7.53    0.28
   2   8  -3    6.83    0.34
  -2  -8   3    7.47    0.43
   1   8  -3    6.35    0.23
   1   8  -3    5.62    0.32
  -1  -8   3    5.72    0.41
   0   8  -3    4.93    0.32
   0   8  -3    5.30    0.31
   0  -8   3    4.86    0.42
   0  -8   3    5.93    0.43
  -1   8  -3   12.14    0.54
  -1   8  -3   13.49    0.56
  -1   8  -3   13.70    0.55
   1  -8   3   13.80    0.67
   1  -8   3   13.66    0.67
  -2   8  -3    9.76    0.49
  -2   8  -3   10.15    0.49
  -2   8  -3    9.15    0.51
   2  -8   3    9.42    0.59
  -3   8  -3   37.85    1.32
  -3   8  -3   37.10    1.24
  -3   8  -3   38.46    1.23
  -3   8  -3   34.81    1.25
  -3   8  -3   36.66    1.22
   3  -8   3   35.64    1.42
  -4   8  -3   42.31    1.41
  -4   8  -3   40.95    1.25
  -4   8  -3   40.60    1.41
  -4   8  -3   41.85    1.48
  -4   8  -3   42.80    1.41
  -4   8  -3   41.10    1.42
  -5   8  -3    7.14    0.43
  -5   8  -3    7.63    0.62
  -5   8  -3    7.55    0.53
  -5   8  -3    7.35    0.50
  -5   8  -3    8.30    0.53
  -6   8  -3    4.59    0.42
  -6   8  -3    3.81    0.41
  -6   8  -3    3.18    0.41
  -7   8  -3    7.33    0.67
  -7   8  -3    7.11    0.58
  -8   8  -3    4.88    0.54
  -8   8  -3    5.08    0.60
  -9   8  -3    3.64    0.66
  -9   8  -3    3.16    0.56
  11   7  -3    0.31    0.45
  10   7  -3    9.01    0.67
 -10  -7   3   11.05    0.72
   9   7  -3    6.75    0.55
  -9  -7   3    6.11    0.54
   8   7  -3   -0.10    0.29
   8   7  -3    0.35    0.30
  -8  -7   3    0.75    0.30
   7   7  -3    6.04    0.47
   7   7  -3    7.47    0.50
   7   7  -3    8.22    0.54
   6   7  -3    9.19    0.51
   6   7  -3   11.06    0.52
   6   7  -3    9.65    0.54
   6   7  -3    9.13    0.63
   6   7  -3   10.15    0.57
   5   7  -3    5.30    0.36
   5   7  -3    4.85    0.38
   5   7  -3    4.62    0.31
   5   7  -3    5.21    0.35
   4   7  -3    0.21    0.17
   4   7  -3    0.32    0.19
   4   7  -3   -0.03    0.16
  -4  -7   3    0.08    0.20
  -4  -7   3    0.39    0.18
   3   7  -3   17.53    0.56
   3   7  -3   18.08    0.65
   3   7  -3   18.32    0.65
  -3  -7   3   18.37    0.69
   2   7  -3   11.58    0.37
   2   7  -3   11.71    0.56
   2   7  -3   11.21    0.43
   2   7  -3   11.17    0.44
  -2  -7   3   11.69    0.51
  -2  -7   3   10.60    0.57
   1   7  -3   12.47    0.46
   1   7  -3   11.86    0.46
   1   7  -3   11.53    0.37
  -1  -7   3   12.13    0.60
  -1  -7   3   13.00    0.56
   0   7  -3   17.81    0.63
   0   7  -3   16.25    0.59
   0   7  -3   17.73    0.61
   0  -7   3   17.32    0.72
   0  -7   3   16.41    0.72
  -1   7  -3   22.99    0.78
  -1   7  -3   23.41    0.82
  -1   7  -3   23.02    0.80
   1  -7   3   22.50    0.92
  -2   7  -3   67.96    2.11
  -2   7  -3   68.70    2.13
  -2   7  -3   70.41    2.11
  -2   7  -3   68.41    2.25
   2  -7   3   64.90    2.35
  -3   7  -3   69.99    2.27
  -3   7  -3   73.50    2.27
  -3   7  -3   72.72    2.40
  -3   7  -3   73.82    2.26
  -3   7  -3   73.25    2.27
   3  -7   3   69.52    2.51
  -4   7  -3   42.71    1.45
  -4   7  -3   39.79    1.43
  -4   7  -3   42.64    1.42
  -4   7  -3   41.64    1.45
  -4   7  -3   45.21    1.51
  -5   7  -3   14.77    0.76
  -5   7  -3   14.58    0.60
  -5   7  -3   14.68    0.69
  -5   7  -3   14.62    0.72
  -5   7  -3   14.91    0.72
  -5   7  -3   15.36    0.71
  -6   7  -3   -0.18    0.32
  -6   7  -3   -0.18    0.30
  -6   7  -3    0.11    0.24
  -6   7  -3   -0.17    0.30
  -7   7  -3    0.44    0.38
  -7   7  -3    0.39    0.38
  -8   7  -3    0.49    0.39
  -8   7  -3    0.50    0.47
  -9   7  -3    0.63    0.44
 -10   7  -3    2.86    0.58
 -10   7  -3    2.05    0.69
  11   6  -3    4.79    0.58
 -11  -6   3    4.20    0.58
  10   6  -3    2.76    0.46
 -10  -6   3    2.82    0.44
   9   6  -3   -0.18    0.34
  -9  -6   3   -0.12    0.32
   8   6  -3    0.48    0.30
   8   6  -3    0.18    0.35
  -8  -6   3    0.44    0.29
   7   6  -3   -0.24    0.26
   7   6  -3    0.29    0.30
   7   6  -3    0.33    0.31
  -7  -6   3    0.05    0.26
   6   6  -3    0.11    0.28
   6   6  -3    0.00    0.22
   6   6  -3   -0.11    0.27
   6   6  -3    0.34    0.25
   6   6  -3    0.04    0.30
  -6  -6   3   -0.13    0.23
   5   6  -3   20.69    0.77
   5   6  -3   19.78    0.78
   5   6  -3   19.69    0.77
   5   6  -3   20.68    0.82
   5   6  -3   20.65    0.78
   5   6  -3   20.44    0.70
  -5  -6   3   20.34    0.74
  -5  -6   3   19.83    0.80
   4   6  -3   49.21    1.55
   4   6  -3   49.86    1.55
   4   6  -3   48.44    1.39
   4   6  -3   47.00    1.63
  -4  -6   3   50.92    1.63
   3   6  -3   49.73    1.52
   3   6  -3   49.33    1.68
   3   6  -3   50.08    1.61
   3   6  -3   49.29    1.37
  -3  -6   3   43.68    1.66
  -3  -6   3   50.97    1.63
   2   6  -3   17.39    0.70
   2   6  -3   15.60    0.56
   2   6  -3   16.94    0.59
   2   6  -3   15.99    0.49
  -2  -6   3   16.46    0.67
   1   6  -3   17.47    0.60
   1   6  -3   16.91    0.57
   1   6  -3   16.99    0.49
  -1  -6   3   16.39    0.70
  -1  -6   3   16.41    0.67
   0   6  -3    0.66    0.14
   0   6  -3    0.72    0.13
   0   6  -3    0.59    0.12
   0  -6   3    0.38    0.20
   0  -6   3    0.72    0.24
  -1   6  -3   72.72    2.19
  -1   6  -3   71.23    2.18
  -1   6  -3   73.52    2.18
  -1   6  -3   71.83    2.33
  -1   6  -3   72.26    2.20
   1  -6   3   68.84    2.42
  -2   6  -3   23.04    0.81
  -2   6  -3   22.32    0.79
  -2   6  -3   23.12    0.79
  -2   6  -3   22.43    0.78
  -2   6  -3   22.77    0.83
   2  -6   3   22.10    0.91
  -3   6  -3    7.70    0.46
  -3   6  -3    6.98    0.45
  -3   6  -3    7.70    0.45
  -3   6  -3    7.26    0.45
  -3   6  -3    7.28    0.50
   3  -6   3    7.68    0.54
  -4   6  -3    4.59    0.32
  -4   6  -3    4.73    0.36
  -4   6  -3    4.98    0.45
  -4   6  -3    4.72    0.42
  -4   6  -3    4.74    0.44
  -4   6  -3    5.46    0.47
  -5   6  -3    6.34    0.43
  -5   6  -3    6.37    0.53
  -5   6  -3    8.13    0.55
  -5   6  -3    6.49    0.57
  -5   6  -3    6.99    0.60
  -5   6  -3    6.89    0.51
  -6   6  -3    8.15    0.65
  -6   6  -3    7.99    0.57
  -6   6  -3    8.39    0.49
  -6   6  -3    8.39    0.61
  -7   6  -3    8.71    0.60
  -7   6  -3   10.08    0.69
  -8   6  -3    4.87    0.58
  -8   6  -3    5.07    0.52
  -9   6  -3    3.47    0.65
  -9   6  -3    3.32    0.52
 -10   6  -3    0.44    0.70
  12   5  -3   -0.61    0.52
 -12  -5   3   -0.11    0.60
  11   5  -3   -0.34    0.42
 -11  -5   3    0.23    0.50
  10   5  -3    0.67    0.41
 -10  -5   3    0.55    0.42
   9   5  -3    4.23    0.47
  -9  -5   3    5.81    0.55
   8   5  -3    0.95    0.36
   8   5  -3    1.40    0.31
  -8  -5   3    1.17    0.32
   7   5  -3    8.40    0.58
   7   5  -3    9.51    0.61
   7   5  -3    8.35    0.56
   6   5  -3   16.09    0.78
   6   5  -3   18.53    0.70
   6   5  -3   19.99    0.79
   6   5  -3   18.70    0.79
   6   5  -3   20.72    0.72
   6   5  -3   19.77    0.85
  -6  -5   3   19.89    0.73
   5   5  -3    5.64    0.49
   5   5  -3    6.00    0.44
   5   5  -3    5.99    0.42
   5   5  -3    5.66    0.46
   5   5  -3    5.84    0.41
   5   5  -3    6.10    0.40
  -5  -5   3    5.54    0.35
  -5  -5   3    7.21    0.46
   4   5  -3   37.55    1.28
   4   5  -3   37.25    1.22
   4   5  -3   37.07    1.21
   4   5  -3   37.56    1.23
   4   5  -3   37.37    1.32
   4   5  -3   36.31    1.09
  -4  -5   3   38.49    1.26
   3   5  -3   21.49    0.65
   3   5  -3   22.48    0.84
   3   5  -3   21.16    0.72
   3   5  -3   21.88    0.76
   3   5  -3   21.02    0.72
  -3  -5   3   20.38    0.80
  -3  -5   3   22.02    0.76
   2   5  -3    0.17    0.12
   2   5  -3    0.26    0.11
   2   5  -3    0.07    0.18
   2   5  -3    0.07    0.10
  -2  -5   3    0.04    0.19
   1   5  -3    0.24    0.10
   1   5  -3    0.27    0.11
   1   5  -3    0.40    0.09
  -1  -5   3    0.22    0.20
   0   5  -3    4.66    0.28
   0   5  -3    4.46    0.29
   0   5  -3    4.69    0.26
   0  -5   3    4.85    0.34
   0  -5   3    4.95    0.35
  -1   5  -3    9.53    0.39
  -1   5  -3    8.71    0.41
  -1   5  -3    9.47    0.38
  -1   5  -3    8.89    0.40
   1  -5   3    9.76    0.49
  -2   5  -3   31.57    1.03
  -2   5  -3   30.82    1.08
  -2   5  -3   30.46    1.02
  -2   5  -3   30.34    1.02
   2  -5   3   31.86    1.15
  -3   5  -3   30.53    1.11
  -3   5  -3   31.03    1.07
  -3   5  -3   32.04    1.07
  -3   5  -3   32.15    1.06
   3  -5   3   30.77    1.19
  -4   5  -3   48.70    1.63
  -4   5  -3   46.51    1.56
  -4   5  -3   47.95    1.53
  -4   5  -3   44.12    1.55
  -4   5  -3   48.08    1.55
  -4   5  -3   44.10    1.55
  -5   5  -3   21.96    0.90
  -5   5  -3   21.27    0.91
  -5   5  -3   22.75    0.77
  -5   5  -3   22.67    0.87
  -5   5  -3   22.97    0.92
   5  -5   3   17.54    0.92
  -6   5  -3   45.76    1.59
  -6   5  -3   44.39    1.65
  -6   5  -3   45.38    1.60
  -6   5  -3   46.32    1.40
  -7   5  -3   13.33    0.75
  -7   5  -3   13.00    0.71
  -8   5  -3    6.04    0.58
  -8   5  -3    6.48    0.58
  -9   5  -3   -0.39    0.54
  -9   5  -3   -0.32    0.37
 -10   5  -3   -0.36    0.67
 -12  -4   3    5.96    0.72
  11   4  -3    3.42    0.55
 -11  -4   3    2.98    0.59
  10   4  -3   13.39    0.79
 -10  -4   3   14.64    0.81
   9   4  -3   10.23    0.69
  -9  -4   3   10.10    0.64
   8   4  -3    0.03    0.35
  -8  -4   3    0.63    0.31
   7   4  -3    7.31    0.40
   7   4  -3    9.85    0.62
   7   4  -3    9.33    0.59
   6   4  -3    5.17    0.34
   6   4  -3    5.39    0.44
   6   4  -3    5.35    0.49
   6   4  -3    5.61    0.37
   6   4  -3    5.93    0.40
   6   4  -3    5.22    0.33
  -6  -4   3    6.27    0.38
  -6  -4   3    5.66    0.47
   5   4  -3   11.10    0.60
   5   4  -3   11.24    0.53
   5   4  -3   10.54    0.54
   5   4  -3   11.80    0.49
   5   4  -3   11.19    0.55
   5   4  -3   11.27    0.56
   5   4  -3   11.59    0.46
  -5  -4   3    8.87    0.55
  -5  -4   3   11.50    0.49
   4   4  -3   24.25    0.85
   4   4  -3   24.62    0.88
   4   4  -3   24.81    0.86
   4   4  -3   24.52    0.75
   4   4  -3   24.63    0.92
   4   4  -3   23.98    0.84
  -4  -4   3   24.51    0.86
   3   4  -3    0.56    0.16
   3   4  -3    0.51    0.16
   3   4  -3    0.50    0.21
   3   4  -3    0.46    0.15
   3   4  -3    0.51    0.13
   3   4  -3    0.66    0.14
  -3  -4   3    0.35    0.14
  -3  -4   3    0.36    0.19
   2   4  -3    7.88    0.41
   2   4  -3    8.08    0.28
   2   4  -3    7.98    0.34
   2   4  -3    7.82    0.33
  -2  -4   3    6.76    0.39
  -2  -4   3    7.52    0.35
   1   4  -3   64.20    1.68
   1   4  -3   59.65    2.02
   1   4  -3   59.78    1.87
   1   4  -3   62.14    2.00
  -1  -4   3   63.10    2.03
   0   4  -3   74.93    2.26
   0   4  -3   72.70    2.26
   0   4  -3   74.43    2.41
   0  -4   3   76.79    2.43
  -1   4  -3   38.79    1.25
  -1   4  -3   40.65    1.27
  -1   4  -3   38.87    1.33
  -1   4  -3   40.54    1.28
  -1   4  -3   42.49    1.27
   1  -4   3   40.31    1.40
  -2   4  -3   16.67    0.64
  -2   4  -3   16.99    0.62
  -2   4  -3   16.90    0.65
  -2   4  -3   17.99    0.63
  -2   4  -3   17.03    0.64
   2  -4   3   17.52    0.71
  -3   4  -3   69.13    2.11
  -3   4  -3   67.66    2.15
  -3   4  -3   67.11    2.12
  -3   4  -3   67.28    2.15
  -3   4  -3   68.85    2.15
  -3   4  -3   67.47    2.25
  -4   4  -3    9.91    0.52
  -4   4  -3    9.85    0.54
  -4   4  -3    9.57    0.53
  -4   4  -3   10.45    0.53
  -4   4  -3   10.45    0.55
   4  -4   3    9.65    0.57
  -5   4  -3   93.58    2.89
  -5   4  -3   93.54    3.08
  -5   4  -3   94.59    2.91
  -5   4  -3   93.50    2.96
  -5   4  -3   90.22    2.95
  -5   4  -3   93.81    2.62
   5  -4   3   91.04    3.16
  -6   4  -3   15.05    0.61
  -6   4  -3   16.09    0.77
  -6   4  -3   13.86    0.72
  -6   4  -3   14.04    0.72
  -7   4  -3    2.95    0.42
  -7   4  -3    2.78    0.38
  -8   4  -3    3.10    0.47
  -8   4  -3    3.12    0.48
  -9   4  -3    6.63    0.64
 -10   4  -3   -0.15    0.64
 -11   4  -3    0.65    0.79
 -12  -3   3    5.09    0.72
 -11  -3   3    2.43    0.59
  10   3  -3    3.49    0.53
 -10  -3   3    3.93    0.51
   9   3  -3    0.28    0.41
  -9  -3   3    0.68    0.35
   8   3  -3    0.04    0.38
  -8  -3   3    0.33    0.32
   7   3  -3    1.13    0.36
   7   3  -3    1.50    0.30
   7   3  -3    1.56    0.25
  -7  -3   3    1.37    0.30
  -7  -3   3    1.66    0.28
   6   3  -3    8.04    0.55
   6   3  -3    8.69    0.58
   6   3  -3    7.12    0.53
   6   3  -3    9.30    0.60
   6   3  -3    8.86    0.50
  -6  -3   3    8.05    0.47
  -6  -3   3    9.22    0.55
   5   3  -3    3.26    0.25
   5   3  -3    4.55    0.38
   5   3  -3    3.56    0.30
   5   3  -3    3.85    0.36
   5   3  -3    3.95    0.33
   5   3  -3    3.87    0.27
   5   3  -3    4.09    0.28
   5   3  -3    3.90    0.34
  -5  -3   3    2.78    0.31
  -5  -3   3    4.47    0.31
   4   3  -3   17.25    0.69
   4   3  -3   16.89    0.63
   4   3  -3   16.81    0.66
   4   3  -3   16.38    0.57
   4   3  -3   18.07    0.68
   4   3  -3   16.34    0.65
   4   3  -3   16.73    0.62
  -4  -3   3   16.21    0.63
   3   3  -3   38.34    1.23
   3   3  -3   38.27    1.21
   3   3  -3   35.67    1.08
   3   3  -3   37.59    1.29
   3   3  -3   38.30    1.28
   3   3  -3   38.41    1.23
   3   3  -3   39.66    1.28
  -3  -3   3   38.83    1.27
   2   3  -3    4.15    0.26
   2   3  -3    4.21    0.28
   2   3  -3    4.10    0.26
   2   3  -3    4.35    0.30
   2   3  -3    4.14    0.22
   2   3  -3    4.10    0.27
  -2  -3   3    4.33    0.25
  -2  -3   3    4.33    0.30
   1   3  -3   36.87    1.04
   1   3  -3   37.66    1.17
   1   3  -3   38.03    1.26
   1   3  -3   35.95    1.16
   1   3  -3   37.09    1.23
  -1  -3   3   38.99    1.26
   0   3  -3   32.67    0.88
   0   3  -3   31.59    1.00
   0   3  -3   32.36    1.06
   0   3  -3   32.14    0.99
   0   3  -3   28.96    0.99
   0   3  -3   30.78    1.00
   0  -3   3   33.17    1.08
  -1   3  -3    1.29    0.15
  -1   3  -3    1.34    0.15
  -1   3  -3    1.32    0.17
  -1   3  -3    1.02    0.13
  -1   3  -3    0.88    0.16
   1  -3   3    0.93    0.20
  -2   3  -3   42.53    1.39
  -2   3  -3   43.56    1.33
  -2   3  -3   41.00    1.31
  -2   3  -3   41.37    1.30
  -2   3  -3   42.90    1.33
   2  -3   3   36.60    1.43
  -3   3  -3    0.25    0.19
  -3   3  -3    0.58    0.21
  -3   3  -3    0.41    0.17
  -3   3  -3    0.62    0.21
  -3   3  -3    0.45    0.16
   3  -3   3    0.42    0.22
  -4   3  -3    0.09    0.21
  -4   3  -3    0.10    0.18
  -4   3  -3    0.46    0.24
  -4   3  -3    0.01    0.22
  -4   3  -3    0.23    0.22
   4  -3   3    0.51    0.26
  -5   3  -3    2.10    0.30
  -5   3  -3    2.58    0.36
  -5   3  -3    1.65    0.25
  -5   3  -3    2.38    0.35
  -5   3  -3    1.94    0.30
  -5   3  -3    1.81    0.25
   5  -3   3    1.97    0.35
  -6   3  -3   39.80    1.37
  -6   3  -3   36.14    1.40
  -6   3  -3   38.12    1.19
  -6   3  -3   38.03    1.38
   6  -3   3   38.96    1.47
  -7   3  -3    1.18    0.35
  -7   3  -3    1.19    0.38
  -8   3  -3   17.81    0.89
  -8   3  -3   18.99    0.90
  -9   3  -3    5.05    0.58
 -10   3  -3    2.79    0.63
 -11   3  -3    2.92    0.80
 -12  -2   3    0.15    0.67
 -11  -2   3   -0.59    0.52
 -10  -2   3   -0.29    0.47
   9   2  -3   14.29    0.80
  -9  -2   3   15.12    0.84
   8   2  -3   24.20    1.04
   8   2  -3   25.47    0.99
  -8  -2   3   25.25    1.03
   7   2  -3   15.49    0.78
   7   2  -3   17.11    0.80
   7   2  -3   16.89    0.71
  -7  -2   3   16.31    0.80
  -7  -2   3   16.35    0.73
   6   2  -3    9.71    0.63
   6   2  -3   10.19    0.58
   6   2  -3   10.85    0.57
   6   2  -3   11.20    0.53
   6   2  -3    9.84    0.62
   6   2  -3   10.34    0.50
  -6  -2   3    7.63    0.54
  -6  -2   3   10.67    0.53
   5   2  -3   21.38    0.82
   5   2  -3   21.18    0.84
   5   2  -3   20.69    0.72
   5   2  -3   20.59    0.79
   5   2  -3   20.22    0.81
   5   2  -3   21.14    0.83
  -5  -2   3   20.26    0.79
  -5  -2   3   25.45    0.86
   4   2  -3   44.52    1.53
   4   2  -3   45.93    1.52
   4   2  -3   46.67    1.45
   4   2  -3   45.18    1.50
   4   2  -3   45.19    1.31
   4   2  -3   46.80    1.50
  -4  -2   3   44.64    1.54
   3   2  -3   32.32    1.13
   3   2  -3   32.09    1.09
   3   2  -3   33.76    1.12
   3   2  -3   33.96    1.14
   3   2  -3   34.72    1.10
   3   2  -3   32.72    1.06
   3   2  -3   32.75    0.96
  -3  -2   3   32.86    1.12
   2   2  -3    2.67    0.24
   2   2  -3    2.94    0.26
   2   2  -3    2.73    0.24
   2   2  -3    2.95    0.21
   2   2  -3    2.90    0.26
   2   2  -3    2.73    0.21
   2   2  -3    2.65    0.17
  -2  -2   3    2.99    0.22
   1   2  -3   68.12    1.83
   1   2  -3   67.19    2.17
   1   2  -3   67.70    2.04
   1   2  -3   67.23    2.06
   1   2  -3   68.33    2.07
   1   2  -3   69.04    2.17
  -1  -2   3   63.34    2.16
   0   2  -3    6.57    0.31
   0   2  -3    6.16    0.33
   0   2  -3    6.79    0.31
   0   2  -3    6.49    0.31
   0   2  -3    6.27    0.33
   0   2  -3    6.64    0.25
   0  -2   3    6.82    0.33
  -1   2  -3    0.04    0.16
  -1   2  -3    0.03    0.13
  -1   2  -3   -0.08    0.13
  -1   2  -3   -0.07    0.15
  -1   2  -3   -0.17    0.11
  -2   2  -3    0.54    0.19
  -2   2  -3    0.58    0.18
  -2   2  -3    0.59    0.16
  -2   2  -3    0.63    0.16
  -2   2  -3    0.53    0.14
  -2   2  -3    0.58    0.17
  -3   2  -3   78.15    2.59
  -3   2  -3   75.20    2.42
  -3   2  -3   82.37    2.48
  -3   2  -3   79.51    2.44
  -3   2  -3   78.68    2.47
   3  -2   3   80.41    2.64
  -4   2  -3    0.55    0.18
  -4   2  -3    0.75    0.25
  -4   2  -3    0.86    0.25
  -4   2  -3    0.86    0.23
  -4   2  -3    0.83    0.22
   4  -2   3    0.36    0.24
   4  -2   3    0.71    0.25
  -5   2  -3   68.12    2.17
  -5   2  -3   69.55    2.30
  -5   2  -3   66.67    2.22
  -5   2  -3   70.00    1.95
  -5   2  -3   67.95    2.15
  -5   2  -3   65.24    2.21
   5  -2   3   67.91    2.35
   5  -2   3   69.33    2.23
  -6   2  -3   34.26    1.27
  -6   2  -3   33.42    1.25
  -6   2  -3   35.03    1.24
  -6   2  -3   33.76    1.08
   6  -2   3   32.86    1.31
  -7   2  -3   38.32    1.43
  -7   2  -3   38.36    1.41
   7  -2   3   36.85    1.46
  -8   2  -3   19.38    0.91
  -9   2  -3   13.31    0.85
 -10   2  -3    1.85    0.59
 -11   2  -3    0.33    0.68
 -12  -1   3    3.18    0.77
 -11  -1   3    7.11    0.72
 -10  -1   3   10.76    0.86
  -9  -1   3   24.71    1.12
   8   1  -3    4.09    0.50
   8   1  -3    4.29    0.40
  -8  -1   3    4.12    0.43
  -8  -1   3    4.56    0.42
   7   1  -3   16.82    0.82
   7   1  -3   16.62    0.74
  -7  -1   3   16.37    0.75
  -7  -1   3   17.13    0.78
   6   1  -3    7.16    0.44
   6   1  -3    7.73    0.49
   6   1  -3    7.29    0.53
   6   1  -3    7.47    0.54
   6   1  -3    6.95    0.52
  -6  -1   3    7.52    0.48
  -6  -1   3    7.99    0.55
   5   1  -3    1.98    0.21
   5   1  -3    2.10    0.22
   5   1  -3    2.01    0.29
   5   1  -3    2.17    0.30
   5   1  -3    1.45    0.19
   5   1  -3    1.92    0.25
   5   1  -3    2.03    0.24
  -5  -1   3    1.98    0.25
  -5  -1   3    0.63    0.26
  -5  -1   3    2.63    0.30
   4   1  -3    1.30    0.18
   4   1  -3    1.41    0.24
   4   1  -3    1.39    0.19
   4   1  -3    1.52    0.23
   4   1  -3    1.50    0.18
   4   1  -3    1.55    0.25
   4   1  -3    1.46    0.20
  -4  -1   3    1.29    0.18
   3   1  -3    2.03    0.16
   3   1  -3    2.15    0.23
   3   1  -3    1.59    0.17
   3   1  -3    1.98    0.24
   3   1  -3    1.67    0.18
   3   1  -3    1.98    0.19
  -3  -1   3    1.89    0.19
  -3  -1   3    1.94    0.16
   2   1  -3   60.35    1.86
   2   1  -3   61.25    1.93
   2   1  -3   58.50    1.65
   2   1  -3   58.23    1.83
   2   1  -3   60.00    1.94
   2   1  -3   56.13    1.85
   2   1  -3   62.20    1.95
  -2  -1   3   61.10    1.95
  -2  -1   3   59.66    1.64
   1   1  -3   19.83    0.68
   1   1  -3   19.01    0.57
   1   1  -3   19.59    0.67
   1   1  -3   19.22    0.65
   1   1  -3   19.00    0.64
   1   1  -3   18.12    0.65
  -1  -1   3   20.97    0.69
  -1  -1   3   19.17    0.57
  -1  -1   3   19.58    0.67
   0   1  -3  254.81    6.62
   0   1  -3  238.00    7.83
   0   1  -3  251.61    7.41
   0   1  -3  242.71    7.72
   0   1  -3  241.53    7.40
   0   1  -3  237.62    7.35
   0  -1   3  257.23    7.72
   0  -1   3  247.85    6.61
  -1   1  -3   94.21    2.89
  -1   1  -3   96.50    2.56
  -1   1  -3   96.25    3.04
  -1   1  -3   94.84    2.88
  -1   1  -3   92.28    2.85
  -1   1  -3   92.29    2.85
  -2   1  -3   53.59    1.66
  -2   1  -3   52.58    1.66
  -2   1  -3   51.73    1.63
  -2   1  -3   52.32    1.66
  -2   1  -3   53.91    1.73
  -2   1  -3   51.38    1.62
  -3   1  -3    1.39    0.19
  -3   1  -3    1.09    0.20
  -3   1  -3    1.12    0.21
  -3   1  -3    0.84    0.18
   3  -1   3    1.17    0.20
   3  -1   3    1.30    0.23
  -4   1  -3   -0.04    0.20
  -4   1  -3   -0.25    0.20
  -4   1  -3    0.02    0.18
  -4   1  -3   -0.15    0.15
  -4   1  -3    0.14    0.22
   4  -1   3   -0.14    0.21
   4  -1   3   -0.18    0.20
  -5   1  -3    3.21    0.30
  -5   1  -3    2.72    0.33
  -5   1  -3    3.01    0.31
  -5   1  -3    3.15    0.25
  -5   1  -3    2.71    0.30
   5  -1   3    2.35    0.34
   5  -1   3    3.41    0.34
  -6   1  -3    6.82    0.52
  -6   1  -3    6.59    0.58
  -6   1  -3    6.69    0.54
  -6   1  -3    6.49    0.43
   6  -1   3    7.00    0.56
   6  -1   3    6.55    0.51
  -7   1  -3   20.67    0.90
  -7   1  -3   19.13    0.90
   7  -1   3   20.26    0.91
  -8   1  -3    0.05    0.36
  -9   1  -3    5.03    0.54
 -10   1  -3    1.87    0.57
 -11   1  -3    0.75    0.65
 -12   0   3    2.53    0.77
 -11   0   3    2.11    0.66
 -10   0   3    4.65    0.58
   9   0  -3    1.34    0.36
  -9   0   3    1.74    0.41
   8   0  -3    1.70    0.35
   8   0  -3    1.27    0.43
  -8   0   3    1.79    0.37
  -8   0   3    2.06    0.37
   7   0  -3    0.57    0.38
   7   0  -3    0.10    0.29
  -7   0   3    0.68    0.31
  -7   0   3    0.53    0.30
   6   0  -3   10.23    0.59
   6   0  -3   11.45    0.53
   6   0  -3   11.71    0.60
   6   0  -3   11.49    0.57
  -6   0   3   11.11    0.63
  -6   0   3   11.04    0.58
  -6   0   3   12.59    0.62
  -6   0   3   10.79    0.52
   5   0  -3   19.87    0.67
   5   0  -3   19.38    0.79
   5   0  -3   19.49    0.76
   5   0  -3   18.89    0.77
   5   0  -3   19.02    0.74
   5   0  -3   18.71    0.79
  -5   0   3   18.49    0.76
  -5   0   3   18.67    0.77
  -5   0   3   23.11    0.81
  -5   0   3   18.87    0.64
   4   0  -3   14.94    0.60
   4   0  -3   15.05    0.64
   4   0  -3   16.40    0.65
   4   0  -3   16.33    0.56
   4   0  -3   16.04    0.62
  -4   0   3   14.99    0.61
  -4   0   3   15.28    0.53
  -4   0   3   14.75    0.63
   3   0  -3   61.31    1.95
   3   0  -3   62.49    1.72
   3   0  -3   61.04    2.04
   3   0  -3   60.90    1.90
   3   0  -3   62.39    2.03
   3   0  -3   63.49    1.95
  -3   0   3   60.75    1.72
  -3   0   3   61.32    1.95
  -3   0   3   61.69    2.04
   2   0  -3   31.59    1.13
   2   0  -3   33.20    1.13
   2   0  -3   32.54    1.06
   2   0  -3   33.91    1.10
   2   0  -3   33.52    1.11
  -2   0   3   32.66    0.96
  -2   0   3   36.57    1.14
  -2   0   3   34.44    1.10
   1   0  -3    3.34    0.21
   1   0  -3    3.37    0.19
   1   0  -3    3.41    0.21
   1   0  -3    3.01    0.21
   1   0  -3    3.05    0.21
  -1   0   3    3.34    0.16
  -1   0   3    3.08    0.21
  -1   0   3    3.03    0.19
   0   0  -3   13.60    0.50
   0   0  -3   14.74    0.49
   0   0  -3   14.13    0.50
   0   0  -3   14.74    0.51
   0   0  -3   14.97    0.43
   0   0   3   13.74    0.50
   0   0   3   14.96    0.49
   0   0   3   14.76    0.43
   0   0   3   14.93    0.52
  -1   0  -3   92.26    2.49
  -1   0  -3   88.83    2.77
  -1   0  -3   95.37    2.81
  -1   0  -3   89.98    2.80
  -1   0  -3   92.69    2.95
   1   0   3   91.79    2.80
   1   0   3   92.36    2.81
  -2   0  -3   54.54    1.66
  -2   0  -3   50.50    1.63
  -2   0  -3   51.69    1.72
  -2   0  -3   52.16    1.66
   2   0   3   53.28    1.66
  -3   0  -3    7.05    0.36
  -3   0  -3    5.74    0.38
  -3   0  -3    6.20    0.38
   3   0   3    6.28    0.39
   3   0   3    5.24    0.35
  -4   0  -3    0.32    0.20
  -4   0  -3    0.77    0.23
  -4   0  -3    0.70    0.19
  -4   0  -3    0.82    0.17
   4   0   3    0.48    0.21
   4   0   3    0.29    0.24
  -5   0  -3    3.08    0.25
  -5   0  -3    3.56    0.31
  -5   0  -3    3.30    0.29
  -5   0  -3    3.27    0.29
   5   0   3    3.22    0.33
   5   0   3    3.12    0.31
  -6   0  -3    7.08    0.52
  -6   0  -3    8.01    0.43
  -6   0  -3    7.42    0.54
   6   0   3    7.74    0.58
   6   0   3    7.72    0.51
  -7   0  -3   26.42    1.09
  -7   0  -3   28.20    1.11
   7   0   3   27.54    1.10
  -8   0  -3   -0.11    0.33
   8   0   3    0.65    0.34
  -9   0  -3   18.68    0.94
 -10   0  -3    1.79    0.55
 -11   0  -3    4.74    0.71
 -12   1   3   -0.49    0.75
 -11   1   3    0.83    0.61
 -10   1   3    0.41    0.50
  -9   1   3    5.39    0.53
   8  -1  -3    1.60    0.37
  -8   1   3    1.44    0.37
   7  -1  -3   27.12    1.11
   7  -1  -3   27.34    1.09
  -7   1   3   26.16    1.09
  -7   1   3   28.16    1.09
   6  -1  -3   72.81    2.50
   6  -1  -3   74.98    2.33
   6  -1  -3   79.60    2.12
   6  -1  -3   70.43    2.40
  -6   1   3   72.72    2.50
  -6   1   3   72.21    2.49
  -6   1   3   71.56    2.09
  -6   1   3   74.10    2.41
   5  -1  -3   41.01    1.49
   5  -1  -3   44.96    1.28
   5  -1  -3   43.15    1.51
   5  -1  -3   45.57    1.48
   5  -1  -3   43.98    1.41
  -5   1   3   40.11    1.51
  -5   1   3   43.44    1.27
  -5   1   3   43.42    1.52
  -5   1   3   42.40    1.47
   4  -1  -3   64.08    1.95
   4  -1  -3   65.54    1.77
   4  -1  -3   63.99    2.01
   4  -1  -3   62.82    2.08
   4  -1  -3   55.85    2.09
  -4   1   3   60.72    1.75
  -4   1   3   63.15    2.11
  -4   1   3   64.56    2.01
   3  -1  -3    0.75    0.19
   3  -1  -3    0.86    0.23
   3  -1  -3    0.73    0.17
   3  -1  -3    1.00    0.16
  -3   1   3    0.79    0.16
  -3   1   3    1.27    0.21
  -3   1   3    0.94    0.22
   2  -1  -3    3.51    0.27
   2  -1  -3    4.27    0.33
   2  -1  -3    4.03    0.27
   2  -1  -3    3.86    0.29
  -2   1   3    4.47    0.25
  -2   1   3    4.17    0.32
  -2   1   3    3.59    0.31
   1  -1  -3    6.56    0.27
   1  -1  -3    6.87    0.29
   1  -1  -3    6.14    0.27
   1  -1  -3    6.44    0.24
  -1   1   3    6.08    0.27
  -1   1   3    6.41    0.29
   0  -1  -3    2.01    0.12
   0  -1  -3    2.10    0.17
   0  -1  -3    2.12    0.15
   0   1   3    2.45    0.17
   0   1   3    2.07    0.14
   0   1   3    2.15    0.13
  -1  -1  -3   19.10    0.55
  -1  -1  -3   18.55    0.65
  -1  -1  -3   20.29    0.65
   1   1   3   18.40    0.63
   1   1   3   18.60    0.55
   1   1   3   19.70    0.64
  -2  -1  -3   13.05    0.52
  -2  -1  -3   13.28    0.43
  -2  -1  -3   13.95    0.52
   2   1   3   13.95    0.55
  -3  -1  -3   31.75    1.09
  -3  -1  -3   31.73    1.07
   3   1   3   32.34    1.07
   3   1   3   31.06    1.09
   3   1   3   30.54    1.02
  -4  -1  -3   13.90    0.60
  -4  -1  -3   13.84    0.50
  -4  -1  -3   13.70    0.57
   4   1   3   13.42    0.60
   4   1   3   13.63    0.55
  -5  -1  -3    7.63    0.38
  -5  -1  -3    7.85    0.47
  -5  -1  -3    7.70    0.45
   5   1   3    6.87    0.46
   5   1   3    7.33    0.48
   5   1   3    7.20    0.42
  -6  -1  -3   62.69    2.12
  -6  -1  -3   61.87    1.79
  -6  -1  -3   64.74    2.07
   6   1   3   60.08    2.13
   6   1   3   61.58    2.07
  -7  -1  -3    7.28    0.55
   7   1   3    7.66    0.52
   7   1   3    7.40    0.54
  -8  -1  -3    0.13    0.33
   8   1   3    0.17    0.30
  -9  -1  -3   12.79    0.79
   9   1   3   14.37    0.73
 -10  -1  -3    2.42    0.54
 -12  -1  -3    0.27    0.77
 -12   2   3    0.70    0.80
 -11   2   3    1.36    0.69
 -10   2   3    1.13    0.54
  -9   2   3    6.58    0.59
   8  -2  -3   24.71    1.09
  -8   2   3   26.62    1.09
   7  -2  -3   27.24    1.14
  -7   2   3   29.71    1.14
  -7   2   3   28.53    1.15
  -7   2   3   28.66    1.16
   6  -2  -3    0.55    0.36
   6  -2  -3   -0.29    0.30
  -6   2   3    0.35    0.32
  -6   2   3   -0.14    0.22
  -6   2   3    0.12    0.29
  -6   2   3    0.24    0.28
   5  -2  -3    7.06    0.44
   5  -2  -3    5.70    0.43
   5  -2  -3    6.38    0.42
  -5   2   3    6.35    0.46
  -5   2   3    6.63    0.46
  -5   2   3    6.28    0.40
  -5   2   3    6.72    0.44
   4  -2  -3    4.33    0.33
   4  -2  -3    4.87    0.35
   4  -2  -3    4.88    0.40
   4  -2  -3    5.34    0.39
  -4   2   3    6.51    0.42
  -4   2   3    4.68    0.38
  -4   2   3    3.94    0.36
  -4   2   3    3.78    0.25
   3  -2  -3    0.31    0.15
   3  -2  -3    0.12    0.11
   3  -2  -3    0.02    0.21
   3  -2  -3    0.16    0.14
  -3   2   3    0.13    0.14
  -3   2   3    0.22    0.17
  -3   2   3    0.59    0.21
   2  -2  -3    0.07    0.13
   2  -2  -3    0.36    0.19
   2  -2  -3   -0.02    0.19
   2  -2  -3   -0.13    0.13
  -2   2   3    0.11    0.16
  -2   2   3    0.48    0.21
  -2   2   3   -0.03    0.13
  -2   2   3    0.21    0.19
   1  -2  -3    2.60    0.22
   1  -2  -3    2.53    0.18
   1  -2  -3    2.53    0.19
  -1   2   3    2.67    0.22
  -1   2   3    2.55    0.22
  -1   2   3    2.71    0.17
  -1   2   3    2.64    0.21
   0  -2  -3   31.04    1.04
   0  -2  -3   32.04    0.88
   0  -2  -3   32.63    1.01
   0  -2  -3   32.10    1.05
   0   2   3   31.83    1.01
   0   2   3   31.78    0.88
   0   2   3   31.92    1.05
   0   2   3   31.56    1.00
  -1  -2  -3   82.82    2.34
  -1  -2  -3   88.01    2.64
  -1  -2  -3   85.47    2.77
   1   2   3   85.46    2.71
   1   2   3   87.02    2.35
   1   2   3   89.32    2.64
   1   2   3   82.27    2.60
   1   2   3   88.09    2.78
   1   2   3   90.11    2.64
   1   2   3   85.97    2.64
  -2  -2  -3    5.84    0.25
  -2  -2  -3    5.08    0.30
  -2  -2  -3    5.76    0.34
   2   2   3    6.73    0.35
   2   2   3    5.49    0.34
   2   2   3    5.53    0.32
  -3  -2  -3   46.52    1.34
  -3  -2  -3   48.56    1.35
  -3  -2  -3   49.30    1.55
  -3  -2  -3   45.94    1.59
   3   2   3   47.22    1.50
   3   2   3   50.67    1.55
   3   2   3   46.37    1.54
   3   2   3   48.96    1.60
  -4  -2  -3    0.07    0.16
  -4  -2  -3   -0.17    0.19
  -4  -2  -3    0.23    0.15
   4   2   3   -0.06    0.22
   4   2   3    0.40    0.15
   4   2   3   -0.18    0.19
   4   2   3   -0.09    0.16
  -5  -2  -3   14.61    0.53
  -5  -2  -3   14.87    0.65
  -5  -2  -3   14.13    0.63
   5   2   3   14.98    0.62
   5   2   3   13.95    0.64
   5   2   3   14.56    0.65
  -6  -2  -3    2.14    0.25
  -6  -2  -3    1.92    0.34
  -6  -2  -3    1.86    0.30
   6   2   3    2.10    0.28
   6   2   3    2.12    0.26
   6   2   3    2.08    0.37
  -7  -2  -3    1.31    0.32
   7   2   3    1.09    0.29
  -8  -2  -3    2.18    0.38
   8   2   3    3.10    0.46
   8   2   3    2.73    0.36
  -9  -2  -3    1.19    0.39
 -10  -2  -3    0.65    0.48
 -11  -2  -3    1.29    0.60
 -12  -2  -3    0.61    0.74
 -11   3   3   -0.58    0.63
 -10   3   3    0.77    0.59
  -9   3   3    1.46    0.49
  -8   3   3    2.50    0.40
   7  -3  -3    4.37    0.46
  -7   3   3    4.64    0.43
  -7   3   3    4.71    0.48
   6  -3  -3    3.22    0.40
  -6   3   3    3.22    0.30
  -6   3   3    3.78    0.37
  -6   3   3    3.41    0.40
  -6   3   3    3.05    0.39
   5  -3  -3   14.96    0.70
   5  -3  -3   14.97    0.71
  -5   3   3   15.22    0.70
  -5   3   3   14.14    0.66
  -5   3   3   15.52    0.60
  -5   3   3   16.98    0.69
  -5   3   3   15.52    0.69
   4  -3  -3   19.78    0.76
   4  -3  -3   18.40    0.77
   4  -3  -3   17.79    0.73
  -4   3   3   17.93    0.63
  -4   3   3   18.64    0.74
  -4   3   3   17.87    0.77
  -4   3   3   18.60    0.74
  -4   3   3   21.88    0.77
   3  -3  -3   46.65    1.61
   3  -3  -3   45.74    1.58
   3  -3  -3   48.68    1.53
  -3   3   3   46.19    1.34
  -3   3   3   47.21    1.62
  -3   3   3   47.72    1.52
  -3   3   3   47.52    1.53
   2  -3  -3  119.06    3.87
  -2   3   3  120.20    3.27
  -2   3   3  116.80    3.91
  -2   3   3  124.15    3.68
  -2   3   3  123.53    3.68
  -2   3   3  118.48    3.63
   1  -3  -3  199.84    6.54
   1  -3  -3  208.39    6.59
  -1   3   3  211.45    6.20
  -1   3   3  209.54    5.53
  -1   3   3  203.44    6.20
  -1   3   3  201.12    6.14
  -1   3   3  205.35    6.60
   0  -3  -3   22.54    0.77
   0  -3  -3   21.99    0.76
   0   3   3   22.77    0.77
   0   3   3   22.03    0.64
   0   3   3   23.04    0.73
   0   3   3   21.11    0.72
   0   3   3   22.71    0.74
  -1  -3  -3    1.73    0.13
  -1  -3  -3    1.65    0.13
  -1  -3  -3    1.72    0.13
   1   3   3    1.70    0.12
   1   3   3    1.64    0.15
   1   3   3    1.79    0.16
   1   3   3    1.77    0.16
   1   3   3    1.22    0.13
   1   3   3    1.65    0.16
  -2  -3  -3    0.38    0.12
   2   3   3    0.39    0.12
   2   3   3    0.17    0.13
   2   3   3    0.25    0.17
   2   3   3    0.46    0.14
   2   3   3    0.36    0.12
   2   3   3    0.08    0.16
   2   3   3    0.33    0.11
  -3  -3  -3   75.52    2.08
  -3  -3  -3   75.59    2.46
   3   3   3   73.94    2.32
   3   3   3   75.68    2.36
   3   3   3   77.93    2.36
  -4  -3  -3   65.44    2.16
   4   3   3   63.61    2.04
   4   3   3   66.62    2.15
   4   3   3   66.34    2.08
   4   3   3   65.32    2.03
   4   3   3   64.99    2.08
  -5  -3  -3    2.69    0.26
  -5  -3  -3    2.54    0.30
   5   3   3    2.23    0.24
   5   3   3    2.52    0.31
   5   3   3    2.59    0.24
   5   3   3    2.39    0.23
   5   3   3    2.17    0.28
  -6  -3  -3   20.16    0.85
  -6  -3  -3   20.60    0.83
   6   3   3   19.65    0.81
   6   3   3   20.31    0.85
   6   3   3   19.28    0.83
   6   3   3   19.89    0.83
  -7  -3  -3    3.43    0.38
   7   3   3    3.77    0.33
   7   3   3    3.22    0.43
  -8  -3  -3    4.51    0.42
   8   3   3    3.84    0.48
   8   3   3    4.83    0.43
  -9  -3  -3    5.43    0.49
 -10  -3  -3    1.44    0.50
 -11  -3  -3    7.75    0.76
 -12  -3  -3    1.88    0.73
 -11   4   3    0.06    0.67
 -10   4   3    0.24    0.56
  -9   4   3    3.35    0.53
  -8   4   3    6.03    0.53
   7  -4  -3   16.53    0.85
  -7   4   3   17.37    0.83
  -7   4   3   17.10    0.83
   6  -4  -3   13.94    0.74
  -6   4   3   14.55    0.65
  -6   4   3   15.29    0.73
  -6   4   3   16.20    0.74
   5  -4  -3   24.63    0.96
   5  -4  -3   22.65    0.96
  -5   4   3   24.62    0.80
  -5   4   3   21.97    0.93
  -5   4   3   24.35    0.97
  -5   4   3   24.73    0.93
  -5   4   3   23.44    0.88
  -5   4   3   24.79    0.94
   4  -4  -3   72.20    2.43
   4  -4  -3   70.77    2.48
   4  -4  -3   75.85    2.35
  -4   4   3   74.36    2.06
  -4   4   3   74.86    2.44
  -4   4   3   73.29    2.48
  -4   4   3   74.65    2.33
  -4   4   3   74.84    2.34
  -4   4   3   69.65    2.28
   3  -4  -3   64.89    2.19
  -3   4   3   68.90    2.10
  -3   4   3   67.19    2.10
  -3   4   3   65.71    1.85
  -3   4   3   65.28    2.23
  -3   4   3   66.57    2.05
   2  -4  -3    1.82    0.18
   2  -4  -3    1.40    0.20
  -2   4   3    1.72    0.23
  -2   4   3    2.27    0.22
  -2   4   3    2.02    0.16
  -2   4   3    2.03    0.23
  -2   4   3    1.69    0.16
   1  -4  -3   18.61    0.68
   1  -4  -3   19.19    0.73
  -1   4   3   19.02    0.65
  -1   4   3   18.89    0.73
  -1   4   3   20.11    0.67
  -1   4   3   19.93    0.58
  -1   4   3   19.71    0.67
   0  -4  -3    5.76    0.28
   0  -4  -3    7.37    0.34
   0   4   3    6.42    0.35
   0   4   3    5.90    0.32
   0   4   3    6.52    0.30
   0   4   3    5.85    0.25
   0   4   3    6.17    0.30
  -1  -4  -3    0.72    0.12
  -1  -4  -3    0.66    0.16
  -1  -4  -3    0.69    0.13
   1   4   3    0.68    0.14
   1   4   3    0.49    0.12
   1   4   3    0.69    0.11
   1   4   3    0.76    0.15
  -2  -4  -3   87.52    2.77
  -2  -4  -3   85.12    2.80
   2   4   3   86.81    2.64
   2   4   3   86.43    2.77
   2   4   3   88.97    2.80
   2   4   3   80.87    2.64
   2   4   3   89.53    2.67
   2   4   3   89.74    2.37
   2   4   3   89.30    2.67
  -3  -4  -3   26.62    0.95
   3   4   3   28.86    0.94
   3   4   3   27.85    0.92
   3   4   3   28.64    0.95
   3   4   3   27.15    0.92
   3   4   3   28.28    0.94
   3   4   3   27.10    0.91
  -4  -4  -3   10.14    0.49
   4   4   3   11.09    0.52
   4   4   3   10.54    0.43
   4   4   3   11.73    0.47
   4   4   3   11.07    0.51
   4   4   3   10.65    0.47
   4   4   3   10.97    0.51
  -5  -4  -3    7.76    0.43
   5   4   3    8.34    0.38
   5   4   3    8.41    0.46
   5   4   3    7.94    0.48
   5   4   3    8.42    0.49
   5   4   3    7.84    0.47
  -6  -4  -3   19.19    0.81
   6   4   3   20.45    0.80
   6   4   3   20.22    0.82
   6   4   3   19.76    0.83
   6   4   3   19.34    0.82
   6   4   3   19.68    0.75
  -7  -4  -3   18.76    0.81
   7   4   3   20.86    0.83
   7   4   3   18.96    0.84
   7   4   3   16.95    0.73
  -8  -4  -3    8.69    0.63
   8   4   3    9.08    0.63
  -9  -4  -3    1.13    0.35
   9   4   3    0.63    0.40
 -10  -4  -3   -0.65    0.43
 -11  -4  -3    0.15    0.52
 -12  -4  -3    0.58    0.68
 -11   5   3    1.15    0.71
 -10   5   3    7.47    0.76
  -9   5   3    1.47    0.54
  -8   5   3    0.53    0.40
  -8   5   3   -0.10    0.35
  -7   5   3   28.64    1.16
  -7   5   3   28.80    1.14
   6  -5  -3   23.23    1.00
  -6   5   3   22.29    0.94
  -6   5   3   22.28    0.83
  -6   5   3   23.26    0.95
   5  -5  -3   16.81    0.79
  -5   5   3   17.03    0.75
  -5   5   3   18.29    0.80
  -5   5   3   17.14    0.79
  -5   5   3   16.51    0.73
  -5   5   3   20.03    0.68
  -5   5   3   17.11    0.82
   4  -5  -3    2.74    0.32
  -4   5   3    2.30    0.22
  -4   5   3    1.90    0.23
  -4   5   3    1.80    0.26
  -4   5   3    2.04    0.29
  -4   5   3    2.32    0.28
  -4   5   3    2.06    0.31
   3  -5  -3    7.32    0.37
  -3   5   3    7.01    0.40
  -3   5   3    7.03    0.40
  -3   5   3    5.88    0.43
  -3   5   3    6.90    0.44
  -3   5   3    7.78    0.36
  -3   5   3    7.68    0.42
   2  -5  -3    1.46    0.16
   2  -5  -3    1.74    0.24
  -2   5   3    1.55    0.21
  -2   5   3    1.56    0.20
  -2   5   3    1.88    0.16
  -2   5   3    1.73    0.16
  -2   5   3    1.85    0.24
   1  -5  -3    3.17    0.29
   1  -5  -3    2.98    0.23
  -1   5   3    2.79    0.17
  -1   5   3    2.77    0.22
  -1   5   3    3.09    0.26
  -1   5   3    2.77    0.25
  -1   5   3    2.95    0.25
   0  -5  -3   62.23    2.02
   0  -5  -3   59.45    1.97
   0   5   3   58.35    1.86
   0   5   3   61.27    2.03
   0   5   3   64.02    1.67
   0   5   3   62.14    1.87
  -1  -5  -3   12.23    0.47
  -1  -5  -3   12.48    0.45
  -1  -5  -3   12.33    0.49
   1   5   3   12.59    0.38
   1   5   3   12.14    0.48
   1   5   3   12.30    0.45
   1   5   3   12.23    0.43
  -2  -5  -3   36.98    1.18
  -2  -5  -3   35.81    1.19
  -2  -5  -3   35.92    1.20
   2   5   3   36.82    1.19
   2   5   3   35.77    1.13
   2   5   3   36.96    1.15
   2   5   3   37.55    1.02
   2   5   3   33.90    1.14
   2   5   3   37.25    1.15
   2   5   3   34.73    1.20
  -3  -5  -3   36.78    1.24
   3   5   3   37.75    1.21
   3   5   3   37.44    1.20
   3   5   3   37.25    1.25
   3   5   3   37.10    1.18
   3   5   3   35.44    1.19
   3   5   3   36.99    1.20
   3   5   3   39.03    1.06
  -4  -5  -3   34.11    1.29
   4   5   3   38.74    1.26
   4   5   3   39.71    1.26
   4   5   3   36.87    1.24
   4   5   3   39.87    1.24
   4   5   3   39.56    1.30
  -5  -5  -3   52.04    1.83
   5   5   3   54.96    1.73
   5   5   3   53.99    1.78
   5   5   3   54.35    1.78
   5   5   3   54.95    1.82
   5   5   3   55.36    1.77
   5   5   3   55.31    1.75
  -6  -5  -3   19.84    0.84
   6   5   3   21.37    0.84
   6   5   3   20.92    0.84
   6   5   3   20.80    0.75
   6   5   3   19.34    0.82
   6   5   3   20.72    0.85
   6   5   3   20.09    0.86
  -7  -5  -3   23.60    0.96
   7   5   3   24.62    0.87
   7   5   3   21.05    0.95
   7   5   3   24.01    0.93
  -8  -5  -3    0.74    0.31
   8   5   3    1.19    0.38
  -9  -5  -3    0.24    0.33
   9   5   3    0.84    0.39
 -10  -5  -3    1.87    0.46
  10   5   3    2.13    0.49
 -11  -5  -3    0.55    0.54
 -12  -5  -3   -0.35    0.57
 -11   6   3    1.69    0.75
 -10   6   3    0.19    0.64
  -9   6   3   -0.23    0.48
  -8   6   3   -0.25    0.39
  -8   6   3    0.77    0.40
  -7   6   3    0.32    0.32
  -7   6   3    0.53    0.35
  -6   6   3    1.83    0.36
  -6   6   3    1.93    0.39
  -6   6   3    2.37    0.31
  -5   6   3   19.31    0.83
  -5   6   3   19.90    0.80
  -5   6   3   20.40    0.74
  -5   6   3   19.69    0.85
  -5   6   3   19.50    0.84
  -4   6   3    0.56    0.23
  -4   6   3    0.73    0.30
  -4   6   3    0.44    0.21
  -4   6   3    0.47    0.20
  -4   6   3   -0.01    0.26
  -4   6   3    0.27    0.27
   3  -6  -3   17.64    0.76
   3  -6  -3   16.66    0.69
  -3   6   3   18.67    0.67
  -3   6   3   18.38    0.72
  -3   6   3   17.85    0.61
  -3   6   3   17.70    0.69
  -3   6   3   18.71    0.77
  -3   6   3   18.60    0.69
   2  -6  -3  107.10    3.55
   2  -6  -3  107.90    3.63
  -2   6   3  110.55    3.63
  -2   6   3  112.26    3.38
  -2   6   3  112.58    3.01
  -2   6   3  116.00    3.38
  -2   6   3  105.78    3.34
   1  -6  -3  203.18    6.46
   1  -6  -3  203.00    6.55
  -1   6   3  196.90    6.07
  -1   6   3  209.64    6.12
  -1   6   3  196.96    6.55
  -1   6   3  203.53    6.11
  -1   6   3  207.93    5.47
   0  -6  -3  112.49    3.55
   0  -6  -3  110.03    3.62
   0   6   3  113.56    3.01
   0   6   3  108.54    3.34
   0   6   3  111.57    3.62
  -1  -6  -3   92.55    2.96
  -1  -6  -3   90.52    2.92
   1   6   3   94.30    2.47
   1   6   3   90.97    2.97
   1   6   3   89.31    2.75
  -2  -6  -3   58.48    1.92
  -2  -6  -3   59.72    1.92
   2   6   3   57.79    1.63
   2   6   3   59.60    1.81
   2   6   3   60.44    1.93
   2   6   3   58.91    1.81
   2   6   3   60.43    1.94
  -3  -6  -3    8.91    0.37
  -3  -6  -3    7.90    0.39
   3   6   3    8.17    0.38
   3   6   3    8.32    0.41
   3   6   3    8.87    0.31
   3   6   3    8.32    0.41
   3   6   3    8.40    0.37
  -4  -6  -3    8.80    0.41
   4   6   3    9.69    0.42
   4   6   3    9.40    0.42
   4   6   3    8.72    0.44
   4   6   3    8.97    0.46
   4   6   3    8.69    0.45
  -5  -6  -3   -0.11    0.18
   5   6   3    0.23    0.21
   5   6   3    0.07    0.25
   5   6   3   -0.22    0.21
   5   6   3   -0.04    0.23
   5   6   3    0.07    0.19
  -6  -6  -3    3.44    0.30
   6   6   3    3.00    0.35
   6   6   3    2.99    0.31
   6   6   3    3.36    0.30
   6   6   3    3.15    0.34
   6   6   3    3.12    0.38
  -7  -6  -3    0.10    0.25
   7   6   3    0.25    0.34
   7   6   3    0.74    0.26
  -8  -6  -3    7.06    0.55
   8   6   3    6.79    0.58
   8   6   3    8.51    0.62
  -9  -6  -3   22.22    0.95
   9   6   3   22.19    1.01
 -10  -6  -3    3.06    0.45
  10   6   3    2.54    0.49
 -11  -6  -3    5.29    0.58
  11   6   3    4.55    0.56
 -12  -6  -3    1.76    0.62
 -10   7   3    0.30    0.66
  -9   7   3    5.12    0.61
  -8   7   3    1.10    0.44
  -8   7   3    0.86    0.39
  -7   7   3    5.05    0.49
  -7   7   3    4.50    0.43
  -6   7   3    5.66    0.38
  -6   7   3    6.13    0.51
  -6   7   3    6.70    0.57
  -5   7   3    2.87    0.29
  -5   7   3    2.43    0.34
  -5   7   3    2.56    0.37
  -5   7   3    2.40    0.36
  -4   7   3   38.13    1.16
  -4   7   3   36.55    1.35
  -4   7   3   38.98    1.28
  -4   7   3   37.78    1.44
  -4   7   3   39.04    1.32
   3  -7  -3   52.67    1.87
  -3   7   3   53.80    1.80
  -3   7   3   53.32    1.88
  -3   7   3   52.40    1.52
  -3   7   3   52.46    1.68
  -3   7   3   54.75    1.71
   2  -7  -3   12.80    0.59
   2  -7  -3   12.40    0.50
  -2   7   3   12.89    0.50
  -2   7   3   12.57    0.44
  -2   7   3   10.65    0.51
  -2   7   3   13.19    0.60
  -2   7   3   11.76    0.50
   1  -7  -3   34.75    1.18
   1  -7  -3   35.72    1.27
  -1   7   3   36.72    1.12
  -1   7   3   35.07    1.26
  -1   7   3   34.01    1.11
  -1   7   3   36.23    1.01
   0  -7  -3    0.04    0.19
   0   7   3    0.28    0.18
   0   7   3    0.31    0.10
  -1  -7  -3    0.74    0.21
  -1  -7  -3    0.85    0.09
   1   7   3    0.96    0.18
   1   7   3    0.98    0.10
  -2  -7  -3    0.00    0.20
  -2  -7  -3    0.33    0.09
  -2  -7  -3    0.19    0.12
   2   7   3    0.30    0.13
   2   7   3    0.08    0.11
   2   7   3    0.18    0.10
  -3  -7  -3    7.53    0.41
  -3  -7  -3    8.79    0.36
   3   7   3    8.09    0.40
   3   7   3    8.19    0.45
   3   7   3    7.74    0.38
   3   7   3    8.26    0.31
   3   7   3    8.68    0.35
  -4  -7  -3    2.00    0.18
   4   7   3    1.52    0.19
   4   7   3    1.57    0.21
   4   7   3    1.68    0.22
   4   7   3    2.04    0.26
   4   7   3    1.89    0.23
  -5  -7  -3   26.87    0.99
   5   7   3   26.96    0.98
   5   7   3   27.03    0.97
   5   7   3   27.19    0.97
   5   7   3   27.85    1.03
   5   7   3   28.00    0.97
  -6  -7  -3   85.27    2.99
   6   7   3   93.45    2.87
   6   7   3   90.70    2.84
   6   7   3   95.15    2.83
   6   7   3   90.22    2.88
  -7  -7  -3   27.61    1.08
   7   7   3   28.61    1.09
   7   7   3   27.53    1.09
   7   7   3   29.37    1.07
  -8  -7  -3    9.97    0.61
   8   7   3   11.18    0.63
   8   7   3    9.94    0.64
  -9  -7  -3   16.45    0.80
   9   7   3   18.02    0.85
 -10  -7  -3    2.73    0.43
  10   7   3    1.89    0.45
 -11  -7  -3    3.35    0.55
  11   7   3    2.96    0.53
 -12  -7  -3    0.38    0.57
  12   7   3    0.36    0.53
 -10   8   3    2.22    0.73
  -9   8   3   11.59    0.89
  -9   8   3   12.00    0.75
  -8   8   3    6.76    0.58
  -8   8   3    5.83    0.58
  -7   8   3   17.50    0.85
  -7   8   3   17.69    0.82
  -6   8   3    1.77    0.36
  -6   8   3    1.40    0.34
  -6   8   3    1.39    0.28
  -5   8   3    0.24    0.25
  -5   8   3    0.78    0.31
  -5   8   3    0.24    0.29
  -5   8   3    0.84    0.32
   4  -8  -3    2.48    0.38
  -4   8   3    2.00    0.33
  -4   8   3    1.93    0.31
  -4   8   3    2.02    0.30
  -4   8   3    2.29    0.26
  -4   8   3    1.71    0.26
   3  -8  -3    1.41    0.32
  -3   8   3    1.13    0.25
  -3   8   3    1.04    0.21
  -3   8   3    1.45    0.25
  -3   8   3    1.08    0.32
  -3   8   3    1.37    0.27
  -3   8   3    1.22    0.22
   2  -8  -3    7.92    0.50
  -2   8   3    7.76    0.42
  -2   8   3    8.50    0.42
  -2   8   3    7.95    0.50
  -2   8   3    7.81    0.38
  -2   8   3    8.15    0.39
  -2   8   3    8.40    0.39
   1  -8  -3   15.44    0.69
  -1   8   3   16.22    0.52
  -1   8   3   16.45    0.70
  -1   8   3   17.07    0.61
  -1   8   3   15.51    0.58
  -1   8   3   16.67    0.53
   0  -8  -3   40.61    1.34
   0  -8  -3   39.88    1.43
   0   8   3   43.56    1.14
   0   8   3   40.00    1.27
   0   8   3   41.15    1.43
  -1  -8  -3   46.82    1.53
  -1  -8  -3   45.27    1.54
   1   8   3   45.20    1.23
   1   8   3   44.66    1.53
   1   8   3   42.85    1.38
  -2  -8  -3   35.13    1.13
  -2  -8  -3   33.43    1.18
   2   8   3   31.94    1.05
   2   8   3   33.05    1.14
   2   8   3   33.41    0.93
  -3  -8  -3  121.42    3.81
  -3  -8  -3  119.58    3.78
   3   8   3  114.63    3.56
   3   8   3  114.70    3.57
   3   8   3  116.70    3.81
   3   8   3  122.11    3.21
  -4  -8  -3    3.82    0.34
  -4  -8  -3    4.28    0.30
   4   8   3    4.00    0.25
   4   8   3    4.57    0.27
   4   8   3    4.33    0.40
   4   8   3    4.12    0.29
  -5  -8  -3    4.51    0.35
   5   8   3    5.26    0.42
   5   8   3    4.49    0.38
   5   8   3    4.74    0.39
   5   8   3    4.43    0.38
   5   8   3    4.63    0.32
   5   8   3    4.91    0.32
  -6  -8  -3    0.23    0.21
   6   8   3    0.52    0.27
   6   8   3    0.13    0.27
   6   8   3    0.04    0.23
   6   8   3    0.26    0.25
  -7  -8  -3    0.01    0.24
   7   8   3    0.28    0.30
   7   8   3    0.01    0.30
   7   8   3    0.15    0.26
  -8  -8  -3   23.66    0.98
   8   8   3   22.52    0.96
   8   8   3   24.33    0.96
  -9  -8  -3    0.32    0.29
   9   8   3    0.56    0.35
 -10  -8  -3    3.40    0.43
  10   8   3    2.98    0.48
 -11  -8  -3    2.75    0.49
  11   8   3    2.80    0.52
 -12  -8  -3    2.01    0.55
  12   8   3    2.20    0.58
 -10   9   3    1.86    0.55
 -10   9   3    1.24    0.71
  -9   9   3    4.81    0.70
  -9   9   3    5.76    0.59
  -8   9   3   -0.36    0.48
  -8   9   3    0.40    0.39
  -7   9   3    0.15    0.35
  -7   9   3    0.09    0.38
  -6   9   3   -0.07    0.33
  -6   9   3   -0.33    0.25
  -6   9   3   -0.18    0.31
  -5   9   3    0.17    0.27
  -5   9   3   -0.12    0.24
  -5   9   3    0.00    0.28
  -5   9   3    0.33    0.31
  -4   9   3    2.14    0.26
  -4   9   3    2.11    0.32
  -4   9   3    2.29    0.33
  -4   9   3    2.33    0.28
  -4   9   3    2.09    0.30
   3  -9  -3    2.99    0.39
  -3   9   3    2.57    0.28
  -3   9   3    2.80    0.26
  -3   9   3    2.27    0.28
  -3   9   3    2.62    0.25
  -3   9   3    2.71    0.30
   2  -9  -3    7.57    0.53
  -2   9   3    7.08    0.39
  -2   9   3    7.52    0.43
  -2   9   3    7.49    0.44
  -2   9   3    7.85    0.54
  -2   9   3    8.09    0.37
   1  -9  -3   15.19    0.69
  -1   9   3   15.92    0.58
  -1   9   3   15.57    0.51
  -1   9   3   14.75    0.57
  -1   9   3   15.06    0.70
   0  -9  -3   45.15    1.53
   0   9   3   42.25    1.35
   0   9   3   43.34    1.53
   0   9   3   43.46    1.21
  -1  -9  -3   48.60    1.66
  -1  -9  -3   49.28    1.64
   1   9   3   45.71    1.47
   1   9   3   48.49    1.64
  -2  -9  -3   69.10    2.17
  -2  -9  -3   64.90    2.21
   2   9   3   67.22    1.80
   2   9   3   63.07    2.01
   2   9   3   65.71    2.18
  -3  -9  -3   18.22    0.62
  -3  -9  -3   18.43    0.74
  -3  -9  -3   17.14    0.61
   3   9   3   18.41    0.54
   3   9   3   16.80    0.64
   3   9   3   17.47    0.63
  -4  -9  -3   -0.19    0.26
  -4  -9  -3   -0.21    0.16
   4   9   3    0.23    0.27
   4   9   3    0.06    0.16
   4   9   3    0.20    0.19
  -5  -9  -3    0.37    0.16
   5   9   3    0.19    0.17
   5   9   3    0.33    0.20
   5   9   3    0.14    0.19
   5   9   3    0.02    0.07
   5   9   3    0.20    0.22
  -6  -9  -3    4.53    0.40
   6   9   3    3.90    0.33
   6   9   3    4.22    0.32
   6   9   3    4.48    0.34
   6   9   3    4.44    0.35
  -7  -9  -3    0.13    0.21
   7   9   3    0.76    0.29
   7   9   3    0.18    0.28
   7   9   3    0.04    0.24
  -8  -9  -3    6.52    0.48
   8   9   3    7.01    0.61
   8   9   3    7.47    0.53
  -9  -9  -3   19.39    0.84
   9   9   3   18.22    0.86
  10   9   3    7.26    0.58
  11   9   3    5.56    0.61
  -9  10   3    1.94    0.55
  -9  10   3    2.69    0.62
  -8  10   3    3.39    0.58
  -8  10   3    3.94    0.50
  -7  10   3    2.95    0.46
  -7  10   3    2.70    0.42
  -6  10   3   17.35    0.81
  -6  10   3   18.95    0.85
  -5  10   3   44.76    1.59
  -5  10   3   42.41    1.52
  -5  10   3   46.42    1.53
  -5  10   3   44.57    1.36
  -4  10   3    8.02    0.53
  -4  10   3    6.97    0.52
  -4  10   3    7.94    0.46
  -4  10   3    7.84    0.47
  -4  10   3    8.30    0.48
   3 -10  -3   13.22    0.71
  -3  10   3   12.33    0.54
  -3  10   3   12.42    0.61
  -3  10   3   13.29    0.61
  -3  10   3   12.63    0.53
  -3  10   3   11.73    0.53
   2 -10  -3    0.41    0.30
  -2  10   3    0.28    0.19
  -2  10   3    0.36    0.21
  -2  10   3    0.35    0.30
  -2  10   3    0.02    0.18
   1 -10  -3   13.66    0.66
  -1  10   3   13.66    0.67
  -1  10   3   12.69    0.53
  -1  10   3   12.37    0.52
  -1  10   3   13.51    0.46
   0 -10  -3    4.49    0.36
   0 -10  -3    4.16    0.39
   0  10   3    3.48    0.23
   0  10   3    3.71    0.29
   0  10   3    4.05    0.35
  -1 -10  -3    5.14    0.40
  -1 -10  -3    5.02    0.44
   1  10   3    5.29    0.40
  -2 -10  -3   -0.34    0.28
  -2 -10  -3    0.31    0.20
   2  10   3    0.10    0.19
   2  10   3    0.09    0.13
  -3 -10  -3   22.15    0.87
  -3 -10  -3   21.97    0.74
   3  10   3   20.67    0.73
   3  10   3   21.09    0.63
   3  10   3   20.33    0.72
  -4 -10  -3    4.00    0.40
   4  10   3    3.55    0.23
   4  10   3    3.33    0.25
   5  10   3   10.01    0.54
   5  10   3    9.25    0.50
   6  10   3    4.57    0.33
   6  10   3    4.46    0.31
   6  10   3    4.26    0.34
   6  10   3    4.46    0.32
   7  10   3    5.74    0.51
   7  10   3    6.33    0.41
   7  10   3    6.23    0.44
   7  10   3    6.40    0.55
   8  10   3   11.47    0.63
   8  10   3   10.67    0.59
   8  10   3    9.60    0.55
   9  10   3   10.77    0.73
   9  10   3    9.75    0.58
  10  10   3    1.35    0.39
  11  10   3    0.34    0.45
  -9  11   3   11.52    0.81
  -9  11   3   11.00    1.01
  -8  11   3    0.82    0.52
  -8  11   3    1.59    0.49
  -7  11   3    6.16    0.55
  -7  11   3    4.73    0.50
  -6  11   3   19.29    0.84
  -6  11   3   19.00    0.88
  -5  11   3    9.83    0.56
  -5  11   3   10.66    0.56
  -5  11   3   11.32    0.63
  -5  11   3   10.40    0.56
  -4  11   3    9.76    0.48
  -4  11   3    8.59    0.56
  -4  11   3    8.87    0.48
  -4  11   3    9.58    0.47
  -4  11   3    9.08    0.54
  -3  11   3    0.62    0.19
  -3  11   3    0.41    0.23
  -3  11   3    0.80    0.21
   2 -11  -3    1.06    0.33
  -2  11   3    0.41    0.20
  -2  11   3    0.36    0.18
   1 -11  -3    1.69    0.32
  -1  11   3    1.28    0.19
  -1  11   3    1.49    0.33
  -1  11   3    1.02    0.17
   0 -11  -3   11.62    0.62
   0 -11  -3   12.14    0.64
   0  11   3   12.61    0.63
   0  11   3   12.11    0.41
   0  11   3   11.67    0.47
  -1 -11  -3    4.01    0.35
  -1 -11  -3    4.29    0.43
   1  11   3    3.60    0.33
  -2 -11  -3   21.42    0.83
  -2 -11  -3   21.51    0.91
   2  11   3   21.35    0.83
  -3 -11  -3   25.26    0.99
   3  11   3   24.08    0.82
   3  11   3   24.55    0.71
   3  11   3   23.94    0.80
  -4 -11  -3   13.77    0.69
   4  11   3   14.18    0.57
   4  11   3   13.70    0.55
  -5 -11  -3   18.61    0.84
   5  11   3   19.46    0.74
   5  11   3   18.99    0.72
   6  11   3   27.88    1.01
   6  11   3   26.75    0.98
   7  11   3    2.21    0.22
   7  11   3    2.29    0.29
   7  11   3    1.63    0.29
   7  11   3    1.99    0.21
   8  11   3    0.54    0.26
   8  11   3    0.34    0.23
   8  11   3    0.54    0.30
   9  11   3    0.67    0.30
   9  11   3    0.32    0.30
   9  11   3    0.37    0.34
  10  11   3    1.15    0.38
  11  11   3    0.00    0.45
  -8  12   3    0.78    0.52
  -7  12   3    0.15    0.39
  -6  12   3    0.40    0.32
  -5  12   3    4.30    0.38
  -5  12   3    3.88    0.34
  -5  12   3    3.61    0.36
  -4  12   3    9.74    0.43
  -4  12   3   10.39    0.51
  -4  12   3   10.26    0.57
  -4  12   3    9.79    0.44
  -4  12   3    9.19    0.44
  -3  12   3   52.21    1.56
  -3  12   3   55.03    1.73
  -2  12   3   10.06    0.43
  -2  12   3    9.62    0.51
   1 -12  -3    9.07    0.57
  -1  12   3    7.62    0.35
  -1  12   3    7.23    0.41
   0 -12  -3    1.12    0.36
   0 -12  -3    1.93    0.32
   0  12   3    1.69    0.32
   0  12   3    1.65    0.15
   0  12   3    1.24    0.17
  -1 -12  -3   17.54    0.84
  -1 -12  -3   19.54    0.79
   1  12   3   17.71    0.78
  -2 -12  -3   25.68    1.05
  -3 -12  -3    5.04    0.48
   3  12   3    5.66    0.25
   3  12   3    5.44    0.31
  -4 -12  -3    0.37    0.32
   4  12   3    0.40    0.15
   4  12   3    0.44    0.17
   5  12   3   -0.17    0.19
   5  12   3   -0.10    0.18
   6  12   3   -0.10    0.22
   6  12   3   -0.29    0.22
   7  12   3    2.45    0.31
   7  12   3    2.23    0.30
   8  12   3    0.77    0.33
   9  12   3    6.17    0.38
   9  12   3    6.20    0.43
   9  12   3    6.11    0.50
  10  12   3    1.39    0.34
  10  12   3    1.62    0.30
  -7  13   3    7.10    0.60
  -6  13   3    1.95    0.34
  -6  13   3    2.32    0.32
  -6  13   3    1.92    0.35
  -5  13   3    2.63    0.29
  -5  13   3    2.99    0.27
  -5  13   3    2.50    0.34
  -4  13   3   16.70    0.68
  -3  13   3   30.47    0.99
  -3  13   3   31.59    1.10
  -2  13   3   24.76    0.86
  -2  13   3   22.31    0.76
   1 -13  -3    6.10    0.52
  -1  13   3    5.95    0.38
  -1  13   3    5.47    0.31
   0 -13  -3    0.87    0.28
   0  13   3   -0.25    0.13
   0  13   3    0.01    0.15
   4  13   3    3.53    0.31
   4  13   3    3.72    0.24
   5  13   3    1.28    0.22
   5  13   3    1.37    0.23
   6  13   3   11.93    0.62
   6  13   3   13.62    0.63
   7  13   3    6.69    0.55
   7  13   3    6.37    0.57
   8  13   3    3.03    0.39
   9  13   3    7.20    0.55
  10  13   3    0.83    0.47
  -6  14   3    5.34    0.39
  -5  14   3    0.94    0.32
  -4  14   3    1.77    0.31
  -3  14   3    0.07    0.24
  -3  14   3    0.10    0.24
  -2  14   3    0.33    0.22
  -2  14   3    0.37    0.21
  -1  14   3    3.69    0.25
  -1  14   3    4.46    0.36
   0  14   3   11.49    0.46
   0  14   3   11.19    0.41
   4  14   3   12.54    0.50
   5  14   3   12.93    0.57
   5  14   3   13.37    0.59
   6  14   3    6.15    0.50
   6  14   3    4.35    0.34
   7  14   3    0.19    0.30
   7  14   3   -0.10    0.27
   8  14   3    3.02    0.41
   9  14   3   -0.05    0.41
  -5  15   3    1.09    0.36
  -4  15   3    0.53    0.31
  -3  15   3    5.82    0.47
  -3  15   3    7.22    0.53
  -2  15   3   10.94    0.51
  -2  15   3   11.78    0.57
  -1  15   3   13.00    0.51
  -1  15   3   13.75    0.58
   0  15   3   18.68    0.60
   5  15   3    1.53    0.23
   5  15   3    1.65    0.25
   6  15   3   -0.09    0.26
   6  15   3   -0.21    0.26
   7  15   3   -0.08    0.31
   7  15   3   -0.47    0.30
   8  15   3    0.40    0.38
  -4  16   3    4.63    0.42
  -3  16   3    4.98    0.38
  -3  16   3    4.83    0.41
  -2  16   3    2.13    0.28
  -2  16   3    2.56    0.32
  -1  16   3    8.05    0.49
  -1  16   3    8.75    0.42
   0  16   3    8.50    0.38
   6  16   3    5.94    0.40
   6  16   3    5.35    0.46
   7  16   3    2.73    0.38
   7  16   3    1.84    0.36
  -3  17   3    0.04    0.34
  -2  17   3    0.39    0.27
  -2  17   3    0.29    0.31
  -1  17   3    0.62    0.24
   0  17   3    4.82    0.33
   6  17   3    2.05    0.33
   6  17   3    1.51    0.28
   5  15  -4    4.68    0.32
   4  15  -4    5.09    0.35
   1  15  -4    6.33    0.36
   0  15  -4    0.77    0.22
  -1  15  -4    2.32    0.37
  -1  15  -4    2.63    0.27
  -2  15  -4   -0.22    0.39
  -2  15  -4   -0.21    0.25
  -2  15  -4    0.10    0.31
   7  14  -4    2.80    0.43
   7  14  -4    3.42    0.43
   6  14  -4    1.32    0.35
   6  14  -4    1.44    0.35
   6  14  -4    1.63    0.28
   5  14  -4    0.62    0.30
   5  14  -4    0.35    0.24
   5  14  -4    0.94    0.30
   4  14  -4    0.96    0.21
   3  14  -4    0.05    0.18
   2  14  -4    0.10    0.17
   1  14  -4    0.40    0.19
   0  14  -4    0.05    0.19
  -1  14  -4    1.36    0.33
  -1  14  -4    1.40    0.23
  -2  14  -4    4.45    0.44
  -2  14  -4    4.77    0.38
  -3  14  -4    4.66    0.41
  -3  14  -4    4.20    0.36
  -3  14  -4    4.60    0.49
  -4  14  -4   -0.02    0.47
  -4  14  -4    0.06    0.32
   8  13  -4    3.33    0.47
   7  13  -4    8.55    0.68
   7  13  -4    7.17    0.51
   6  13  -4    0.13    0.32
   6  13  -4   -0.18    0.24
   6  13  -4   -0.04    0.32
   5  13  -4   -0.28    0.28
   5  13  -4   -0.37    0.28
   5  13  -4   -0.01    0.21
   4  13  -4    2.09    0.27
   4  13  -4    2.15    0.22
   3  13  -4    1.00    0.18
   2  13  -4    2.07    0.19
   1  13  -4    7.95    0.34
   0  13  -4    8.92    0.37
   0  13  -4    8.53    0.49
  -1  13  -4    5.64    0.39
  -1  13  -4    5.60    0.40
  -2  13  -4    8.04    0.61
  -2  13  -4    8.70    0.50
  -3  13  -4   14.69    0.60
  -3  13  -4   13.29    0.78
  -3  13  -4   14.14    0.69
  -4  13  -4    0.39    0.31
  -4  13  -4    0.73    0.44
  -5  13  -4    0.36    0.49
   9  12  -4   -0.39    0.46
   8  12  -4    1.00    0.42
   7  12  -4    4.69    0.43
   7  12  -4    4.30    0.42
   6  12  -4    3.69    0.30
   6  12  -4    4.10    0.38
   6  12  -4    4.16    0.37
   5  12  -4    1.31    0.21
   5  12  -4    1.48    0.29
   5  12  -4    1.04    0.28
   4  12  -4    0.36    0.24
   4  12  -4    0.56    0.17
   3  12  -4   12.24    0.43
   3  12  -4   12.32    0.52
   2  12  -4   10.58    0.38
   1  12  -4    0.15    0.14
   1  12  -4   -0.02    0.21
   0  12  -4    0.35    0.15
   0  12  -4    0.14    0.23
  -1  12  -4    0.49    0.21
  -1  12  -4    0.70    0.27
  -2  12  -4    4.04    0.31
  -2  12  -4    3.63    0.36
  -3  12  -4    0.34    0.35
  -3  12  -4    0.56    0.25
  -4  12  -4    0.33    0.28
  -4  12  -4    0.16    0.39
  -5  12  -4    1.86    0.34
  -5  12  -4    1.47    0.47
  -6  12  -4    2.31    0.53
   9  11  -4    6.42    0.57
   8  11  -4    3.83    0.46
   7  11  -4    4.86    0.41
   7  11  -4    4.99    0.43
   6  11  -4    9.02    0.48
   6  11  -4    9.28    0.58
   6  11  -4    9.85    0.62
   5  11  -4   12.65    0.50
   5  11  -4   12.81    0.60
   4  11  -4    9.13    0.47
   4  11  -4    8.33    0.37
   3  11  -4    1.55    0.17
   3  11  -4    1.84    0.22
   2  11  -4   -0.11    0.17
   2  11  -4    0.00    0.13
   1  11  -4    4.59    0.35
   1  11  -4    4.67    0.24
   0  11  -4    3.66    0.27
   0  11  -4    3.66    0.23
  -1  11  -4    5.07    0.44
  -1  11  -4    4.40    0.36
  -2  11  -4    9.05    0.55
  -2  11  -4    9.25    0.50
  -3  11  -4   10.75    0.59
  -3  11  -4   11.80    0.66
  -4  11  -4   10.08    0.70
  -4  11  -4   10.30    0.50
  -5  11  -4   13.21    0.85
  -5  11  -4   12.68    0.60
  -5  11  -4   12.09    0.53
  -6  11  -4    1.28    0.33
  -6  11  -4    1.27    0.47
  -6  11  -4    0.94    0.31
  -7  11  -4    0.67    0.44
  10  10  -4    5.75    0.50
  10  10  -4    7.29    0.46
   9  10  -4    4.85    0.39
   9  10  -4    5.12    0.37
   9  10  -4    5.58    0.51
   8  10  -4    1.36    0.38
   7  10  -4    0.98    0.33
   6  10  -4    0.31    0.22
   6  10  -4   -0.05    0.27
   6  10  -4   -0.56    0.27
   5  10  -4   -0.07    0.22
   5  10  -4   -0.15    0.18
   4  10  -4    0.22    0.19
   4  10  -4    0.23    0.16
   3  10  -4    8.03    0.34
   3  10  -4    8.34    0.41
   2  10  -4    0.06    0.13
   2  10  -4    0.13    0.17
   1  10  -4    0.02    0.13
   1  10  -4   -0.23    0.17
  -1 -10   4    0.00    0.25
   0  10  -4   15.74    0.51
   0  10  -4   16.40    0.62
   0 -10   4   16.02    0.76
  -1  10  -4    6.25    0.39
  -1  10  -4    6.85    0.43
  -2  10  -4    9.71    0.54
  -2  10  -4   10.45    0.51
  -3  10  -4    3.30    0.30
  -3  10  -4    3.89    0.34
  -4  10  -4    3.92    0.32
  -4  10  -4    4.32    0.39
  -4  10  -4    3.63    0.30
  -4  10  -4    4.30    0.33
  -5  10  -4    1.13    0.30
  -5  10  -4    1.10    0.37
  -5  10  -4    0.74    0.30
  -5  10  -4    0.78    0.26
  -6  10  -4    0.16    0.40
  -6  10  -4    0.40    0.35
  -7  10  -4    0.55    0.43
  -8  10  -4    1.88    0.56
  10   9  -4    1.85    0.40
   9   9  -4    0.00    0.38
   9   9  -4    0.57    0.30
   9   9  -4   -0.11    0.32
   8   9  -4   -0.13    0.23
   8   9  -4   -0.24    0.27
   8   9  -4   -0.10    0.32
   7   9  -4   -0.03    0.28
   7   9  -4    0.22    0.18
   6   9  -4    8.78    0.60
   6   9  -4    8.47    0.53
   6   9  -4    7.85    0.47
   5   9  -4    4.27    0.33
   5   9  -4    4.16    0.30
   4   9  -4   13.55    0.50
   4   9  -4   14.64    0.58
   3   9  -4   23.82    0.82
   3   9  -4   24.00    0.73
  -3  -9   4   23.79    0.98
   2   9  -4   25.76    0.86
   2   9  -4   24.99    0.75
  -2  -9   4   25.91    1.05
  -2  -9   4   25.67    0.98
   1   9  -4   33.38    1.09
   1   9  -4   31.98    0.96
  -1  -9   4   35.71    1.26
  -1  -9   4   34.07    1.29
   0   9  -4    1.08    0.18
   0   9  -4    1.59    0.21
   0  -9   4    2.12    0.38
   0  -9   4    1.26    0.31
  -1   9  -4    6.21    0.42
  -1   9  -4    5.44    0.39
   1  -9   4    6.19    0.47
   1  -9   4    5.64    0.51
  -2   9  -4    0.45    0.21
  -2   9  -4    0.49    0.24
  -3   9  -4   -0.12    0.22
  -3   9  -4    0.10    0.26
  -3   9  -4    0.16    0.19
  -3   9  -4    0.59    0.20
  -4   9  -4    0.58    0.26
  -4   9  -4    0.22    0.28
  -4   9  -4    0.54    0.26
  -4   9  -4    0.22    0.25
  -5   9  -4    2.41    0.37
  -5   9  -4    2.31    0.36
  -5   9  -4    2.74    0.35
  -5   9  -4    2.91    0.36
  -5   9  -4    2.52    0.29
  -6   9  -4    2.99    0.40
  -6   9  -4    2.21    0.38
  -6   9  -4    2.92    0.41
  -7   9  -4    4.05    0.51
  -7   9  -4    3.00    0.46
  -8   9  -4    5.88    0.62
  -8   9  -4    7.25    0.68
  11   8  -4    0.25    0.47
  10   8  -4    0.66    0.38
   9   8  -4    3.73    0.42
   9   8  -4    5.05    0.46
   8   8  -4   14.28    0.71
   8   8  -4   13.78    0.65
   8   8  -4   14.42    0.73
   7   8  -4   26.44    0.99
   7   8  -4   23.92    0.92
   7   8  -4   26.61    0.96
   6   8  -4   15.32    0.76
   6   8  -4   16.60    0.62
   6   8  -4   15.47    0.70
   6   8  -4   15.83    0.63
   6   8  -4   14.83    0.59
   5   8  -4    5.62    0.37
   5   8  -4    6.06    0.45
   4   8  -4   13.94    0.58
   4   8  -4   14.26    0.51
  -4  -8   4   13.26    0.70
   3   8  -4    5.40    0.29
   3   8  -4    4.62    0.37
  -3  -8   4    6.04    0.38
  -3  -8   4    6.03    0.48
  -3  -8   4    5.34    0.39
   2   8  -4   11.05    0.39
   2   8  -4   10.47    0.47
  -2  -8   4   11.11    0.61
  -2  -8   4   11.26    0.55
   1   8  -4    0.61    0.13
   1   8  -4    0.68    0.18
  -1  -8   4    0.31    0.24
  -1  -8   4    0.73    0.33
   0   8  -4    1.58    0.19
   0   8  -4    1.36    0.21
   0   8  -4    1.18    0.18
   0  -8   4    1.49    0.35
   0  -8   4    1.19    0.28
  -1   8  -4    2.95    0.24
  -1   8  -4    2.86    0.23
  -1   8  -4    2.85    0.26
   1  -8   4    2.75    0.38
   1  -8   4    2.93    0.36
  -2   8  -4    3.63    0.28
  -2   8  -4    3.38    0.27
  -2   8  -4    3.14    0.29
  -2   8  -4    3.54    0.24
   2  -8   4    2.76    0.40
  -3   8  -4   28.00    0.96
  -3   8  -4   27.65    1.01
  -3   8  -4   27.12    0.96
  -3   8  -4   27.41    1.04
  -3   8  -4   27.63    1.00
  -4   8  -4   32.42    1.18
  -4   8  -4   34.55    1.21
  -4   8  -4   34.35    1.19
  -4   8  -4   34.04    1.25
  -4   8  -4   33.89    1.19
  -5   8  -4   11.94    0.55
  -5   8  -4   13.18    0.66
  -5   8  -4   12.06    0.70
  -5   8  -4   12.21    0.64
  -5   8  -4   12.91    0.65
  -6   8  -4    2.12    0.39
  -6   8  -4    2.53    0.39
  -6   8  -4    2.09    0.38
  -7   8  -4    0.91    0.36
  -7   8  -4    1.19    0.42
  -8   8  -4    5.52    0.56
  -8   8  -4    6.34    0.64
  -9   8  -4    1.08    0.65
  -9   8  -4    1.00    0.54
  11   7  -4    0.43    0.47
  10   7  -4    5.72    0.53
   9   7  -4    3.85    0.44
  -9  -7   4    4.46    0.44
   8   7  -4    6.08    0.48
   8   7  -4    5.98    0.44
   7   7  -4   16.57    0.76
   7   7  -4   15.53    0.71
   7   7  -4   16.35    0.74
   6   7  -4    1.35    0.26
   6   7  -4    1.41    0.27
   6   7  -4    1.32    0.30
   6   7  -4    1.31    0.31
   6   7  -4    1.38    0.25
  -6  -7   4    1.51    0.27
   5   7  -4    1.44    0.22
   5   7  -4    1.76    0.23
   5   7  -4    1.33    0.24
   5   7  -4    1.79    0.25
   5   7  -4    1.62    0.25
  -5  -7   4    2.24    0.29
   4   7  -4    0.21    0.20
   4   7  -4   -0.07    0.17
   4   7  -4    0.12    0.18
  -4  -7   4   -0.48    0.18
  -4  -7   4    0.03    0.20
   3   7  -4    4.11    0.34
   3   7  -4    3.80    0.27
   3   7  -4    3.71    0.29
  -3  -7   4    3.84    0.33
  -3  -7   4    3.27    0.36
   2   7  -4    3.58    0.31
   2   7  -4    4.34    0.28
   2   7  -4    3.96    0.24
  -2  -7   4    4.05    0.39
  -2  -7   4    4.24    0.36
   1   7  -4   14.25    0.56
   1   7  -4   15.27    0.56
   1   7  -4   14.20    0.46
  -1  -7   4   14.07    0.68
  -1  -7   4   15.59    0.66
   0   7  -4    7.55    0.39
   0   7  -4    7.32    0.40
   0   7  -4    6.98    0.29
   0   7  -4    7.25    0.38
   0  -7   4    7.12    0.45
   0  -7   4    7.46    0.47
  -1   7  -4   54.28    1.70
  -1   7  -4   53.64    1.69
  -1   7  -4   54.12    1.79
   1  -7   4   54.53    1.86
   1  -7   4   52.63    1.89
  -2   7  -4   34.50    1.14
  -2   7  -4   34.86    1.12
  -2   7  -4   33.73    1.16
  -2   7  -4   34.31    1.20
   2  -7   4   32.45    1.30
  -3   7  -4   39.89    1.33
  -3   7  -4   39.35    1.39
  -3   7  -4   39.88    1.32
  -3   7  -4   39.31    1.31
  -3   7  -4   39.64    1.32
   3  -7   4   36.83    1.49
  -4   7  -4   31.25    1.12
  -4   7  -4   30.33    1.14
  -4   7  -4   30.72    1.11
  -4   7  -4   31.17    1.10
  -4   7  -4   30.35    1.16
  -5   7  -4   12.78    0.68
  -5   7  -4   12.12    0.65
  -5   7  -4   11.76    0.63
  -5   7  -4   11.23    0.61
  -5   7  -4   12.24    0.54
  -6   7  -4   -0.16    0.33
  -6   7  -4    0.64    0.35
  -6   7  -4    0.13    0.31
  -7   7  -4   -0.02    0.39
  -7   7  -4    0.20    0.35
  -8   7  -4    0.01    0.48
  -8   7  -4   -0.14    0.39
  -9   7  -4   -0.32    0.60
  -9   7  -4    0.75    0.47
  11   6  -4    0.83    0.47
 -11  -6   4    0.67    0.51
  10   6  -4    2.51    0.47
 -10  -6   4    3.18    0.48
   9   6  -4    0.43    0.37
  -9  -6   4   -0.10    0.32
   8   6  -4    3.65    0.37
   8   6  -4    2.81    0.38
  -8  -6   4    2.29    0.35
   7   6  -4    0.94    0.29
   7   6  -4    0.62    0.33
   7   6  -4    0.60    0.31
  -7  -6   4    0.22    0.26
   6   6  -4   11.60    0.58
   6   6  -4   10.98    0.58
   6   6  -4   10.23    0.57
   6   6  -4   10.26    0.67
   6   6  -4   10.50    0.53
  -6  -6   4    9.89    0.57
   5   6  -4   15.56    0.64
   5   6  -4   15.83    0.58
   5   6  -4   14.94    0.65
   5   6  -4   15.32    0.65
   5   6  -4   16.26    0.67
  -5  -6   4   16.00    0.62
   4   6  -4   32.85    1.03
   4   6  -4   34.17    1.21
   4   6  -4   36.10    1.16
   4   6  -4   35.54    1.14
  -4  -6   4   35.91    1.21
   3   6  -4   62.17    1.95
   3   6  -4   62.33    1.78
   3   6  -4   64.50    1.98
   3   6  -4   65.41    2.10
  -3  -6   4   64.12    2.12
  -3  -6   4   65.38    2.16
   2   6  -4   60.10    1.87
   2   6  -4   55.57    1.76
   2   6  -4   56.78    1.58
   2   6  -4   55.71    1.93
  -2  -6   4   57.15    1.93
   1   6  -4   11.92    0.48
   1   6  -4   11.74    0.47
   1   6  -4   11.70    0.39
  -1  -6   4   11.57    0.57
   0   6  -4   25.36    0.84
   0   6  -4   25.15    0.73
   0   6  -4   24.88    0.85
   0  -6   4   24.55    0.95
   0  -6   4   25.82    0.96
  -1   6  -4   24.02    0.86
  -1   6  -4   24.30    0.84
  -1   6  -4   24.03    0.79
  -1   6  -4   23.37    0.82
   1  -6   4   23.97    0.94
   1  -6   4   23.34    0.90
  -2   6  -4   13.52    0.55
  -2   6  -4   12.72    0.55
  -2   6  -4   13.69    0.57
  -2   6  -4   13.07    0.58
  -2   6  -4   13.85    0.58
   2  -6   4   12.55    0.66
  -3   6  -4    0.56    0.25
  -3   6  -4    0.35    0.22
  -3   6  -4    0.14    0.25
  -3   6  -4    0.16    0.25
  -3   6  -4    0.29    0.25
   3  -6   4    0.19    0.31
  -4   6  -4    1.56    0.31
  -4   6  -4    1.51    0.28
  -4   6  -4    1.25    0.30
  -4   6  -4    1.04    0.25
  -4   6  -4    1.54    0.32
   4  -6   4    1.32    0.36
  -5   6  -4    0.21    0.31
  -5   6  -4    0.63    0.31
  -5   6  -4    0.00    0.30
  -5   6  -4    0.47    0.23
  -5   6  -4   -0.02    0.29
  -5   6  -4    0.48    0.30
  -6   6  -4   16.55    0.80
  -6   6  -4   17.83    0.82
  -6   6  -4   18.89    0.87
  -7   6  -4    4.25    0.46
  -7   6  -4    3.76    0.48
  -8   6  -4   11.49    0.85
  -8   6  -4   11.41    0.74
  -9   6  -4    8.61    0.76
  -9   6  -4    9.13    0.72
 -10   6  -4    1.54    0.72
 -12  -5   4    0.33    0.61
  11   5  -4    0.30    0.45
 -11  -5   4    0.26    0.51
  10   5  -4    1.21    0.43
 -10  -5   4   -0.19    0.40
   9   5  -4    2.04    0.44
  -9  -5   4    2.38    0.41
   8   5  -4    3.23    0.37
   8   5  -4    1.75    0.39
  -8  -5   4    1.83    0.33
   7   5  -4    9.84    0.62
   7   5  -4    8.14    0.56
  -7  -5   4    9.93    0.59
   6   5  -4    8.39    0.49
   6   5  -4    7.88    0.50
   6   5  -4    8.41    0.50
   6   5  -4    8.41    0.54
   6   5  -4    8.23    0.62
   6   5  -4    9.47    0.59
  -6  -5   4    8.11    0.55
   5   5  -4   29.48    1.09
   5   5  -4   30.74    1.06
   5   5  -4   30.90    0.95
   5   5  -4   30.74    1.08
   5   5  -4   30.17    1.07
  -5  -5   4   29.82    1.07
   4   5  -4   90.95    2.56
   4   5  -4   91.94    2.86
   4   5  -4   90.37    2.84
   4   5  -4   95.24    2.87
   4   5  -4   92.71    3.02
  -4  -5   4   94.80    3.02
   3   5  -4   23.32    0.81
   3   5  -4   22.63    0.78
   3   5  -4   22.20    0.69
   3   5  -4   23.26    0.88
   3   5  -4   22.18    0.77
   3   5  -4   22.87    0.77
  -3  -5   4   23.30    0.82
  -3  -5   4   21.05    0.87
   2   5  -4    0.47    0.13
   2   5  -4    0.32    0.14
   2   5  -4    0.31    0.13
   2   5  -4    0.21    0.22
   2   5  -4    0.40    0.12
   2   5  -4    0.35    0.12
  -2  -5   4    0.44    0.23
   1   5  -4    9.42    0.35
   1   5  -4    9.58    0.34
   1   5  -4   10.58    0.42
   1   5  -4    9.85    0.43
  -1  -5   4   10.50    0.47
   0   5  -4    0.31    0.13
   0   5  -4    0.17    0.12
   0   5  -4    0.23    0.14
   0   5  -4   -0.07    0.13
   0   5  -4   -0.05    0.11
   0   5  -4    0.33    0.11
   0  -5   4    0.34    0.22
   0  -5   4   -0.05    0.19
  -1   5  -4    5.89    0.32
  -1   5  -4    5.58    0.30
  -1   5  -4    5.65    0.34
  -1   5  -4    5.14    0.36
  -1   5  -4    5.48    0.34
   1  -5   4    5.55    0.40
  -2   5  -4    5.26    0.37
  -2   5  -4    6.37    0.40
  -2   5  -4    5.49    0.37
  -2   5  -4    5.57    0.39
  -2   5  -4    5.39    0.36
   2  -5   4    5.84    0.43
  -3   5  -4   57.00    1.81
  -3   5  -4   57.75    1.78
  -3   5  -4   54.75    1.88
  -3   5  -4   55.09    1.78
   3  -5   4   54.07    1.96
  -4   5  -4   10.56    0.59
  -4   5  -4   11.71    0.63
  -4   5  -4   10.83    0.57
  -4   5  -4   11.71    0.59
  -5   5  -4   77.59    2.21
  -5   5  -4   77.84    2.47
  -5   5  -4   78.56    2.62
  -5   5  -4   75.73    2.50
  -6   5  -4   82.39    2.38
  -6   5  -4   80.24    2.70
  -6   5  -4   84.84    2.81
  -6   5  -4   84.16    2.67
  -7   5  -4   12.21    0.73
  -7   5  -4   12.15    0.72
  -8   5  -4    4.35    0.49
  -8   5  -4    3.44    0.52
  -9   5  -4    0.16    0.52
  -9   5  -4    0.99    0.42
 -10   5  -4    0.82    0.68
 -12  -4   4    3.13    0.64
  11   4  -4    2.45    0.53
 -11  -4   4    2.91    0.61
  10   4  -4    5.41    0.56
 -10  -4   4    5.55    0.54
   9   4  -4   10.04    0.69
  -9  -4   4   11.16    0.71
   8   4  -4    1.64    0.38
  -8  -4   4    1.34    0.31
   7   4  -4    8.66    0.61
   7   4  -4   11.22    0.65
  -7  -4   4    9.49    0.61
   6   4  -4    3.52    0.32
   6   4  -4    3.41    0.30
   6   4  -4    3.55    0.36
   6   4  -4    4.00    0.41
   6   4  -4    3.30    0.32
  -6  -4   4    4.26    0.36
   5   4  -4    0.25    0.16
   5   4  -4   -0.18    0.20
   5   4  -4    0.05    0.20
   5   4  -4    0.35    0.22
   5   4  -4    0.08    0.25
   5   4  -4    0.11    0.14
  -5  -4   4   -0.30    0.21
   4   4  -4    2.97    0.29
   4   4  -4    3.31    0.31
   4   4  -4    2.86    0.28
   4   4  -4    2.67    0.23
   4   4  -4    3.21    0.22
  -4  -4   4    3.49    0.27
   3   4  -4   34.29    1.00
   3   4  -4   34.92    1.22
   3   4  -4   36.02    1.14
   3   4  -4   34.36    1.12
   3   4  -4   34.25    1.18
  -3  -4   4   35.66    1.19
  -3  -4   4   33.01    1.21
   2   4  -4   10.41    0.36
   2   4  -4   10.13    0.41
   2   4  -4   10.48    0.47
   2   4  -4   10.91    0.44
   2   4  -4   10.37    0.42
  -2  -4   4    9.81    0.46
  -2  -4   4   10.43    0.45
   1   4  -4    1.62    0.16
   1   4  -4    2.29    0.24
   1   4  -4    1.98    0.14
   1   4  -4    1.91    0.16
  -1  -4   4    1.67    0.24
   0   4  -4   52.24    1.63
   0   4  -4   52.95    1.45
   0   4  -4   54.87    1.63
   0   4  -4   52.69    1.62
   0   4  -4   51.57    1.73
   0  -4   4   51.41    1.75
  -1   4  -4    0.08    0.16
  -1   4  -4    0.25    0.15
  -1   4  -4    0.29    0.13
  -1   4  -4    0.35    0.17
  -1   4  -4    0.22    0.17
   1  -4   4    0.12    0.20
  -2   4  -4   86.40    2.64
  -2   4  -4   89.79    2.64
  -2   4  -4   82.90    2.61
  -2   4  -4   83.10    2.77
  -2   4  -4   83.81    2.60
   2  -4   4   83.46    2.84
  -3   4  -4   48.23    1.55
  -3   4  -4   47.48    1.63
  -3   4  -4   48.85    1.57
  -3   4  -4   47.82    1.53
  -3   4  -4   47.40    1.57
  -4   4  -4   31.21    1.14
  -4   4  -4   30.84    1.12
  -4   4  -4   32.19    1.10
  -4   4  -4   31.43    1.14
  -4   4  -4   31.34    1.11
  -4   4  -4   31.06    1.12
  -5   4  -4   37.45    1.32
  -5   4  -4   35.31    1.32
  -5   4  -4   37.69    1.30
  -5   4  -4   36.05    1.29
  -5   4  -4   36.47    1.12
   5  -4   4   34.84    1.40
  -6   4  -4    0.52    0.32
  -6   4  -4    0.58    0.33
  -6   4  -4    0.79    0.27
  -6   4  -4    0.67    0.36
  -7   4  -4    1.79    0.39
  -7   4  -4    1.82    0.40
  -8   4  -4    0.03    0.44
  -8   4  -4   -0.15    0.38
  -9   4  -4    2.00    0.58
 -10   4  -4    3.39    0.67
 -11   4  -4    1.63    0.75
 -12  -3   4    1.82    0.65
 -11  -3   4    0.22    0.52
  10   3  -4    2.41    0.47
 -10  -3   4    2.21    0.48
   9   3  -4    1.65    0.42
  -9  -3   4    1.11    0.35
   8   3  -4    0.35    0.36
  -8  -3   4    0.15    0.29
   7   3  -4    1.29    0.25
   7   3  -4    0.75    0.29
   7   3  -4    1.17    0.35
  -7  -3   4    1.12    0.28
  -7  -3   4    0.27    0.30
   6   3  -4   10.50    0.48
   6   3  -4   10.63    0.62
   6   3  -4   10.08    0.67
   6   3  -4    9.90    0.53
   6   3  -4    9.54    0.56
   6   3  -4   10.38    0.57
   6   3  -4   10.74    0.58
  -6  -3   4   10.25    0.52
  -6  -3   4    8.15    0.56
   5   3  -4    1.35    0.24
   5   3  -4    1.72    0.30
   5   3  -4    1.42    0.23
   5   3  -4    1.46    0.24
   5   3  -4    1.18    0.21
   5   3  -4    1.25    0.29
  -5  -3   4    1.12    0.24
   4   3  -4   15.39    0.64
   4   3  -4   15.45    0.64
   4   3  -4   16.99    0.64
   4   3  -4   15.70    0.62
   4   3  -4   16.04    0.60
   4   3  -4   16.77    0.66
   4   3  -4   15.02    0.54
  -4  -3   4   15.71    0.62
   3   3  -4   44.33    1.43
   3   3  -4   44.32    1.41
   3   3  -4   43.90    1.26
   3   3  -4   46.39    1.44
   3   3  -4   43.80    1.50
   3   3  -4   44.81    1.49
  -3  -3   4   43.88    1.49
   2   3  -4   62.83    1.77
   2   3  -4   65.46    1.99
   2   3  -4   64.29    1.99
   2   3  -4   65.45    2.10
   2   3  -4   64.50    2.09
   2   3  -4   64.32    1.96
  -2  -3   4   63.47    2.11
  -2  -3   4   62.52    2.09
   1   3  -4  180.09    5.77
   1   3  -4  183.87    5.50
   1   3  -4  186.15    4.92
   1   3  -4  182.93    5.82
   1   3  -4  176.43    5.50
   1   3  -4  182.61    5.46
  -1  -3   4  184.41    5.77
   0   3  -4   29.03    0.98
   0   3  -4   30.54    1.04
   0   3  -4   31.54    0.98
   0   3  -4   30.70    0.86
   0   3  -4   29.53    0.98
   0  -3   4   31.19    1.05
  -1   3  -4    7.59    0.38
  -1   3  -4    8.19    0.36
  -1   3  -4    7.14    0.34
  -1   3  -4    7.15    0.35
  -1   3  -4    6.93    0.35
  -2   3  -4    2.39    0.22
  -2   3  -4    3.59    0.31
  -2   3  -4    3.35    0.30
  -2   3  -4    2.58    0.20
  -2   3  -4    2.58    0.22
   2  -3   4    2.56    0.28
  -3   3  -4    0.80    0.22
  -3   3  -4    1.16    0.18
  -3   3  -4    1.25    0.21
  -3   3  -4    0.65    0.22
  -3   3  -4    0.55    0.23
  -3   3  -4    1.32    0.21
   3  -3   4    0.45    0.21
  -4   3  -4    2.15    0.30
  -4   3  -4    2.03    0.24
  -4   3  -4    1.69    0.25
  -4   3  -4    1.98    0.27
  -4   3  -4    2.53    0.32
   4  -3   4    1.67    0.32
  -5   3  -4    6.97    0.59
  -5   3  -4    6.81    0.51
  -5   3  -4    7.14    0.43
  -5   3  -4    5.60    0.47
  -5   3  -4    6.80    0.50
   5  -3   4    7.36    0.54
  -6   3  -4   11.11    0.67
  -6   3  -4   10.90    0.55
  -6   3  -4   10.67    0.64
  -6   3  -4   11.39    0.69
   6  -3   4   10.84    0.66
  -7   3  -4   51.25    1.86
  -7   3  -4   52.52    1.83
  -8   3  -4   28.75    1.22
  -8   3  -4   29.30    1.20
  -9   3  -4    8.93    0.79
 -10   3  -4    2.02    0.62
 -11   3  -4    1.22    0.72
 -12  -2   4    0.20    0.67
 -11  -2   4    0.27    0.59
 -10  -2   4    1.37    0.51
   9   2  -4    7.31    0.63
  -9  -2   4    8.92    0.64
   8   2  -4    3.12    0.33
   8   2  -4    2.20    0.45
  -8  -2   4    3.59    0.41
   7   2  -4   22.89    0.91
   7   2  -4   24.45    0.95
   7   2  -4   22.20    0.99
  -7  -2   4   24.61    0.98
  -7  -2   4   23.10    0.94
   6   2  -4   12.82    0.57
   6   2  -4   10.71    0.61
   6   2  -4   10.69    0.62
   6   2  -4   11.44    0.52
   6   2  -4   11.31    0.58
   6   2  -4   11.56    0.61
  -6  -2   4   10.39    0.65
  -6  -2   4   10.56    0.55
   5   2  -4    0.55    0.15
   5   2  -4    0.92    0.21
   5   2  -4    1.19    0.25
   5   2  -4    1.10    0.29
   5   2  -4    0.97    0.23
   5   2  -4    1.19    0.27
   5   2  -4    0.88    0.20
  -5  -2   4    0.46    0.22
   4   2  -4   64.68    2.02
   4   2  -4   63.23    2.15
   4   2  -4   69.33    2.09
   4   2  -4   64.64    2.08
   4   2  -4   65.82    1.83
   4   2  -4   66.44    2.15
   4   2  -4   63.94    2.16
  -4  -2   4   63.60    2.16
   3   2  -4    6.15    0.31
   3   2  -4    6.23    0.34
   3   2  -4    6.26    0.35
   3   2  -4    5.61    0.30
   3   2  -4    5.75    0.34
   3   2  -4    5.92    0.35
   3   2  -4    6.45    0.36
  -3  -2   4    6.08    0.33
   2   2  -4   43.92    1.25
   2   2  -4   44.28    1.48
   2   2  -4   45.16    1.39
   2   2  -4   43.07    1.42
   2   2  -4   44.16    1.42
   2   2  -4   44.12    1.47
  -2  -2   4   46.45    1.49
   1   2  -4   24.57    0.81
   1   2  -4   24.48    0.84
   1   2  -4   24.08    0.82
   1   2  -4   24.02    0.71
   1   2  -4   23.64    0.79
   1   2  -4   24.02    0.85
  -1  -2   4   24.01    0.84
  -1  -2   4   25.42    0.86
   0   2  -4   16.69    0.51
   0   2  -4   16.04    0.59
   0   2  -4   15.77    0.61
   0   2  -4   16.72    0.58
   0   2  -4   16.42    0.60
   0  -2   4   16.46    0.61
  -1   2  -4    3.44    0.28
  -1   2  -4    3.74    0.27
  -1   2  -4    3.24    0.29
  -1   2  -4    3.12    0.21
  -1   2  -4    3.77    0.28
  -1   2  -4    3.41    0.20
  -2   2  -4    0.32    0.13
  -2   2  -4    0.13    0.17
  -2   2  -4    0.32    0.14
  -2   2  -4    0.45    0.16
  -2   2  -4    0.24    0.18
  -3   2  -4    3.10    0.28
  -3   2  -4    3.43    0.29
  -3   2  -4    2.74    0.22
  -3   2  -4    2.63    0.24
  -3   2  -4    2.55    0.25
  -3   2  -4    2.28    0.27
   3  -2   4    3.17    0.30
  -4   2  -4   -0.01    0.23
  -4   2  -4    0.05    0.18
  -4   2  -4   -0.26    0.21
  -4   2  -4    0.08    0.21
  -4   2  -4    0.09    0.23
   4  -2   4   -0.09    0.24
  -5   2  -4    2.37    0.32
  -5   2  -4    3.05    0.28
  -5   2  -4    2.97    0.36
  -5   2  -4    3.27    0.35
  -5   2  -4    3.00    0.26
  -5   2  -4    3.43    0.33
   5  -2   4    2.63    0.37
  -6   2  -4   77.21    2.23
  -6   2  -4   80.28    2.51
  -6   2  -4   77.32    2.55
  -6   2  -4   76.73    2.64
   6  -2   4   78.34    2.70
  -7   2  -4   52.77    1.89
  -7   2  -4   52.74    1.84
  -8   2  -4   40.96    1.57
  -9   2  -4   14.70    0.90
 -10   2  -4    0.73    0.59
 -11   2  -4    0.02    0.68
 -12  -1   4    3.43    0.77
 -11  -1   4    8.05    0.78
 -10  -1   4   13.15    0.93
  -9  -1   4    3.40    0.45
   8   1  -4    7.65    0.62
   8   1  -4    8.30    0.52
  -8  -1   4    7.96    0.63
  -8  -1   4    8.31    0.55
   7   1  -4   46.55    1.58
   7   1  -4   44.41    1.59
  -7  -1   4   40.95    1.60
  -7  -1   4   46.33    1.61
   6   1  -4    0.43    0.27
   6   1  -4    0.25    0.32
   6   1  -4    0.61    0.25
   6   1  -4    0.63    0.23
   6   1  -4    0.11    0.24
  -6  -1   4    0.46    0.27
  -6  -1   4    0.86    0.31
   5   1  -4   15.81    0.70
   5   1  -4   14.98    0.67
   5   1  -4   15.97    0.66
   5   1  -4   16.49    0.72
   5   1  -4   16.52    0.61
   5   1  -4   16.47    0.65
   5   1  -4   15.68    0.70
  -5  -1   4   16.05    0.67
  -5  -1   4   16.61    0.70
   4   1  -4   20.63    0.74
   4   1  -4   20.46    0.78
   4   1  -4   21.40    0.78
   4   1  -4   20.89    0.79
   4   1  -4   20.52    0.68
  -4  -1   4   19.73    0.78
   3   1  -4    2.00    0.19
   3   1  -4    1.99    0.19
   3   1  -4    1.72    0.23
   3   1  -4    1.68    0.16
   3   1  -4    1.99    0.24
   3   1  -4    1.84    0.18
  -3  -1   4    2.01    0.20
   2   1  -4   19.18    0.66
   2   1  -4   18.94    0.66
   2   1  -4   18.13    0.64
   2   1  -4   17.34    0.57
   2   1  -4   18.22    0.66
   2   1  -4   18.28    0.67
   2   1  -4   17.53    0.66
  -2  -1   4   18.25    0.67
   1   1  -4   66.26    2.08
   1   1  -4   68.50    2.19
   1   1  -4   70.64    2.12
   1   1  -4   66.32    1.87
   1   1  -4   68.95    2.22
   1   1  -4   72.25    2.12
  -1  -1   4   67.86    1.87
  -1  -1   4   66.80    2.19
  -1  -1   4   68.17    2.24
   0   1  -4    6.87    0.35
   0   1  -4    6.49    0.28
   0   1  -4    6.27    0.35
   0   1  -4    6.34    0.36
   0   1  -4    6.86    0.35
   0  -1   4    6.81    0.27
   0  -1   4    6.88    0.32
  -1   1  -4   22.75    0.78
  -1   1  -4   22.25    0.79
  -1   1  -4   21.56    0.76
  -1   1  -4   22.42    0.66
  -1   1  -4   23.27    0.79
  -2   1  -4   39.60    1.27
  -2   1  -4   40.93    1.34
  -2   1  -4   39.70    1.26
  -2   1  -4   40.41    1.29
  -2   1  -4   37.71    1.29
  -3   1  -4  160.02    4.93
  -3   1  -4  167.42    5.00
  -3   1  -4  167.46    5.25
  -3   1  -4  162.29    5.00
  -3   1  -4  158.80    4.94
  -3   1  -4  164.83    5.00
   3  -1   4  165.89    5.00
   3  -1   4  162.02    5.31
  -4   1  -4    3.96    0.30
  -4   1  -4    4.36    0.38
  -4   1  -4    4.20    0.36
  -4   1  -4    4.43    0.40
   4  -1   4    4.59    0.37
   4  -1   4    4.10    0.35
  -5   1  -4    7.74    0.49
  -5   1  -4    8.01    0.52
  -5   1  -4    6.68    0.48
  -5   1  -4    7.42    0.53
  -5   1  -4    7.21    0.40
   5  -1   4    6.92    0.49
   5  -1   4    6.78    0.52
  -6   1  -4    0.24    0.24
  -6   1  -4    0.47    0.32
  -6   1  -4    0.27    0.28
   6  -1   4    0.11    0.31
  -7   1  -4    1.99    0.40
  -7   1  -4    1.76    0.35
   7  -1   4    2.35    0.40
  -8   1  -4    1.36    0.37
  -9   1  -4    1.86    0.49
 -10   1  -4    0.82    0.61
 -11   1  -4    3.60    0.74
 -12   0   4    3.41    0.79
 -11   0   4    4.55    0.68
 -10   0   4    2.58    0.55
   9   0  -4   -0.28    0.32
  -9   0   4   -0.22    0.37
   8   0  -4   -0.40    0.35
   8   0  -4    0.16    0.31
  -8   0   4   -0.51    0.31
   7   0  -4    4.78    0.41
   7   0  -4    5.25    0.50
  -7   0   4    4.20    0.42
  -7   0   4    4.47    0.41
   6   0  -4    4.49    0.33
   6   0  -4    3.31    0.29
   6   0  -4    4.51    0.44
   6   0  -4    3.98    0.36
   6   0  -4    3.47    0.34
  -6   0   4    3.92    0.38
  -6   0   4    4.23    0.30
  -6   0   4    3.82    0.39
  -6   0   4    4.17    0.37
   5   0  -4   19.07    0.74
   5   0  -4   17.77    0.74
   5   0  -4   19.08    0.65
   5   0  -4   18.09    0.77
   5   0  -4   18.58    0.77
   5   0  -4   18.43    0.72
  -5   0   4   18.01    0.63
  -5   0   4   18.41    0.74
  -5   0   4   17.78    0.74
   4   0  -4   11.46    0.56
   4   0  -4   12.36    0.52
   4   0  -4   12.61    0.57
   4   0  -4   11.16    0.53
   4   0  -4   12.93    0.49
  -4   0   4   12.33    0.54
  -4   0   4   11.40    0.53
  -4   0   4   12.37    0.45
   3   0  -4   42.74    1.48
   3   0  -4   46.59    1.54
   3   0  -4   47.15    1.49
   3   0  -4   45.30    1.44
   3   0  -4   47.00    1.54
   3   0  -4   46.93    1.30
  -3   0   4   44.29    1.54
  -3   0   4   45.10    1.48
  -3   0   4   45.91    1.29
   2   0  -4   42.20    1.37
   2   0  -4   41.94    1.20
   2   0  -4   42.48    1.42
   2   0  -4   44.05    1.42
   2   0  -4   42.86    1.33
   2   0  -4   38.85    1.36
  -2   0   4   43.44    1.43
  -2   0   4   43.16    1.20
  -2   0   4   42.36    1.37
   1   0  -4   29.02    0.84
   1   0  -4   29.89    0.97
   1   0  -4   28.54    0.94
   1   0  -4   29.49    0.97
   1   0  -4   28.88    0.99
   1   0  -4   30.91    0.97
   1   0  -4   29.62    1.00
  -1   0   4   29.41    0.84
  -1   0   4   27.21    0.96
  -1   0   4   29.24    1.01
   0   0  -4  358.62   11.22
   0   0  -4  360.42   11.85
   0   0  -4  381.08   10.03
   0   0  -4  371.68   11.22
   0   0  -4  381.26   11.69
   0   0  -4  371.62   11.14
   0   0   4  369.95   11.92
   0   0   4  377.42   11.22
   0   0   4  382.53   10.03
   0   0   4  381.42   11.68
  -1   0  -4   25.85    0.75
  -1   0  -4   27.57    0.87
  -1   0  -4   26.35    0.90
  -1   0  -4   26.07    0.88
  -1   0  -4   26.00    0.88
   1   0   4   23.37    0.87
   1   0   4   26.79    0.75
  -2   0  -4   40.45    1.16
  -2   0  -4   42.65    1.34
  -2   0  -4   40.07    1.31
  -2   0  -4   40.83    1.34
  -2   0  -4   40.85    1.38
   2   0   4   42.55    1.34
  -3   0  -4    4.66    0.31
  -3   0  -4    4.95    0.35
  -3   0  -4    4.74    0.36
   3   0   4    4.96    0.36
   3   0   4    3.24    0.28
  -4   0  -4    7.88    0.43
  -4   0  -4    8.89    0.48
  -4   0  -4    6.66    0.41
   4   0   4    7.60    0.44
   4   0   4    7.75    0.46
  -5   0  -4   14.34    0.68
  -5   0  -4   15.08    0.67
  -5   0  -4   14.99    0.68
  -5   0  -4   14.77    0.57
   5   0   4   15.51    0.68
   5   0   4   15.80    0.71
  -6   0  -4    0.35    0.23
  -6   0  -4    0.25    0.31
  -6   0  -4    0.04    0.27
   6   0   4    0.19    0.34
   6   0   4    0.29    0.29
  -7   0  -4    4.94    0.48
  -7   0  -4    4.78    0.45
   7   0   4    4.04    0.43
  -8   0  -4   63.02    2.19
   8   0   4   61.29    2.21
  -9   0  -4   19.46    0.99
 -10   0  -4   23.51    1.17
 -11   0  -4   17.13    1.10
 -12   0  -4    2.68    0.85
 -12   1   4    0.52    0.76
 -11   1   4    0.50    0.66
 -10   1   4   11.52    0.85
  -9   1   4   15.86    0.86
   8  -1  -4    4.66    0.45
  -8   1   4    4.74    0.45
   7  -1  -4   14.48    0.72
   7  -1  -4   14.54    0.78
  -7   1   4   16.45    0.77
  -7   1   4   13.41    0.74
   6  -1  -4   41.40    1.38
   6  -1  -4   37.91    1.45
   6  -1  -4   40.21    1.46
   6  -1  -4   39.08    1.45
  -6   1   4   39.57    1.22
  -6   1   4   40.30    1.48
  -6   1   4   40.36    1.42
  -6   1   4   45.50    1.50
   5  -1  -4   80.53    2.68
   5  -1  -4   83.83    2.27
   5  -1  -4   81.17    2.50
   5  -1  -4   80.52    2.68
   5  -1  -4   79.70    2.58
  -5   1   4   79.41    2.25
  -5   1   4   79.86    2.70
  -5   1   4   74.36    2.55
  -5   1   4   84.48    2.71
   4  -1  -4   10.15    0.47
   4  -1  -4    9.81    0.47
   4  -1  -4    9.84    0.45
   4  -1  -4    9.78    0.47
   4  -1  -4    9.51    0.52
  -4   1   4    9.65    0.49
  -4   1   4    9.99    0.40
  -4   1   4    9.05    0.47
   3  -1  -4   70.21    1.96
   3  -1  -4   67.66    2.22
   3  -1  -4   70.88    2.17
   3  -1  -4   71.07    2.32
  -3   1   4   69.72    2.34
  -3   1   4   72.33    2.22
  -3   1   4   71.92    1.96
   2  -1  -4   63.31    2.08
   2  -1  -4   59.11    1.93
   2  -1  -4   63.74    1.75
   2  -1  -4   64.84    1.99
   2  -1  -4   62.48    2.07
  -2   1   4   65.69    1.99
  -2   1   4   63.76    1.75
  -2   1   4   62.07    2.08
   1  -1  -4  243.26    6.54
   1  -1  -4  234.51    7.73
   1  -1  -4  248.23    7.33
   1  -1  -4  234.88    7.78
  -1   1   4  244.58    7.78
  -1   1   4  243.19    6.54
  -1   1   4  253.74    7.33
   0  -1  -4    6.52    0.31
   0  -1  -4    6.62    0.24
   0  -1  -4    6.37    0.31
   0  -1  -4    6.31    0.26
   0   1   4    6.51    0.35
   0   1   4    6.41    0.31
  -1  -1  -4  109.77    2.94
  -1  -1  -4  106.33    3.47
  -1  -1  -4  111.31    3.31
   1   1   4  106.68    2.93
   1   1   4  104.99    3.30
  -2  -1  -4   63.24    1.95
  -2  -1  -4   59.26    2.03
  -2  -1  -4   62.41    1.71
   2   1   4   62.80    1.95
  -3  -1  -4   64.40    2.11
  -3  -1  -4   63.35    1.77
  -3  -1  -4   62.46    2.03
   3   1   4   66.01    2.04
  -4  -1  -4    3.71    0.33
  -4  -1  -4    4.41    0.37
   4   1   4    4.10    0.32
   4   1   4    3.83    0.33
  -5  -1  -4   17.80    0.61
  -5  -1  -4   16.84    0.71
  -5  -1  -4   16.28    0.71
   5   1   4   17.06    0.69
   5   1   4   16.94    0.74
   5   1   4   16.67    0.71
  -6  -1  -4    8.42    0.55
  -6  -1  -4    8.09    0.44
  -6  -1  -4    7.89    0.57
   6   1   4    7.97    0.51
   6   1   4    8.12    0.58
  -7  -1  -4    9.22    0.60
   7   1   4    8.49    0.63
   7   1   4    8.53    0.57
  -8  -1  -4    8.90    0.61
   8   1   4    7.41    0.53
  -9  -1  -4   13.71    0.82
 -10  -1  -4    2.61    0.57
 -11  -1  -4    5.37    0.74
 -12  -1  -4    0.13    0.72
 -12   2   4    5.79    0.89
 -11   2   4    6.90    0.78
 -10   2   4    3.97    0.60
  -9   2   4    4.37    0.52
   8  -2  -4    4.82    0.47
  -8   2   4    5.47    0.48
   7  -2  -4   20.37    0.93
  -7   2   4   23.65    0.97
   6  -2  -4    7.85    0.52
   6  -2  -4    8.07    0.52
   6  -2  -4    7.66    0.59
  -6   2   4    7.95    0.54
  -6   2   4    7.28    0.47
  -6   2   4    7.78    0.57
   5  -2  -4    2.78    0.35
   5  -2  -4    2.26    0.23
   5  -2  -4    1.96    0.29
   5  -2  -4    1.75    0.25
  -5   2   4    1.98    0.23
  -5   2   4    2.10    0.30
  -5   2   4    2.37    0.32
  -5   2   4    3.24    0.35
   4  -2  -4   13.29    0.56
   4  -2  -4   13.41    0.58
   4  -2  -4   12.47    0.52
   4  -2  -4   12.95    0.59
  -4   2   4   12.68    0.59
  -4   2   4   12.39    0.48
  -4   2   4   12.24    0.56
   3  -2  -4   27.94    1.00
   3  -2  -4   29.14    0.99
   3  -2  -4   28.55    0.85
  -3   2   4   27.99    1.02
  -3   2   4   27.67    0.98
  -3   2   4   28.33    0.84
   2  -2  -4    4.66    0.28
   2  -2  -4    3.39    0.29
   2  -2  -4    4.19    0.30
   2  -2  -4    3.96    0.31
  -2   2   4    4.85    0.26
  -2   2   4    3.98    0.31
  -2   2   4    5.10    0.34
   1  -2  -4    1.58    0.15
   1  -2  -4    1.57    0.15
   1  -2  -4    1.99    0.21
  -1   2   4    1.56    0.20
  -1   2   4    1.59    0.20
  -1   2   4    1.71    0.21
  -1   2   4    1.68    0.15
   0  -2  -4  425.68   12.22
   0  -2  -4  380.37   12.90
   0  -2  -4  410.54   12.98
   0  -2  -4  397.68   10.92
   0   2   4  420.44   12.21
   0   2   4  408.30   12.98
   0   2   4  405.39   12.22
   0   2   4  408.06   10.92
  -1  -2  -4   91.60    2.57
  -1  -2  -4   95.28    3.04
  -1  -2  -4   96.98    2.90
   1   2   4   91.97    3.05
   1   2   4   93.72    2.86
   1   2   4   98.37    2.90
   1   2   4   95.31    2.90
   1   2   4   92.43    2.57
  -2  -2  -4   39.51    1.35
  -2  -2  -4   41.76    1.30
  -2  -2  -4   40.22    1.14
   2   2   4   36.94    1.30
   2   2   4   39.72    1.28
   2   2   4   42.57    1.14
   2   2   4   40.79    1.31
  -3  -2  -4    0.15    0.12
  -3  -2  -4    0.22    0.19
  -3  -2  -4   -0.09    0.14
   3   2   4    0.34    0.19
   3   2   4    0.21    0.13
   3   2   4    0.29    0.20
  -4  -2  -4  100.10    3.17
  -4  -2  -4  105.19    3.31
  -4  -2  -4  103.66    2.80
   4   2   4  101.56    3.11
   4   2   4   97.92    3.16
  -5  -2  -4   67.67    2.14
  -5  -2  -4   67.98    1.87
  -5  -2  -4   68.25    2.21
   5   2   4   63.66    2.21
   5   2   4   64.56    2.07
   5   2   4   62.97    2.14
  -6  -2  -4    4.30    0.40
  -6  -2  -4    4.95    0.40
  -6  -2  -4    4.65    0.32
   6   2   4    4.35    0.33
   6   2   4    4.55    0.44
   6   2   4    5.05    0.41
  -7  -2  -4    6.13    0.52
   7   2   4    5.49    0.46
   7   2   4    4.68    0.49
  -8  -2  -4    0.25    0.34
   8   2   4    0.30    0.30
  -9  -2  -4    2.36    0.44
 -10  -2  -4    2.62    0.56
 -11  -2  -4    3.25    0.67
 -12  -2  -4   10.92    1.03
 -11   3   4    0.19    0.63
 -10   3   4    2.50    0.59
  -9   3   4   -0.39    0.42
  -8   3   4    0.41    0.34
   7  -3  -4    0.16    0.36
  -7   3   4    0.25    0.36
  -7   3   4    0.53    0.34
   6  -3  -4   26.15    1.09
   6  -3  -4   27.88    1.06
   6  -3  -4   28.61    1.10
  -6   3   4   25.01    1.07
  -6   3   4   28.31    1.07
  -6   3   4   26.75    1.09
  -6   3   4   27.20    0.91
   5  -3  -4   32.83    1.17
   5  -3  -4   32.69    1.21
   5  -3  -4   33.50    1.19
  -5   3   4   32.86    1.00
  -5   3   4   32.75    1.17
  -5   3   4   28.25    1.19
  -5   3   4   32.36    1.21
   4  -3  -4   35.67    1.26
   4  -3  -4   35.79    1.29
   4  -3  -4   36.34    1.25
  -4   3   4   35.76    1.07
  -4   3   4   36.24    1.25
  -4   3   4   36.17    1.24
  -4   3   4   35.89    1.30
   3  -3  -4   84.03    2.75
   3  -3  -4   86.22    2.61
   3  -3  -4   84.93    2.72
  -3   3   4   81.46    2.60
  -3   3   4   82.36    2.76
  -3   3   4   80.59    2.30
  -3   3   4   83.20    2.61
   2  -3  -4   12.50    0.51
   2  -3  -4   11.74    0.52
  -2   3   4   13.33    0.53
  -2   3   4   12.65    0.44
  -2   3   4   12.73    0.53
  -2   3   4   11.79    0.54
   1  -3  -4  178.87    5.68
   1  -3  -4  173.97    5.64
   1  -3  -4  176.57    4.77
  -1   3   4  179.41    5.36
  -1   3   4  171.73    5.30
  -1   3   4  182.70    5.35
  -1   3   4  176.17    4.77
  -1   3   4  173.85    5.68
   0  -3  -4   30.09    1.01
   0  -3  -4   30.95    1.03
   0  -3  -4   30.17    0.86
   0   3   4   30.82    1.03
   0   3   4   30.71    0.86
   0   3   4   28.16    0.97
   0   3   4   30.52    1.00
   0   3   4   29.75    0.99
  -1  -3  -4   59.51    1.98
  -1  -3  -4   60.28    1.92
  -1  -3  -4   63.47    1.99
   1   3   4   63.05    1.90
   1   3   4   59.92    1.87
   1   3   4   61.02    1.91
   1   3   4   60.07    1.90
   1   3   4   62.96    1.99
   1   3   4   59.38    1.68
  -2  -3  -4    5.76    0.32
   2   3   4    6.25    0.27
   2   3   4    6.30    0.28
   2   3   4    6.17    0.36
   2   3   4    5.96    0.30
   2   3   4    5.85    0.35
   2   3   4    7.32    0.37
   2   3   4    6.85    0.36
  -3  -3  -4   20.18    0.74
   3   3   4   20.53    0.73
   3   3   4   19.49    0.71
   3   3   4   20.69    0.74
   3   3   4   20.38    0.74
  -4  -3  -4    5.82    0.35
  -4  -3  -4    6.27    0.31
  -4  -3  -4    6.03    0.41
   4   3   4    5.59    0.40
   4   3   4    6.01    0.38
   4   3   4    5.76    0.33
   4   3   4    5.13    0.41
   4   3   4    5.75    0.40
  -5  -3  -4   37.06    1.41
  -5  -3  -4   42.35    1.20
  -5  -3  -4   41.76    1.40
   5   3   4   41.90    1.39
   5   3   4   40.89    1.39
   5   3   4   40.06    1.34
  -6  -3  -4    4.82    0.39
   6   3   4    4.79    0.34
   6   3   4    5.39    0.40
   6   3   4    5.05    0.45
  -7  -3  -4    0.48    0.30
   7   3   4    0.44    0.27
   7   3   4    0.31    0.36
  -8  -3  -4    0.89    0.33
   8   3   4    1.19    0.41
   8   3   4    1.35    0.31
  -9  -3  -4   13.83    0.82
 -10  -3  -4    1.17    0.49
 -11  -3  -4   17.09    1.04
 -12  -3  -4    6.56    0.81
 -11   4   4    0.33    0.67
 -10   4   4    0.95    0.57
  -9   4   4    8.17    0.76
  -8   4   4    8.69    0.66
  -7   4   4   20.69    0.93
  -7   4   4   21.24    0.93
   6  -4  -4   23.12    1.00
  -6   4   4   22.85    1.00
  -6   4   4   24.10    0.97
  -6   4   4   23.58    0.82
   5  -4  -4    4.51    0.41
   5  -4  -4    4.77    0.44
   5  -4  -4    4.68    0.42
  -5   4   4    5.84    0.47
  -5   4   4    5.57    0.47
  -5   4   4    5.31    0.39
  -5   4   4    4.96    0.42
   4  -4  -4   27.31    1.01
   4  -4  -4   26.73    1.05
   4  -4  -4   28.52    1.02
  -4   4   4   27.68    1.00
  -4   4   4   28.82    1.01
  -4   4   4   27.66    1.06
  -4   4   4   27.77    0.95
  -4   4   4   27.44    0.86
   3  -4  -4   15.28    0.72
   3  -4  -4   17.84    0.68
  -3   4   4   18.95    0.69
  -3   4   4   17.85    0.66
  -3   4   4   19.05    0.60
  -3   4   4   17.09    0.73
  -3   4   4   18.82    0.70
   2  -4  -4   70.37    2.36
  -2   4   4   72.31    2.00
  -2   4   4   72.30    2.41
  -2   4   4   74.01    2.26
  -2   4   4   70.26    2.22
  -2   4   4   75.64    2.26
   1  -4  -4   10.95    0.48
   1  -4  -4   11.33    0.46
  -1   4   4   11.81    0.40
  -1   4   4   10.99    0.50
  -1   4   4   11.80    0.49
  -1   4   4   11.29    0.46
  -1   4   4   11.10    0.45
   0  -4  -4   17.94    0.65
   0  -4  -4   17.67    0.63
   0   4   4   15.98    0.62
   0   4   4   17.75    0.54
   0   4   4   17.95    0.64
   0   4   4   17.75    0.66
   0   4   4   17.85    0.63
  -1  -4  -4   59.80    1.95
  -1  -4  -4   58.85    1.91
  -1  -4  -4   56.16    1.95
   1   4   4   61.01    1.86
   1   4   4   61.59    1.86
   1   4   4   57.99    1.83
   1   4   4   61.93    1.96
   1   4   4   58.16    1.65
   1   4   4   62.52    1.86
  -2  -4  -4   26.63    0.94
   2   4   4   26.40    0.91
   2   4   4   26.56    0.90
   2   4   4   28.46    0.92
   2   4   4   25.93    0.90
   2   4   4   26.75    0.92
   2   4   4   28.74    0.80
   2   4   4   28.87    0.92
  -3  -4  -4    1.75    0.17
   3   4   4    1.59    0.18
   3   4   4    2.01    0.15
   3   4   4    1.98    0.17
   3   4   4    1.71    0.21
   3   4   4    1.71    0.20
   3   4   4    1.61    0.17
   3   4   4    2.01    0.17
  -4  -4  -4    5.04    0.32
   4   4   4    5.16    0.38
   4   4   4    4.72    0.39
   4   4   4    5.13    0.39
   4   4   4    4.94    0.29
   4   4   4    4.59    0.36
  -5  -4  -4    6.28    0.41
   5   4   4    6.16    0.35
   5   4   4    6.37    0.44
   5   4   4    6.51    0.44
   5   4   4    6.24    0.46
   5   4   4    6.60    0.47
  -6  -4  -4    8.09    0.52
   6   4   4    8.62    0.55
   6   4   4    9.30    0.56
   6   4   4    8.46    0.55
  -7  -4  -4    2.87    0.37
   7   4   4    2.91    0.42
   7   4   4    3.21    0.32
   7   4   4    2.94    0.32
  -8  -4  -4   25.79    1.07
   8   4   4   26.98    1.10
  -9  -4  -4   15.91    0.84
   9   4   4   13.92    0.81
 -10  -4  -4    0.48    0.44
 -11  -4  -4    0.67    0.56
 -12  -4  -4    0.11    0.67
 -11   5   4    6.64    0.86
 -10   5   4    4.57    0.67
  -9   5   4    2.71    0.53
  -8   5   4    0.13    0.38
  -7   5   4    9.09    0.67
  -7   5   4    9.05    0.63
   6  -5  -4    1.35    0.39
  -6   5   4    2.27    0.37
  -6   5   4    1.35    0.36
  -6   5   4    1.61    0.28
   5  -5  -4   24.41    0.93
   5  -5  -4   23.96    0.99
  -5   5   4   24.63    0.81
  -5   5   4   20.07    0.94
  -5   5   4   23.02    0.93
  -5   5   4   25.36    1.00
  -5   5   4   23.92    0.94
   4  -5  -4    3.15    0.34
   4  -5  -4    3.22    0.28
  -4   5   4    2.95    0.25
  -4   5   4    3.18    0.33
  -4   5   4    2.69    0.34
  -4   5   4    4.21    0.37
  -4   5   4    3.98    0.34
  -4   5   4    3.54    0.25
   3  -5  -4    2.62    0.23
  -3   5   4    3.07    0.28
  -3   5   4    2.95    0.21
  -3   5   4    2.46    0.30
  -3   5   4    2.95    0.22
  -3   5   4    2.81    0.28
   2  -5  -4   29.72    1.06
   2  -5  -4   30.44    1.11
  -2   5   4   30.66    0.90
  -2   5   4   30.33    1.11
  -2   5   4   30.98    1.03
  -2   5   4   31.18    1.04
  -2   5   4   30.15    1.00
   1  -5  -4   66.33    2.18
   1  -5  -4   64.61    2.14
  -1   5   4   66.76    2.04
  -1   5   4   64.19    2.19
  -1   5   4   63.65    2.01
  -1   5   4   67.92    2.05
  -1   5   4   66.47    1.81
   0  -5  -4   20.09    0.72
   0  -5  -4   21.31    0.75
   0   5   4   20.14    0.70
   0   5   4   21.14    0.71
   0   5   4   19.85    0.61
   0   5   4   21.43    0.71
   0   5   4   20.73    0.76
  -1  -5  -4   73.57    2.49
  -1  -5  -4   75.68    2.47
  -1  -5  -4   77.70    2.51
   1   5   4   78.49    2.37
   1   5   4   76.86    2.11
   1   5   4   76.33    2.35
   1   5   4   80.51    2.52
   1   5   4   78.93    2.37
  -2  -5  -4    3.32    0.22
  -2  -5  -4    3.33    0.20
  -2  -5  -4    3.41    0.25
   2   5   4    3.13    0.21
   2   5   4    3.37    0.21
   2   5   4    3.11    0.28
   2   5   4    3.32    0.26
   2   5   4    3.32    0.23
   2   5   4    3.03    0.19
   2   5   4    3.13    0.27
  -3  -5  -4   59.11    1.97
   3   5   4   60.40    1.86
   3   5   4   57.11    1.87
   3   5   4   58.70    1.95
   3   5   4   61.58    1.90
   3   5   4   62.43    1.67
   3   5   4   62.28    1.95
   3   5   4   59.81    1.89
  -4  -5  -4    0.11    0.14
   4   5   4    0.21    0.16
   4   5   4   -0.02    0.17
   4   5   4    0.01    0.22
   4   5   4   -0.14    0.21
   4   5   4    0.10    0.15
   4   5   4    0.09    0.13
   4   5   4    0.05    0.10
  -5  -5  -4    6.03    0.43
   5   5   4    6.83    0.44
   5   5   4    6.83    0.44
   5   5   4    7.05    0.46
   5   5   4    6.43    0.35
   5   5   4    7.53    0.45
   5   5   4    6.71    0.39
  -6  -5  -4   12.03    0.60
   6   5   4   13.06    0.63
   6   5   4   11.61    0.62
   6   5   4   11.76    0.64
   6   5   4   12.70    0.53
   6   5   4   12.90    0.66
  -7  -5  -4   -0.31    0.27
   7   5   4    0.31    0.11
   7   5   4   -0.10    0.26
   7   5   4    0.20    0.34
  -8  -5  -4    8.83    0.63
   8   5   4    9.91    0.66
  -9  -5  -4    1.43    0.36
   9   5   4    1.35    0.44
 -10  -5  -4    2.33    0.45
  10   5   4    2.15    0.48
 -11  -5  -4   -0.54    0.49
 -12  -5  -4    2.80    0.65
 -11   6   4    0.23    0.72
 -10   6   4    1.35    0.63
  -9   6   4    0.76    0.51
  -8   6   4   -0.05    0.42
  -8   6   4   -0.27    0.38
  -7   6   4    0.60    0.35
  -7   6   4    1.10    0.38
  -6   6   4   14.06    0.72
  -6   6   4   13.79    0.72
  -6   6   4   14.15    0.62
  -5   6   4   22.97    0.79
  -5   6   4   22.47    0.91
  -5   6   4   20.95    0.88
  -5   6   4   21.59    0.93
   4  -6  -4    8.59    0.48
  -4   6   4    8.37    0.44
  -4   6   4    8.28    0.52
  -4   6   4    6.50    0.52
  -4   6   4    7.38    0.47
  -4   6   4    7.98    0.47
  -4   6   4    8.31    0.53
   3  -6  -4   30.99    1.17
   3  -6  -4   30.32    1.10
  -3   6   4   31.38    0.94
  -3   6   4   31.03    1.17
  -3   6   4   31.33    1.05
  -3   6   4   31.99    1.08
  -3   6   4   31.90    1.08
   2  -6  -4   37.85    1.30
   2  -6  -4   36.88    1.36
  -2   6   4   38.56    1.11
  -2   6   4   40.00    1.26
  -2   6   4   37.29    1.36
  -2   6   4   38.08    1.22
  -2   6   4   39.36    1.26
   1  -6  -4   34.07    1.25
   1  -6  -4   34.40    1.19
  -1   6   4   36.04    1.15
  -1   6   4   35.03    1.12
  -1   6   4   35.55    1.01
  -1   6   4   35.82    1.15
  -1   6   4   36.24    1.25
   0  -6  -4   51.93    1.79
   0  -6  -4   52.69    1.75
   0   6   4   54.80    1.49
   0   6   4   56.34    1.67
   0   6   4   52.86    1.66
   0   6   4   54.32    1.67
   0   6   4   53.72    1.81
  -1  -6  -4   38.04    1.27
  -1  -6  -4   38.86    1.27
  -1  -6  -4   37.42    1.25
   1   6   4   36.82    1.19
   1   6   4   36.36    1.19
   1   6   4   39.01    1.19
   1   6   4   38.24    1.06
   1   6   4   39.59    1.29
  -2  -6  -4   22.58    0.77
  -2  -6  -4   21.83    0.78
  -2  -6  -4   21.16    0.79
   2   6   4   21.84    0.79
   2   6   4   21.52    0.75
   2   6   4   22.75    0.67
   2   6   4   23.42    0.79
   2   6   4   22.89    0.75
   2   6   4   22.92    0.75
   2   6   4   23.30    0.76
  -3  -6  -4   21.75    0.78
   3   6   4   22.60    0.66
   3   6   4   21.82    0.75
   3   6   4   22.80    0.74
   3   6   4   20.28    0.78
   3   6   4   20.95    0.76
   3   6   4   22.34    0.77
   3   6   4   21.39    0.76
  -4  -6  -4    1.46    0.18
   4   6   4    1.87    0.24
   4   6   4    1.36    0.20
   4   6   4    1.52    0.22
   4   6   4    1.16    0.18
   4   6   4    1.33    0.23
   4   6   4    1.53    0.14
  -5  -6  -4   28.14    1.08
   5   6   4   30.52    1.09
   5   6   4   31.17    1.01
   5   6   4   29.73    1.07
   5   6   4   30.82    1.08
   5   6   4   30.70    1.07
   5   6   4   30.47    1.05
   5   6   4   30.52    1.02
  -6  -6  -4    7.75    0.47
   6   6   4    7.46    0.53
   6   6   4    7.80    0.54
   6   6   4    8.12    0.58
   6   6   4    8.58    0.56
   6   6   4    7.89    0.38
   6   6   4    7.79    0.49
  -7  -6  -4    1.41    0.29
   7   6   4    1.07    0.28
   7   6   4    1.22    0.37
  -8  -6  -4    0.08    0.26
   8   6   4    0.14    0.34
  -9  -6  -4    7.36    0.57
   9   6   4    7.14    0.63
 -10  -6  -4    3.10    0.46
  10   6   4    3.12    0.51
 -11  -6  -4    4.15    0.57
 -12  -6  -4    4.07    0.68
 -10   7   4    0.39    0.67
  -9   7   4    7.90    0.73
  -8   7   4    3.81    0.50
  -8   7   4    3.38    0.49
  -7   7   4    2.05    0.39
  -7   7   4    2.15    0.40
  -6   7   4    0.62    0.35
  -6   7   4    1.15    0.35
  -6   7   4    0.98    0.28
  -5   7   4   47.68    1.63
  -5   7   4   45.66    1.69
  -5   7   4   50.91    1.45
  -4   7   4   38.71    1.51
  -4   7   4   39.22    1.40
  -4   7   4   47.75    1.47
  -4   7   4   39.33    1.35
  -4   7   4   39.94    1.23
  -4   7   4   39.78    1.39
   3  -7  -4   17.73    0.71
   3  -7  -4   18.54    0.80
  -3   7   4   18.25    0.81
  -3   7   4   18.33    0.77
  -3   7   4   16.84    0.70
  -3   7   4   19.23    0.72
  -3   7   4   18.66    0.71
  -3   7   4   17.60    0.63
   2  -7  -4    1.42    0.28
   2  -7  -4    1.45    0.19
  -2   7   4    1.58    0.18
  -2   7   4    1.67    0.27
  -2   7   4    1.97    0.18
  -2   7   4    1.71    0.23
   1  -7  -4   47.33    1.58
   1  -7  -4   50.65    1.66
  -1   7   4   48.97    1.66
  -1   7   4   45.13    1.49
  -1   7   4   47.89    1.35
  -1   7   4   48.49    1.52
   0  -7  -4   11.94    0.44
   0  -7  -4   12.88    0.53
   0   7   4   10.74    0.46
   0   7   4   11.85    0.39
   0   7   4   10.34    0.42
   0   7   4   12.91    0.53
  -1  -7  -4   15.37    0.56
  -1  -7  -4   16.70    0.60
   1   7   4   15.69    0.48
   1   7   4   14.31    0.52
   1   7   4   15.42    0.56
   1   7   4   15.90    0.61
   1   7   4   16.35    0.53
  -2  -7  -4    3.60    0.25
  -2  -7  -4    3.66    0.28
  -2  -7  -4    3.98    0.23
   2   7   4    4.26    0.23
   2   7   4    3.72    0.26
   2   7   4    4.07    0.22
   2   7   4    3.68    0.29
  -3  -7  -4   42.07    1.42
  -3  -7  -4   42.17    1.41
   3   7   4   42.61    1.35
   3   7   4   44.36    1.20
   3   7   4   41.62    1.35
   3   7   4   40.81    1.43
   3   7   4   43.88    1.39
   3   7   4   40.19    1.34
   3   7   4   43.15    1.34
  -4  -7  -4    0.69    0.15
   4   7   4    0.39    0.18
   4   7   4    0.76    0.21
   4   7   4    0.13    0.21
   4   7   4    0.46    0.17
   4   7   4    0.73    0.21
  -5  -7  -4   13.29    0.58
   5   7   4   13.65    0.61
   5   7   4   14.33    0.63
   5   7   4   10.47    0.58
   5   7   4   13.78    0.61
   5   7   4   14.17    0.60
  -6  -7  -4   45.01    1.62
   6   7   4   46.99    1.64
   6   7   4   45.71    1.58
   6   7   4   48.43    1.57
   6   7   4   48.60    1.58
  -7  -7  -4    0.16    0.24
   7   7   4    0.21    0.33
   7   7   4    0.27    0.27
  -8  -7  -4    5.56    0.50
   8   7   4    5.64    0.50
   8   7   4    5.58    0.41
  -9  -7  -4   10.58    0.65
   9   7   4   12.00    0.72
 -10  -7  -4    6.50    0.54
  10   7   4    5.81    0.58
 -11  -7  -4    1.52    0.50
  11   7   4    1.84    0.50
 -12  -7  -4    0.53    0.57
 -10   8   4    5.98    0.77
  -9   8   4   11.98    0.77
  -9   8   4   11.83    0.90
  -8   8   4    6.59    0.62
  -8   8   4    7.48    0.58
  -7   8   4    1.15    0.38
  -7   8   4    0.72    0.38
  -6   8   4    1.91    0.37
  -6   8   4    1.73    0.34
  -5   8   4   -0.45    0.31
  -5   8   4    0.02    0.29
  -5   8   4   -0.10    0.25
   4  -8  -4    9.62    0.60
  -4   8   4    8.81    0.53
  -4   8   4    9.24    0.53
  -4   8   4   10.15    0.49
  -4   8   4    8.89    0.56
  -4   8   4    9.39    0.55
   3  -8  -4   -0.06    0.21
   3  -8  -4    0.07    0.29
  -3   8   4    0.16    0.26
  -3   8   4    0.19    0.20
  -3   8   4   -0.11    0.20
  -3   8   4    0.00    0.24
  -3   8   4    0.18    0.24
  -3   8   4    0.17    0.30
   2  -8  -4    5.81    0.37
   2  -8  -4    6.95    0.47
  -2   8   4    6.44    0.44
  -2   8   4    6.68    0.41
  -2   8   4    6.83    0.48
  -2   8   4    6.53    0.37
  -2   8   4    6.40    0.39
  -2   8   4    7.07    0.35
   1  -8  -4    7.77    0.46
   1  -8  -4    7.63    0.36
  -1   8   4    7.42    0.46
  -1   8   4    7.89    0.34
  -1   8   4    7.65    0.33
  -1   8   4    7.27    0.37
   0  -8  -4   82.83    2.67
   0  -8  -4   81.81    2.75
   0   8   4   82.15    2.52
   0   8   4   84.48    2.26
   0   8   4   83.12    2.75
  -1  -8  -4   11.13    0.51
  -1  -8  -4   10.82    0.41
  -1  -8  -4   11.56    0.48
   1   8   4   11.42    0.50
   1   8   4    9.86    0.44
   1   8   4   11.13    0.36
  -2  -8  -4   60.03    1.91
  -2  -8  -4   57.18    1.93
  -2  -8  -4   57.36    1.88
   2   8   4   57.43    1.60
   2   8   4   57.80    1.79
   2   8   4   58.61    1.92
  -3  -8  -4   99.17    2.99
  -3  -8  -4   93.82    3.01
  -3  -8  -4   95.90    3.00
   3   8   4   79.86    2.82
   3   8   4   94.61    2.83
   3   8   4   95.63    3.00
   3   8   4   88.68    2.83
   3   8   4   96.30    2.54
   3   8   4   92.43    2.83
   3   8   4   92.86    3.01
  -4  -8  -4    6.21    0.38
   4   8   4    6.66    0.38
   4   8   4    6.29    0.45
   4   8   4    6.10    0.42
   4   8   4    7.17    0.38
   4   8   4    6.82    0.43
  -5  -8  -4    9.20    0.48
   5   8   4    9.09    0.50
   5   8   4   10.08    0.53
   5   8   4    9.76    0.56
   5   8   4    9.38    0.56
   5   8   4    9.84    0.50
  -6  -8  -4    0.32    0.22
   6   8   4    0.57    0.24
   6   8   4    0.05    0.28
   6   8   4    0.26    0.27
   6   8   4   -0.33    0.24
  -7  -8  -4   15.20    0.71
   7   8   4   16.17    0.73
   7   8   4   13.77    0.69
   7   8   4   14.66    0.73
  -8  -8  -4   12.28    0.67
   8   8   4   11.10    0.68
   8   8   4   13.63    0.71
  -9  -8  -4    3.15    0.36
   9   8   4    2.75    0.42
 -10  -8  -4   -0.21    0.33
  10   8   4    0.14    0.38
 -11  -8  -4    2.01    0.48
  11   8   4    1.61    0.48
 -12  -8  -4    1.46    0.57
  12   8   4    2.31    0.59
 -10   9   4    3.88    0.79
  -9   9   4    1.28    0.61
  -9   9   4    1.03    0.46
  -8   9   4    0.45    0.45
  -8   9   4   -0.04    0.39
  -7   9   4    3.95    0.47
  -7   9   4    4.00    0.46
  -6   9   4    0.15    0.31
  -6   9   4    0.31    0.33
  -5   9   4   -0.23    0.28
  -5   9   4   -0.17    0.24
  -5   9   4    0.12    0.30
  -5   9   4    0.09    0.30
  -4   9   4    0.28    0.26
  -4   9   4    0.30    0.28
  -4   9   4    0.07    0.24
  -4   9   4    0.36    0.23
  -4   9   4    0.43    0.30
   3  -9  -4   64.46    2.32
  -3   9   4   66.89    1.88
  -3   9   4   67.79    2.11
  -3   9   4   63.27    2.22
  -3   9   4   67.84    2.11
  -3   9   4   67.26    2.09
   2  -9  -4   48.24    1.78
  -2   9   4   52.83    1.69
  -2   9   4   49.30    1.79
  -2   9   4   49.10    1.59
  -2   9   4   50.05    1.59
  -2   9   4   51.13    1.44
   1  -9  -4   40.47    1.45
   1  -9  -4   40.12    1.35
  -1   9   4   42.30    1.47
  -1   9   4   38.92    1.28
  -1   9   4   41.01    1.25
  -1   9   4   38.72    1.15
   0  -9  -4    3.37    0.31
   0  -9  -4    3.19    0.23
   0   9   4    3.43    0.31
   0   9   4    2.77    0.23
   0   9   4    3.15    0.20
  -1  -9  -4   13.55    0.47
  -1  -9  -4   13.13    0.62
  -1  -9  -4   14.03    0.57
   1   9   4   13.16    0.42
   1   9   4   12.52    0.58
   1   9   4   11.76    0.50
  -2  -9  -4   54.50    1.79
  -2  -9  -4   50.91    1.82
  -2  -9  -4   55.59    1.74
   2   9   4   55.99    1.81
   2   9   4   52.13    1.66
   2   9   4   54.22    1.49
  -3  -9  -4   16.38    0.57
  -3  -9  -4   15.76    0.68
  -3  -9  -4   15.69    0.59
   3   9   4   15.43    0.61
   3   9   4   15.89    0.52
   3   9   4   17.03    0.60
   3   9   4   16.61    0.61
  -4  -9  -4    0.33    0.18
  -4  -9  -4    0.08    0.25
   4   9   4    0.04    0.14
   4   9   4   -0.14    0.19
   4   9   4   -0.03    0.09
   4   9   4   -0.02    0.16
   4   9   4    0.18    0.17
   4   9   4    0.31    0.25
  -5  -9  -4   -0.13    0.16
   5   9   4    0.23    0.16
   5   9   4   -0.01    0.20
   5   9   4   -0.14    0.22
   5   9   4    0.06    0.22
  -6  -9  -4    0.38    0.20
   6   9   4    0.82    0.24
   6   9   4    0.21    0.26
   6   9   4    0.34    0.28
   6   9   4    0.39    0.25
  -7  -9  -4    5.44    0.42
   7   9   4    6.15    0.52
   7   9   4    5.58    0.47
   7   9   4    5.57    0.48
  -8  -9  -4   14.99    0.71
   8   9   4   14.82    0.74
   8   9   4   17.18    0.78
  -9  -9  -4    4.68    0.40
   9   9   4    4.06    0.46
 -10  -9  -4    3.95    0.43
  10   9   4    2.98    0.45
  11   9   4    1.89    0.53
  -9  10   4    0.06    0.58
  -9  10   4    1.17    0.50
  -8  10   4    3.46    0.48
  -8  10   4    3.21    0.54
  -7  10   4   15.10    0.79
  -7  10   4   15.53    0.87
  -6  10   4   24.74    1.05
  -6  10   4   24.85    1.01
  -5  10   4    3.66    0.40
  -5  10   4    4.18    0.38
  -5  10   4    4.19    0.40
  -5  10   4    3.81    0.33
  -4  10   4    3.14    0.34
  -4  10   4    2.79    0.35
  -4  10   4    3.40    0.30
  -4  10   4    3.83    0.32
  -4  10   4    3.72    0.35
   3 -10  -4    0.45    0.33
  -3  10   4   -0.26    0.20
  -3  10   4   -0.18    0.22
  -3  10   4   -0.12    0.23
  -3  10   4   -0.02    0.25
  -3  10   4    0.12    0.23
   2 -10  -4    2.36    0.36
  -2  10   4    2.30    0.22
  -2  10   4    2.57    0.21
  -2  10   4    2.24    0.24
  -2  10   4    2.80    0.26
  -2  10   4    2.57    0.36
   1 -10  -4   20.76    0.84
  -1  10   4   18.93    0.70
  -1  10   4   19.08    0.84
  -1  10   4   18.88    0.72
  -1  10   4   19.07    0.62
   0 -10  -4    5.52    0.44
   0  10   4    5.11    0.34
   0  10   4    5.03    0.31
   0  10   4    5.09    0.43
   0  10   4    4.54    0.27
  -1 -10  -4    0.64    0.29
  -1 -10  -4    0.26    0.23
   1  10   4    0.07    0.12
   1  10   4    0.36    0.22
   1  10   4    0.12    0.15
  -2 -10  -4    2.17    0.33
  -2 -10  -4    2.47    0.24
   2  10   4    2.85    0.26
   2  10   4    2.39    0.19
   2  10   4    2.46    0.20
  -3 -10  -4   13.12    0.49
  -3 -10  -4   13.25    0.65
   3  10   4   12.53    0.52
   3  10   4   13.51    0.52
   3  10   4   13.23    0.44
   3  10   4   11.97    0.53
  -4 -10  -4   24.07    0.95
   4  10   4   24.63    0.87
   4  10   4   24.25    0.85
   4  10   4   24.28    0.74
   5  10   4   17.63    0.73
   5  10   4   17.29    0.70
   5  10   4   17.61    0.61
   6  10   4    2.42    0.28
   6  10   4    2.81    0.29
   6  10   4    2.33    0.27
   6  10   4    2.32    0.29
   7  10   4    3.60    0.35
   7  10   4    2.98    0.34
   7  10   4    3.54    0.32
   8  10   4    4.72    0.43
   8  10   4    4.76    0.42
   8  10   4    4.81    0.39
   9  10   4   14.74    0.80
   9  10   4   11.68    0.68
  10  10   4    4.15    0.49
  11  10   4    2.73    0.52
  -9  11   4    3.80    0.64
  -9  11   4    4.88    0.72
  -8  11   4    1.19    0.49
  -8  11   4    1.16    0.55
  -7  11   4    7.13    0.61
  -7  11   4    5.84    0.52
  -6  11   4    3.53    0.42
  -6  11   4    3.85    0.42
  -5  11   4    3.05    0.31
  -5  11   4    3.25    0.38
  -5  11   4    3.25    0.37
  -5  11   4    2.22    0.35
  -4  11   4    0.83    0.24
  -4  11   4    0.68    0.26
  -4  11   4    0.91    0.28
  -4  11   4    1.02    0.27
  -4  11   4    0.81    0.29
  -3  11   4    0.15    0.22
  -3  11   4    0.22    0.21
  -3  11   4    0.29    0.24
  -3  11   4    0.00    0.22
  -3  11   4    0.10    0.19
   2 -11  -4    1.07    0.34
  -2  11   4    0.46    0.19
  -2  11   4    0.61    0.21
   1 -11  -4    2.26    0.36
  -1  11   4    2.28    0.35
  -1  11   4    1.86    0.21
  -1  11   4    2.15    0.20
   0 -11  -4    6.26    0.48
   0 -11  -4    6.11    0.48
   0  11   4    6.04    0.29
   0  11   4    5.49    0.36
   0  11   4    6.57    0.48
  -1 -11  -4   42.38    1.53
  -1 -11  -4   44.77    1.51
   1  11   4   43.64    1.52
   1  11   4   41.54    1.19
   1  11   4   41.43    1.34
  -2 -11  -4   37.01    1.25
  -2 -11  -4   35.57    1.34
   2  11   4   35.12    1.14
   2  11   4   35.46    1.01
   2  11   4   35.69    1.27
  -3 -11  -4   27.60    1.05
   3  11   4   25.37    0.90
   3  11   4   27.37    0.79
   3  11   4   27.00    0.89
  -4 -11  -4    4.89    0.44
   4  11   4    5.26    0.40
   4  11   4    5.84    0.38
   4  11   4    4.86    0.27
   5  11   4   19.73    0.77
   5  11   4   21.58    0.80
   6  11   4   14.72    0.66
   6  11   4   15.71    0.70
   7  11   4    0.23    0.22
   7  11   4    0.04    0.21
   7  11   4    0.26    0.25
   7  11   4    0.18    0.26
   8  11   4    0.51    0.30
   8  11   4    0.69    0.27
   8  11   4   -0.07    0.27
   9  11   4    0.39    0.31
   9  11   4   -0.53    0.33
  10  11   4    0.20    0.37
  11  11   4   -0.14    0.45
  -8  12   4   -0.06    0.49
  -7  12   4    0.03    0.40
  -6  12   4    1.17    0.36
  -5  12   4    3.76    0.35
  -5  12   4    3.79    0.37
  -5  12   4    2.97    0.33
  -4  12   4    8.56    0.46
  -4  12   4    8.34    0.50
  -4  12   4    9.45    0.44
  -3  12   4   22.78    0.78
  -3  12   4   23.64    0.89
  -2  12   4    5.78    0.42
  -2  12   4    5.38    0.35
   1 -12  -4    0.48    0.32
  -1  12   4    0.85    0.17
  -1  12   4    0.90    0.19
   0 -12  -4   15.10    0.75
   0 -12  -4   15.52    0.73
   0  12   4   15.10    0.50
   0  12   4   15.94    0.75
   0  12   4   14.65    0.57
  -1 -12  -4   14.80    0.76
  -1 -12  -4   14.91    0.68
   1  12   4   14.50    0.55
   1  12   4   15.59    0.69
   1  12   4   14.45    0.47
  -2 -12  -4    4.76    0.44
   2  12   4    3.64    0.32
   2  12   4    3.61    0.22
  -3 -12  -4    0.27    0.32
   3  12   4    0.53    0.16
   3  12   4    0.48    0.15
   3  12   4    0.57    0.14
  -4 -12  -4    0.20    0.32
   4  12   4   -0.01    0.13
   4  12   4    0.02    0.16
   4  12   4    0.39    0.18
  -5 -12  -4    1.18    0.35
   5  12   4    1.50    0.21
   5  12   4    1.43    0.23
   6  12   4   -0.04    0.22
   6  12   4   -0.12    0.23
   7  12   4    1.61    0.29
   7  12   4    1.39    0.30
   8  12   4    3.60    0.30
   8  12   4    3.38    0.28
   8  12   4    3.25    0.38
   9  12   4    2.13    0.33
   9  12   4    2.09    0.41
   9  12   4    1.60    0.27
  10  12   4    0.88    0.32
  -7  13   4    4.90    0.54
  -6  13   4    8.45    0.51
  -6  13   4    7.68    0.55
  -5  13   4    8.66    0.45
  -5  13   4    7.91    0.56
  -5  13   4    8.24    0.47
  -4  13   4   13.81    0.62
  -3  13   4   27.53    0.99
  -3  13   4   26.87    0.89
  -2  13   4    1.22    0.21
  -2  13   4    1.24    0.23
   1 -13  -4    8.00    0.56
  -1  13   4    5.87    0.32
  -1  13   4    5.82    0.40
   0 -13  -4    2.33    0.35
   0  13   4    1.82    0.19
   0  13   4    1.87    0.17
   1  13   4    0.21    0.13
   1  13   4    0.25    0.14
   2  13   4    0.57    0.13
   3  13   4   11.01    0.38
   3  13   4   10.40    0.43
   3  13   4   10.19    0.46
   4  13   4    4.78    0.35
   4  13   4    4.85    0.26
   4  13   4    5.52    0.38
   5  13   4   14.68    0.63
   5  13   4   13.70    0.61
   6  13   4   15.43    0.69
   6  13   4   15.43    0.70
   7  13   4    5.13    0.38
   7  13   4    4.76    0.38
   8  13   4    8.18    0.69
   9  13   4    2.49    0.44
  10  13   4    0.16    0.24
  -7  14   4   12.48    0.67
  -6  14   4    6.33    0.44
  -6  14   4    5.48    0.39
  -6  14   4    6.44    0.43
  -5  14   4    0.20    0.30
  -4  14   4    1.23    0.29
  -3  14   4    0.97    0.25
  -3  14   4    1.41    0.26
  -2  14   4    0.48    0.23
  -2  14   4    0.43    0.21
  -1  14   4    8.72    0.46
  -1  14   4    8.62    0.39
   0  14   4   18.67    0.60
   0  14   4   19.12    0.68
   1  14   4    0.26    0.14
   3  14   4   13.81    0.46
   4  14   4   14.50    0.48
   4  14   4   13.69    0.56
   4  14   4   14.55    0.58
   5  14   4   12.26    0.55
   5  14   4   11.76    0.58
   6  14   4    0.01    0.23
   6  14   4    0.08    0.26
   7  14   4    0.89    0.31
   7  14   4    0.37    0.28
   8  14   4    4.35    0.44
   9  14   4    0.03    0.41
  -5  15   4    2.88    0.38
  -4  15   4    0.61    0.29
  -3  15   4    5.46    0.38
  -3  15   4    5.38    0.37
  -2  15   4    8.45    0.50
  -2  15   4    7.28    0.43
  -1  15   4   29.80    0.98
  -1  15   4   26.78    0.87
   0  15   4   21.76    0.71
   0  15   4   24.05    0.80
   1  15   4   13.22    0.45
   3  15   4    2.35    0.18
   4  15   4    0.24    0.19
   5  15   4    0.01    0.23
   5  15   4    0.09    0.23
   6  15   4    1.15    0.28
   6  15   4    0.59    0.27
   7  15   4    2.28    0.35
   7  15   4    1.90    0.34
   8  15   4    2.33    0.40
  -4  16   4   15.17    0.72
  -3  16   4    2.37    0.34
  -3  16   4    2.22    0.31
  -2  16   4    1.40    0.29
  -2  16   4    1.43    0.27
  -1  16   4    0.96    0.25
  -1  16   4    0.91    0.23
   0  16   4    0.84    0.20
   0  16   4    0.40    0.22
   1  16   4    0.14    0.17
   3  16   4    2.46    0.19
   5  16   4    1.83    0.25
   5  16   4    2.64    0.29
   6  16   4   16.39    0.73
   6  16   4   13.59    0.66
   7  16   4    5.21    0.42
   7  16   4    5.98    0.45
   8  16   4    2.62    0.43
  -3  17   4   -0.04    0.34
  -3  17   4    0.07    0.30
  -2  17   4    0.51    0.28
  -2  17   4    0.11    0.30
  -1  17   4    0.35    0.24
  -1  17   4    0.70    0.27
   0  17   4    6.33    0.36
   6  17   4    2.52    0.31
   6  17   4    2.96    0.35
  -1  18   4    4.36    0.36
   4  15  -5    2.65    0.28
   3  15  -5    0.19    0.22
   2  15  -5    1.76    0.24
   1  15  -5    2.54    0.26
   0  15  -5    1.72    0.27
  -1  15  -5    0.05    0.26
  -1  15  -5   -0.36    0.37
   6  14  -5    1.83    0.38
   6  14  -5    1.40    0.31
   6  14  -5    1.70    0.38
   5  14  -5    2.07    0.28
   5  14  -5    1.84    0.35
   5  14  -5    0.91    0.35
   4  14  -5    2.56    0.27
   3  14  -5    0.05    0.20
   2  14  -5    0.09    0.20
   1  14  -5    0.31    0.21
   0  14  -5    0.49    0.22
   0  14  -5    0.18    0.31
  -1  14  -5    1.57    0.26
  -1  14  -5    2.10    0.37
  -2  14  -5    3.99    0.38
  -2  14  -5    3.42    0.46
  -3  14  -5    1.78    0.33
  -3  14  -5    1.40    0.46
   7  13  -5    0.46    0.39
   7  13  -5    1.14    0.41
   6  13  -5   -0.64    0.34
   6  13  -5    0.25    0.35
   6  13  -5    0.15    0.27
   5  13  -5   -0.12    0.31
   5  13  -5    0.43    0.31
   5  13  -5    0.60    0.24
   4  13  -5    0.31    0.28
   4  13  -5    0.37    0.21
   3  13  -5    1.95    0.22
   3  13  -5    2.50    0.28
   2  13  -5    2.68    0.29
   2  13  -5    2.66    0.22
   1  13  -5    2.58    0.30
   1  13  -5    2.71    0.23
   0  13  -5    2.72    0.24
   0  13  -5    3.21    0.33
  -1  13  -5    2.38    0.36
  -1  13  -5    2.48    0.25
  -2  13  -5    2.39    0.32
  -2  13  -5    2.71    0.40
  -2  13  -5    2.92    0.27
  -3  13  -5    2.93    0.46
  -4  13  -5    4.42    0.41
  -4  13  -5    5.25    0.55
   8  12  -5    1.60    0.45
   7  12  -5    4.71    0.46
   6  12  -5   10.60    0.69
   6  12  -5   10.51    0.55
   6  12  -5   10.74    0.66
   5  12  -5   -0.06    0.20
   5  12  -5    0.05    0.29
   4  12  -5    2.72    0.30
   4  12  -5    2.66    0.24
   3  12  -5    5.80    0.32
   3  12  -5    6.01    0.43
   2  12  -5    5.06    0.29
   2  12  -5    4.77    0.41
   1  12  -5    3.59    0.27
   1  12  -5    3.58    0.31
   0  12  -5    1.27    0.28
   0  12  -5    0.78    0.18
  -1  12  -5    2.46    0.33
  -1  12  -5    2.27    0.26
  -1  12  -5    2.13    0.22
  -2  12  -5    0.35    0.25
  -2  12  -5    0.08    0.33
  -3  12  -5   -0.24    0.36
  -3  12  -5   -0.04    0.26
  -4  12  -5    1.01    0.43
  -4  12  -5    1.64    0.31
  -5  12  -5    4.45    0.55
   9  11  -5    5.20    0.55
   8  11  -5    2.77    0.45
   7  11  -5    5.39    0.46
   6  11  -5    7.31    0.57
   6  11  -5    6.14    0.44
   6  11  -5    6.68    0.45
   5  11  -5   12.09    0.50
   5  11  -5   11.66    0.61
   4  11  -5    3.69    0.31
   4  11  -5    3.90    0.26
   3  11  -5    1.51    0.19
   3  11  -5    1.69    0.25
   2  11  -5    0.29    0.16
   2  11  -5    0.37    0.22
   1  11  -5    1.55    0.24
   1  11  -5    1.37    0.18
   0  11  -5    0.03    0.23
   0  11  -5   -0.01    0.16
  -1  11  -5    0.37    0.17
  -1  11  -5    1.12    0.22
  -1  11  -5    0.68    0.27
  -2  11  -5    1.85    0.26
  -2  11  -5    1.55    0.32
  -3  11  -5    1.07    0.27
  -3  11  -5    1.75    0.36
  -4  11  -5    8.01    0.71
  -5  11  -5   25.67    1.11
  -5  11  -5   24.25    0.88
  -5  11  -5   22.10    0.82
  -6  11  -5    5.53    0.45
  -6  11  -5    4.50    0.40
   9  10  -5    1.77    0.47
   8  10  -5    0.65    0.40
   7  10  -5    0.58    0.34
   6  10  -5    0.16    0.29
   6  10  -5    1.07    0.30
   6  10  -5    0.78    0.24
   5  10  -5    0.24    0.25
   5  10  -5    0.31    0.19
   4  10  -5    6.18    0.43
   4  10  -5    5.79    0.34
   3  10  -5    0.27    0.21
   3  10  -5    0.71    0.17
   2  10  -5    7.69    0.32
   2  10  -5    6.91    0.41
   1  10  -5    9.97    0.38
   1  10  -5   10.26    0.48
  -1 -10   5   10.16    0.59
   0  10  -5    5.80    0.30
   0  10  -5    6.83    0.44
   0 -10   5    6.94    0.52
  -1  10  -5    0.44    0.17
  -1  10  -5    0.50    0.20
  -1  10  -5    0.12    0.23
  -2  10  -5    1.67    0.29
  -2  10  -5    1.22    0.24
  -3  10  -5    1.88    0.28
  -3  10  -5    1.63    0.33
  -4  10  -5    2.62    0.38
  -4  10  -5    2.63    0.26
  -4  10  -5    2.45    0.26
  -5  10  -5    4.53    0.39
  -5  10  -5    3.97    0.37
  -5  10  -5    4.63    0.48
  -5  10  -5    4.07    0.35
  -6  10  -5    0.87    0.37
  -7  10  -5    0.81    0.45
  10   9  -5    0.16    0.37
   9   9  -5    0.56    0.28
   9   9  -5    0.62    0.43
   9   9  -5    0.24    0.33
   8   9  -5    0.21    0.22
   8   9  -5   -0.70    0.35
   8   9  -5    0.17    0.26
   7   9  -5    4.13    0.39
   7   9  -5    3.78    0.27
   6   9  -5    9.57    0.50
   6   9  -5    9.14    0.57
   6   9  -5   10.44    0.62
   5   9  -5   10.90    0.46
   5   9  -5   10.51    0.55
   4   9  -5   12.18    0.55
   4   9  -5   12.17    0.47
   3   9  -5   19.92    0.72
   3   9  -5   19.46    0.63
   2   9  -5    8.22    0.35
   2   9  -5    8.29    0.44
  -2  -9   5    9.09    0.52
   1   9  -5   -0.25    0.19
   1   9  -5    0.10    0.15
  -1  -9   5   -0.50    0.24
  -1  -9   5    0.23    0.34
   0   9  -5    8.70    0.46
   0   9  -5    8.02    0.35
   0  -9   5    8.83    0.56
   0  -9   5    9.33    0.58
  -1   9  -5    0.27    0.20
  -1   9  -5    0.48    0.23
   1  -9   5    0.22    0.29
  -2   9  -5    8.42    0.53
  -2   9  -5    8.46    0.50
  -3   9  -5    1.28    0.21
  -3   9  -5    1.32    0.29
  -3   9  -5    1.31    0.25
  -3   9  -5    1.33    0.22
  -4   9  -5    0.22    0.26
  -4   9  -5    0.16    0.26
  -4   9  -5    0.37    0.30
  -5   9  -5    3.29    0.40
  -5   9  -5    2.70    0.30
  -5   9  -5    3.29    0.39
  -5   9  -5    3.44    0.38
  -5   9  -5    3.50    0.38
  -6   9  -5    9.91    0.66
  -6   9  -5    8.02    0.58
  -7   9  -5    6.86    0.60
  -7   9  -5    6.86    0.63
  -8   9  -5    2.80    0.55
  -8   9  -5    3.76    0.61
  10   8  -5    3.32    0.48
   9   8  -5    3.14    0.40
   8   8  -5   11.41    0.63
   8   8  -5   12.26    0.73
   8   8  -5    9.68    0.56
   7   8  -5   14.08    0.63
   7   8  -5   12.82    0.59
   7   8  -5   13.51    0.71
   6   8  -5    7.47    0.47
   6   8  -5    7.35    0.55
   6   8  -5    7.60    0.39
   6   8  -5    7.80    0.42
   5   8  -5    0.43    0.21
   5   8  -5    0.65    0.24
   4   8  -5    2.95    0.27
   4   8  -5    2.98    0.24
   3   8  -5    6.33    0.34
   3   8  -5    6.88    0.42
  -3  -8   5    7.31    0.44
  -3  -8   5    6.64    0.52
   2   8  -5    1.77    0.18
   2   8  -5    1.66    0.22
  -2  -8   5    1.45    0.28
  -2  -8   5    1.40    0.35
   1   8  -5    0.17    0.15
   1   8  -5    0.30    0.19
  -1  -8   5    0.16    0.25
  -1  -8   5    0.25    0.29
   0   8  -5   28.73    0.86
   0   8  -5   28.99    1.00
   0  -8   5   28.15    1.13
   0  -8   5   31.21    1.16
  -1   8  -5    2.45    0.26
  -1   8  -5    1.78    0.23
  -1   8  -5    2.01    0.25
   1  -8   5    1.67    0.33
   1  -8   5    2.29    0.34
  -2   8  -5    3.99    0.32
  -2   8  -5    4.09    0.32
  -2   8  -5    3.57    0.27
  -2   8  -5    3.48    0.29
  -3   8  -5    5.47    0.48
  -3   8  -5    6.49    0.42
  -3   8  -5    5.98    0.46
  -3   8  -5    5.63    0.39
  -3   8  -5    5.34    0.39
  -4   8  -5    0.81    0.28
  -4   8  -5    0.42    0.28
  -4   8  -5    0.53    0.28
  -4   8  -5    0.32    0.29
  -5   8  -5    9.35    0.64
  -5   8  -5    9.22    0.48
  -5   8  -5    9.02    0.58
  -5   8  -5    8.91    0.59
  -5   8  -5    8.59    0.55
  -6   8  -5    7.07    0.56
  -6   8  -5    8.21    0.61
  -7   8  -5    3.62    0.51
  -7   8  -5    2.98    0.44
  -8   8  -5    3.44    0.55
  -8   8  -5    3.53    0.61
  -9   8  -5    1.59    0.66
  -9   8  -5    1.90    0.59
  11   7  -5    2.80    0.55
  10   7  -5    1.20    0.44
   9   7  -5    1.68    0.37
   8   7  -5    7.92    0.54
   8   7  -5    9.15    0.63
   7   7  -5    3.02    0.38
   7   7  -5    2.46    0.34
   7   7  -5    2.39    0.33
   6   7  -5    1.94    0.28
   6   7  -5    1.26    0.28
   6   7  -5    2.08    0.31
   6   7  -5    1.86    0.26
   6   7  -5    1.75    0.26
  -6  -7   5    1.13    0.28
   5   7  -5    0.87    0.25
   5   7  -5    0.88    0.25
   5   7  -5    0.95    0.23
   5   7  -5    0.83    0.21
   5   7  -5    0.72    0.22
   4   7  -5    0.53    0.19
   4   7  -5    0.06    0.21
   4   7  -5   -0.05    0.19
   4   7  -5    0.14    0.14
  -4  -7   5    0.25    0.23
  -4  -7   5   -0.24    0.31
   3   7  -5   19.43    0.73
   3   7  -5   20.38    0.74
   3   7  -5   19.87    0.64
  -3  -7   5   19.51    0.85
  -3  -7   5   19.35    0.78
   2   7  -5   14.00    0.56
   2   7  -5   13.56    0.48
   2   7  -5   14.27    0.56
  -2  -7   5   13.98    0.68
   1   7  -5   25.63    0.88
   1   7  -5   25.41    0.77
   1   7  -5   26.32    0.92
  -1  -7   5   26.64    1.02
  -1  -7   5   25.52    1.02
   0   7  -5   21.38    0.68
   0   7  -5   22.44    0.81
   0   7  -5   22.86    0.83
   0  -7   5   22.90    0.92
   0  -7   5   23.02    0.93
  -1   7  -5    0.10    0.19
  -1   7  -5    0.03    0.15
  -1   7  -5    0.37    0.23
  -1   7  -5   -0.01    0.18
   1  -7   5    0.36    0.30
   1  -7   5   -0.10    0.27
  -2   7  -5   14.15    0.62
  -2   7  -5   13.36    0.63
  -2   7  -5   13.85    0.63
  -2   7  -5   13.85    0.57
   2  -7   5   14.64    0.72
  -3   7  -5   -0.10    0.27
  -3   7  -5    0.13    0.26
  -3   7  -5    0.01    0.23
  -3   7  -5    0.18    0.23
  -3   7  -5    0.31    0.27
  -4   7  -5    8.58    0.55
  -4   7  -5    9.84    0.56
  -4   7  -5    8.81    0.54
  -4   7  -5    8.75    0.59
  -4   7  -5    7.79    0.52
  -5   7  -5    8.24    0.54
  -5   7  -5    9.40    0.58
  -5   7  -5    9.35    0.62
  -6   7  -5    6.59    0.56
  -6   7  -5    7.50    0.60
  -6   7  -5    9.01    0.67
  -7   7  -5   -0.09    0.35
  -7   7  -5    0.10    0.40
  -8   7  -5    0.71    0.42
  -8   7  -5    0.68    0.51
  -9   7  -5    3.31    0.68
  -9   7  -5    3.80    0.59
  11   6  -5   -0.21    0.47
 -11  -6   5    0.13    0.51
  10   6  -5    0.80    0.40
 -10  -6   5    1.15    0.43
   9   6  -5   -0.33    0.32
  -9  -6   5   -0.21    0.33
   8   6  -5    5.22    0.42
   8   6  -5    5.24    0.47
   7   6  -5    0.91    0.29
   7   6  -5    0.73    0.31
   7   6  -5    0.96    0.34
  -7  -6   5    0.80    0.30
   6   6  -5   29.49    1.04
   6   6  -5   27.87    1.05
   6   6  -5   28.17    1.04
   6   6  -5   27.72    0.91
   6   6  -5   27.05    1.01
  -6  -6   5   25.83    1.07
   5   6  -5    5.38    0.37
   5   6  -5    4.44    0.40
   5   6  -5    4.62    0.33
   5   6  -5    4.42    0.39
   5   6  -5    4.40    0.36
   4   6  -5   28.87    1.04
   4   6  -5   29.62    0.99
   4   6  -5   28.13    0.99
   4   6  -5   27.77    0.89
  -4  -6   5   29.43    1.04
   3   6  -5   50.42    1.64
   3   6  -5   48.32    1.39
   3   6  -5   48.57    1.55
   3   6  -5   49.08    1.53
  -3  -6   5   47.82    1.70
  -3  -6   5   48.83    1.67
   2   6  -5   19.15    0.70
   2   6  -5   18.90    0.59
   2   6  -5   17.95    0.68
  -2  -6   5   18.39    0.78
   1   6  -5   29.19    0.95
   1   6  -5   28.89    1.00
   1   6  -5   27.38    0.83
  -1  -6   5   28.44    1.07
   0   6  -5    9.04    0.43
   0   6  -5    8.74    0.34
   0   6  -5    7.92    0.47
   0   6  -5    9.07    0.35
   0  -6   5    8.96    0.52
   0  -6   5    9.10    0.48
  -1   6  -5   11.80    0.43
  -1   6  -5   11.82    0.53
  -1   6  -5   11.75    0.48
  -1   6  -5   12.74    0.56
  -1   6  -5   11.52    0.54
   1  -6   5   12.07    0.59
   1  -6   5   12.62    0.64
  -2   6  -5    0.29    0.21
  -2   6  -5   -0.02    0.19
  -2   6  -5    0.24    0.22
  -2   6  -5   -0.13    0.23
  -2   6  -5   -0.03    0.24
   2  -6   5   -0.06    0.28
  -3   6  -5    0.03    0.23
  -3   6  -5   -0.01    0.23
  -3   6  -5    0.19    0.26
  -3   6  -5    0.27    0.26
  -3   6  -5    0.03    0.26
   3  -6   5   -0.45    0.31
  -4   6  -5    1.05    0.32
  -4   6  -5    1.24    0.31
  -4   6  -5    0.82    0.26
  -4   6  -5    1.00    0.30
  -4   6  -5    1.64    0.31
  -5   6  -5    1.36    0.33
  -5   6  -5    1.45    0.29
  -5   6  -5    1.41    0.34
  -6   6  -5    0.29    0.33
  -6   6  -5   -0.16    0.31
  -6   6  -5    0.56    0.32
  -7   6  -5    3.23    0.44
  -7   6  -5    4.12    0.47
  -8   6  -5    8.04    0.66
  -8   6  -5    7.19    0.66
  -9   6  -5    4.23    0.68
  -9   6  -5    4.74    0.58
 -10   6  -5    3.03    0.76
  11   5  -5    0.12    0.45
 -11  -5   5   -0.01    0.52
  10   5  -5    1.45    0.43
 -10  -5   5    1.66    0.47
   9   5  -5    9.14    0.63
   8   5  -5    7.44    0.58
   8   5  -5    7.00    0.54
   7   5  -5    8.56    0.54
   7   5  -5    7.93    0.54
   7   5  -5    9.61    0.60
  -7  -5   5    8.48    0.61
   6   5  -5   18.31    0.77
   6   5  -5   19.08    0.70
   6   5  -5   18.44    0.77
   6   5  -5   17.19    0.76
   6   5  -5   17.95    0.75
  -6  -5   5   14.48    0.81
   5   5  -5   24.26    0.90
   5   5  -5   22.86    0.79
   5   5  -5   24.05    0.89
   5   5  -5   23.51    0.90
   5   5  -5   23.62    0.90
  -5  -5   5   23.71    0.89
   4   5  -5   49.61    1.72
   4   5  -5   50.27    1.64
   4   5  -5   50.38    1.46
   4   5  -5   51.27    1.64
   4   5  -5   51.98    1.63
  -4  -5   5   51.29    1.72
   3   5  -5    0.74    0.26
   3   5  -5    0.78    0.18
   3   5  -5    0.37    0.19
   3   5  -5    0.26    0.17
   3   5  -5    0.52    0.21
   3   5  -5    0.48    0.20
  -3  -5   5    0.68    0.28
  -3  -5   5    0.34    0.21
   2   5  -5    9.88    0.41
   2   5  -5   10.66    0.53
   2   5  -5   10.67    0.46
   2   5  -5    9.64    0.45
   2   5  -5    9.53    0.37
  -2  -5   5   10.81    0.48
  -2  -5   5    9.54    0.51
   1   5  -5    7.50    0.31
   1   5  -5    7.23    0.40
   1   5  -5    7.19    0.38
   1   5  -5    7.08    0.33
  -1  -5   5    7.48    0.41
   0   5  -5    0.29    0.16
   0   5  -5    0.07    0.17
   0   5  -5    0.04    0.11
   0   5  -5    0.27    0.16
   0   5  -5    0.14    0.13
   0  -5   5    0.38    0.24
  -1   5  -5    1.58    0.21
  -1   5  -5    1.90    0.22
  -1   5  -5    2.14    0.23
  -1   5  -5    1.93    0.17
  -1   5  -5    1.87    0.19
   1  -5   5    1.57    0.28
   1  -5   5    1.69    0.28
  -2   5  -5   10.31    0.53
  -2   5  -5   11.32    0.50
  -2   5  -5   10.78    0.55
  -2   5  -5   10.87    0.51
  -2   5  -5   10.13    0.50
   2  -5   5   10.18    0.59
  -3   5  -5   24.55    0.87
  -3   5  -5   23.22    0.89
  -3   5  -5   24.48    0.88
  -3   5  -5   24.18    0.89
  -3   5  -5   22.27    0.90
   3  -5   5   22.26    0.98
  -4   5  -5   17.16    0.81
  -4   5  -5   20.15    0.84
  -4   5  -5   21.74    0.83
  -4   5  -5   21.18    0.84
  -4   5  -5   22.14    0.86
  -5   5  -5    1.99    0.34
  -5   5  -5    2.04    0.37
  -5   5  -5    1.84    0.32
  -6   5  -5   18.24    0.83
  -6   5  -5   19.01    0.83
  -7   5  -5   10.79    0.66
  -7   5  -5   10.93    0.73
  -8   5  -5   14.76    0.83
  -8   5  -5   14.84    0.92
  -9   5  -5    3.42    0.63
  -9   5  -5    2.99    0.52
 -10   5  -5    0.21    0.68
  11   4  -5    3.67    0.59
 -11  -4   5    4.64    0.65
  10   4  -5    5.52    0.58
 -10  -4   5    6.18    0.61
   9   4  -5    2.00    0.45
  -9  -4   5    2.07    0.37
   8   4  -5    0.41    0.36
  -8  -4   5    0.01    0.29
   7   4  -5   12.49    0.63
   7   4  -5   13.80    0.70
   7   4  -5   12.26    0.67
  -7  -4   5   12.08    0.67
   6   4  -5    2.02    0.34
   6   4  -5    1.50    0.29
   6   4  -5    1.05    0.28
   6   4  -5    1.12    0.30
   6   4  -5    1.56    0.33
   6   4  -5    1.34    0.26
   6   4  -5    1.69    0.23
  -6  -4   5    0.74    0.34
  -6  -4   5    2.10    0.30
   5   4  -5    2.35    0.28
   5   4  -5    2.53    0.24
   5   4  -5    2.59    0.28
   5   4  -5    2.43    0.25
   5   4  -5    3.17    0.34
  -5  -4   5    2.01    0.27
   4   4  -5    7.61    0.45
   4   4  -5    7.12    0.39
   4   4  -5    7.88    0.43
   4   4  -5    7.89    0.48
   4   4  -5    8.10    0.45
  -4  -4   5    6.93    0.41
   3   4  -5   14.17    0.58
   3   4  -5   14.64    0.50
   3   4  -5   14.60    0.58
   3   4  -5   14.71    0.58
   3   4  -5   15.76    0.64
  -3  -4   5   14.05    0.59
   2   4  -5   19.49    0.75
   2   4  -5   18.69    0.67
   2   4  -5   19.65    0.67
   2   4  -5   18.27    0.59
   2   4  -5   19.10    0.70
  -2  -4   5   18.66    0.72
  -2  -4   5   18.22    0.72
   1   4  -5  118.19    3.57
   1   4  -5  117.92    3.80
   1   4  -5  113.23    3.78
   1   4  -5  119.38    3.21
   1   4  -5  123.07    3.60
  -1  -4   5  116.11    3.79
   0   4  -5  152.79    4.46
   0   4  -5  145.16    4.43
   0   4  -5  143.96    3.98
   0  -4   5  145.81    4.69
  -1   4  -5   41.15    1.28
  -1   4  -5   39.11    1.11
  -1   4  -5   39.44    1.25
  -1   4  -5   38.27    1.33
  -1   4  -5   38.79    1.27
   1  -4   5   38.03    1.34
  -2   4  -5    9.95    0.51
  -2   4  -5    9.89    0.48
  -2   4  -5    9.71    0.49
  -2   4  -5    9.68    0.48
  -2   4  -5    9.83    0.46
   2  -4   5   10.57    0.54
  -3   4  -5   10.96    0.55
  -3   4  -5   11.10    0.55
  -3   4  -5   10.93    0.55
  -3   4  -5   11.47    0.54
  -3   4  -5   11.50    0.58
   3  -4   5   10.21    0.58
  -4   4  -5    8.03    0.54
  -4   4  -5    7.48    0.50
  -4   4  -5    8.41    0.58
  -4   4  -5    7.21    0.53
  -4   4  -5    8.47    0.53
  -5   4  -5    1.82    0.33
  -5   4  -5    1.99    0.31
  -5   4  -5    1.53    0.35
   5  -4   5    1.00    0.38
  -6   4  -5    4.31    0.45
  -6   4  -5    4.91    0.44
  -7   4  -5    3.86    0.44
  -7   4  -5    4.11    0.46
  -8   4  -5    0.39    0.45
  -8   4  -5   -0.18    0.35
  -9   4  -5    3.13    0.57
 -10   4  -5    3.26    0.67
 -12  -3   5    2.82    0.74
 -11  -3   5    1.19    0.55
  10   3  -5    1.91    0.48
 -10  -3   5    2.22    0.53
   9   3  -5    2.17    0.46
  -9  -3   5    1.83    0.38
   8   3  -5    0.07    0.37
  -8  -3   5    0.19    0.30
   7   3  -5    0.63    0.24
   7   3  -5    0.31    0.28
   7   3  -5    0.40    0.38
   7   3  -5   -0.07    0.28
  -7  -3   5   -0.53    0.29
   6   3  -5    9.97    0.58
   6   3  -5    9.19    0.53
   6   3  -5    9.50    0.48
   6   3  -5    9.45    0.60
   6   3  -5    9.87    0.59
   6   3  -5    8.73    0.53
  -6  -3   5   10.36    0.54
  -6  -3   5   11.18    0.66
   5   3  -5   15.24    0.56
   5   3  -5   12.48    0.61
   5   3  -5   13.69    0.62
   5   3  -5   13.41    0.61
   5   3  -5   13.75    0.57
   5   3  -5   14.03    0.67
  -5  -3   5   13.42    0.60
   4   3  -5   46.23    1.50
   4   3  -5   44.87    1.56
   4   3  -5   46.38    1.46
   4   3  -5   45.06    1.50
   4   3  -5   45.64    1.55
   4   3  -5   44.65    1.31
  -4  -3   5   44.69    1.54
   3   3  -5   27.50    0.94
   3   3  -5   27.19    0.98
   3   3  -5   26.18    0.82
   3   3  -5   26.31    0.91
   3   3  -5   27.97    0.94
   3   3  -5   26.83    0.96
  -3  -3   5   27.59    0.96
   2   3  -5   83.94    2.76
   2   3  -5   82.54    2.60
   2   3  -5   87.00    2.64
   2   3  -5   85.80    2.77
   2   3  -5   87.87    2.63
   2   3  -5   85.32    2.34
  -2  -3   5   85.04    2.79
  -2  -3   5   83.55    2.76
   1   3  -5   35.53    1.16
   1   3  -5   36.05    1.15
   1   3  -5   35.15    1.22
   1   3  -5   36.03    1.21
   1   3  -5   36.64    1.02
   1   3  -5   34.49    1.14
  -1  -3   5   35.71    1.22
   0   3  -5  121.94    3.95
   0   3  -5  121.75    3.71
   0   3  -5  123.08    3.74
   0   3  -5  123.82    3.74
   0   3  -5  123.99    3.33
   0  -3   5  121.14    3.91
  -1   3  -5   39.41    1.35
  -1   3  -5   40.00    1.27
  -1   3  -5   40.93    1.30
  -1   3  -5   39.98    1.13
  -1   3  -5   40.03    1.31
  -1   3  -5   38.94    1.28
  -2   3  -5    6.47    0.39
  -2   3  -5    6.77    0.40
  -2   3  -5    7.01    0.42
  -2   3  -5    6.50    0.39
  -2   3  -5    6.15    0.39
   2  -3   5    6.21    0.42
  -3   3  -5    0.43    0.20
  -3   3  -5    0.47    0.22
  -3   3  -5    0.27    0.21
  -3   3  -5    0.48    0.19
  -3   3  -5    0.26    0.22
   3  -3   5    0.29    0.15
  -4   3  -5    5.11    0.44
  -4   3  -5    4.30    0.41
  -4   3  -5    4.65    0.39
  -4   3  -5    4.42    0.39
  -4   3  -5    5.02    0.40
  -4   3  -5    4.74    0.35
   4  -3   5    3.96    0.41
  -5   3  -5    0.36    0.30
  -5   3  -5   -0.01    0.31
  -5   3  -5   -0.03    0.27
   5  -3   5   -0.26    0.32
  -6   3  -5    6.26    0.53
  -6   3  -5    6.87    0.54
  -7   3  -5   15.82    0.79
  -7   3  -5   15.26    0.78
  -8   3  -5   30.70    1.24
  -8   3  -5   30.14    1.27
  -9   3  -5    6.94    0.68
 -10   3  -5    4.12    0.72
 -11   3  -5   12.63    1.16
 -12  -2   5    3.06    0.75
 -11  -2   5    0.42    0.60
 -10  -2   5    2.38    0.52
   9   2  -5    5.29    0.55
  -9  -2   5    5.39    0.51
   8   2  -5    3.50    0.47
  -8  -2   5    3.51    0.42
   7   2  -5   31.89    1.15
   7   2  -5   32.17    1.16
   7   2  -5   30.00    1.19
   7   2  -5   31.65    1.22
  -7  -2   5   32.74    1.19
  -7  -2   5   28.68    1.24
   6   2  -5    7.58    0.52
   6   2  -5    6.29    0.52
   6   2  -5    7.47    0.53
   6   2  -5    7.81    0.44
   6   2  -5    6.07    0.49
  -6  -2   5    5.88    0.55
  -6  -2   5    7.78    0.47
   5   2  -5   18.81    0.77
   5   2  -5   20.42    0.82
   5   2  -5   20.89    0.70
   5   2  -5   18.77    0.80
   5   2  -5   19.11    0.77
   5   2  -5   19.31    0.75
   5   2  -5   18.89    0.79
  -5  -2   5   18.27    0.78
   4   2  -5    4.48    0.33
   4   2  -5    4.52    0.39
   4   2  -5    4.45    0.36
   4   2  -5    4.27    0.38
   4   2  -5    4.69    0.32
   4   2  -5    4.46    0.39
  -4  -2   5    4.16    0.33
   3   2  -5    0.87    0.17
   3   2  -5    0.45    0.17
   3   2  -5    0.12    0.09
   3   2  -5    0.42    0.22
   3   2  -5    0.47    0.19
   3   2  -5    0.65    0.16
   3   2  -5    0.50    0.21
  -3  -2   5    0.27    0.18
   2   2  -5    0.48    0.14
   2   2  -5    0.30    0.18
   2   2  -5    0.09    0.18
   2   2  -5    0.29    0.15
   2   2  -5    0.74    0.14
   2   2  -5    0.22    0.20
  -2  -2   5    0.32    0.18
   1   2  -5    3.88    0.29
   1   2  -5    3.64    0.23
   1   2  -5    3.94    0.31
   1   2  -5    4.02    0.29
   1   2  -5    3.53    0.26
   1   2  -5    3.30    0.29
  -1  -2   5    3.62    0.26
  -1  -2   5    3.41    0.28
   0   2  -5    5.22    0.32
   0   2  -5    5.36    0.26
   0   2  -5    5.64    0.33
   0  -2   5    5.67    0.31
  -1   2  -5   14.26    0.60
  -1   2  -5   17.14    0.61
  -1   2  -5   16.21    0.61
  -1   2  -5   15.50    0.61
  -1   2  -5   16.22    0.50
  -1   2  -5   15.73    0.58
  -2   2  -5   53.79    1.73
  -2   2  -5   54.22    1.83
  -2   2  -5   56.19    1.54
  -2   2  -5   53.07    1.76
  -2   2  -5   56.66    1.72
  -2   2  -5   55.42    1.76
  -3   2  -5   32.52    1.11
  -3   2  -5   31.58    1.11
  -3   2  -5   33.05    1.08
  -3   2  -5   31.89    1.09
  -3   2  -5   32.07    1.14
   3  -2   5   31.59    1.19
  -4   2  -5   33.36    1.20
  -4   2  -5   33.61    1.21
  -4   2  -5   34.86    1.19
  -4   2  -5   33.87    1.19
  -4   2  -5   34.00    1.20
  -4   2  -5   33.45    1.15
   4  -2   5   33.85    1.27
  -5   2  -5   42.90    1.49
  -5   2  -5   43.15    1.53
  -5   2  -5   43.65    1.48
   5  -2   5   42.47    1.59
  -6   2  -5    9.46    0.59
  -6   2  -5    8.81    0.59
   6  -2   5    8.55    0.62
  -7   2  -5    1.66    0.39
  -7   2  -5    0.97    0.34
  -8   2  -5   12.08    0.75
  -9   2  -5    1.83    0.54
 -10   2  -5    7.67    0.74
 -11   2  -5    0.78    0.74
 -12  -1   5    1.66    0.75
 -11  -1   5    4.21    0.64
 -10  -1   5   19.64    1.09
  -9  -1   5    4.59    0.50
   8   1  -5   10.84    0.68
   8   1  -5   10.35    0.57
  -8  -1   5   10.05    0.70
  -8  -1   5   10.50    0.61
   7   1  -5    5.90    0.53
   7   1  -5    5.98    0.50
   7   1  -5    6.68    0.46
  -7  -1   5    6.65    0.62
  -7  -1   5    7.14    0.52
   6   1  -5    1.99    0.30
   6   1  -5    1.80    0.29
   6   1  -5    1.97    0.27
   6   1  -5    2.59    0.29
   6   1  -5    2.51    0.38
  -6  -1   5    2.66    0.38
  -6  -1   5    2.40    0.32
   5   1  -5    0.65    0.28
   5   1  -5    1.09    0.23
   5   1  -5    1.25    0.22
   5   1  -5    1.03    0.30
   5   1  -5    1.18    0.25
   5   1  -5    0.82    0.22
  -5  -1   5    0.80    0.25
   4   1  -5    1.18    0.27
   4   1  -5    1.40    0.19
   4   1  -5    1.31    0.22
   4   1  -5    1.36    0.26
   4   1  -5    1.47    0.21
   4   1  -5    1.30    0.20
   3   1  -5    0.61    0.21
   3   1  -5    0.64    0.15
   3   1  -5    0.95    0.19
   3   1  -5    0.66    0.23
   3   1  -5    0.41    0.16
   3   1  -5    0.70    0.17
  -3  -1   5    0.63    0.19
   2   1  -5   39.41    1.35
   2   1  -5   40.24    1.13
   2   1  -5   40.50    1.30
   2   1  -5   40.15    1.32
   2   1  -5   40.25    1.29
   2   1  -5   39.43    1.26
   2   1  -5   39.71    1.34
  -2  -1   5   38.42    1.35
   1   1  -5    8.48    0.42
   1   1  -5    8.97    0.41
   1   1  -5    8.70    0.42
   1   1  -5    8.70    0.34
   1   1  -5    9.43    0.39
   1   1  -5    9.04    0.41
  -1  -1   5    8.39    0.37
  -1  -1   5    8.57    0.41
   0   1  -5  172.55    5.27
   0   1  -5  175.56    5.61
   0   1  -5  177.85    5.33
   0   1  -5  178.62    5.33
   0   1  -5  173.66    4.74
   0  -1   5  174.61    5.53
  -1   1  -5   86.25    2.67
  -1   1  -5   91.46    2.71
  -1   1  -5   87.67    2.40
  -1   1  -5   86.38    2.67
  -1   1  -5   84.36    2.84
  -1   1  -5   88.67    2.71
  -2   1  -5  176.98    5.50
  -2   1  -5  179.03    5.86
  -2   1  -5  185.15    5.57
  -2   1  -5  182.46    5.51
  -2   1  -5  180.79    4.95
  -2   1  -5  193.83    5.57
  -3   1  -5   19.05    0.73
  -3   1  -5   18.85    0.72
  -3   1  -5   17.54    0.73
  -3   1  -5   18.96    0.73
  -3   1  -5   18.06    0.69
  -3   1  -5   18.80    0.73
   3  -1   5   18.37    0.76
   3  -1   5   19.25    0.75
  -4   1  -5    5.91    0.45
  -4   1  -5    6.33    0.46
  -4   1  -5    6.65    0.47
  -4   1  -5    6.56    0.42
  -4   1  -5    6.41    0.43
   4  -1   5    6.16    0.46
   4  -1   5    6.21    0.44
  -5   1  -5   14.20    0.70
  -5   1  -5   15.43    0.72
  -5   1  -5   14.85    0.69
   5  -1   5   15.03    0.73
   5  -1   5   15.70    0.73
  -6   1  -5    0.32    0.30
  -6   1  -5   -0.12    0.31
   6  -1   5    0.63    0.34
  -7   1  -5    5.21    0.50
   7  -1   5    6.01    0.55
  -8   1  -5    0.29    0.34
  -9   1  -5   11.02    0.80
 -10   1  -5    8.71    0.84
 -11   1  -5    5.50    0.78
 -12   0   5    2.68    0.75
 -11   0   5    0.69    0.63
 -10   0   5    2.90    0.56
  -9   0   5   -0.35    0.38
   8   0  -5    1.03    0.32
   8   0  -5    0.85    0.40
  -8   0   5    0.31    0.34
   7   0  -5    0.53    0.29
   7   0  -5    0.57    0.29
   7   0  -5   -0.02    0.36
  -7   0   5    0.45    0.31
  -7   0   5    0.47    0.34
   6   0  -5    2.57    0.30
   6   0  -5    2.25    0.31
   6   0  -5    2.46    0.32
   6   0  -5    2.12    0.39
  -6   0   5    3.97    0.41
  -6   0   5    2.86    0.35
   5   0  -5    0.97    0.23
   5   0  -5    1.18    0.22
   5   0  -5    1.22    0.24
   5   0  -5    1.61    0.25
   5   0  -5    1.54    0.31
   5   0  -5    1.06    0.30
  -5   0   5    0.99    0.30
  -5   0   5    1.57    0.28
  -5   0   5    1.13    0.20
   4   0  -5   29.81    1.06
   4   0  -5   31.08    0.92
   4   0  -5   29.61    1.01
   4   0  -5   28.93    1.08
   4   0  -5   29.71    1.07
   4   0  -5   29.07    1.06
  -4   0   5   29.03    1.06
  -4   0   5   30.39    1.09
  -4   0   5   29.64    0.89
   3   0  -5  144.22    3.88
   3   0  -5  139.91    4.30
   3   0  -5  140.92    4.37
   3   0  -5  143.94    4.59
   3   0  -5  141.81    4.37
  -3   0   5  141.45    4.37
  -3   0   5  145.24    3.88
  -3   0   5  141.87    4.61
   2   0  -5    5.81    0.35
   2   0  -5    5.62    0.36
   2   0  -5    5.63    0.31
   2   0  -5    5.22    0.36
   2   0  -5    5.20    0.34
   2   0  -5    5.61    0.29
  -2   0   5    5.68    0.36
  -2   0   5    5.88    0.33
  -2   0   5    5.80    0.28
   1   0  -5   62.99    1.76
   1   0  -5   62.33    2.08
   1   0  -5   63.59    2.04
   1   0  -5   64.23    2.10
   1   0  -5   64.78    2.00
   1   0  -5   65.96    2.00
   1   0  -5   62.18    1.96
  -1   0   5   65.76    2.10
  -1   0   5   61.05    1.76
   0   0  -5    6.06    0.28
   0   0  -5    5.77    0.27
   0   0  -5    6.50    0.36
   0   0  -5    5.53    0.34
   0   0  -5    4.84    0.36
   0   0  -5    5.26    0.36
   0   0   5    5.52    0.27
   0   0   5    6.01    0.33
   0   0   5    6.31    0.38
   0   0   5    5.94    0.28
  -1   0  -5   28.71    0.92
  -1   0  -5   27.81    0.97
  -1   0  -5   27.09    0.95
  -1   0  -5   27.49    0.95
  -1   0  -5   27.17    0.81
   1   0   5   28.58    0.81
   1   0   5   26.64    0.94
  -2   0  -5    5.11    0.36
  -2   0  -5    5.69    0.37
  -2   0  -5    5.56    0.26
  -2   0  -5    5.35    0.36
  -2   0  -5    5.50    0.34
   2   0   5    5.96    0.37
  -3   0  -5    1.96    0.25
  -3   0  -5    1.71    0.22
  -3   0  -5    1.42    0.20
  -3   0  -5    1.99    0.17
  -3   0  -5    1.88    0.25
  -3   0  -5    2.03    0.26
   3   0   5    1.68    0.27
  -4   0  -5    0.44    0.20
  -4   0  -5    0.00    0.21
  -4   0  -5    0.17    0.22
   4   0   5    0.51    0.26
   4   0   5    0.32    0.23
  -5   0  -5    2.15    0.34
  -5   0  -5    2.13    0.29
  -5   0  -5    2.50    0.31
   5   0   5    2.37    0.32
   5   0   5    2.30    0.33
  -6   0  -5    5.71    0.50
  -6   0  -5    5.35    0.46
   6   0   5    5.24    0.49
  -7   0  -5    1.57    0.36
   7   0   5    1.46    0.38
  -8   0  -5   16.41    0.87
  -9   0  -5   15.90    0.91
 -11   0  -5    6.83    0.78
 -12   1   5    0.68    0.78
 -11   1   5    1.73    0.62
 -10   1   5    7.72    0.69
  -9   1   5   11.31    0.75
   8  -1  -5    3.51    0.41
  -8   1   5    3.68    0.43
   7  -1  -5   12.52    0.67
   7  -1  -5   11.91    0.65
   7  -1  -5   11.67    0.72
  -7   1   5   11.60    0.68
  -7   1   5   13.42    0.73
   6  -1  -5   64.75    2.14
   6  -1  -5   61.99    2.18
   6  -1  -5   64.59    2.19
  -6   1   5   64.26    2.23
  -6   1   5   63.75    2.21
  -6   1   5   63.48    2.13
   5  -1  -5   60.33    1.92
   5  -1  -5   60.52    2.00
   5  -1  -5   60.07    2.06
   5  -1  -5   61.50    1.75
   5  -1  -5   59.91    2.05
  -5   1   5   61.21    1.99
  -5   1   5   59.17    2.07
  -5   1   5   60.60    1.73
   4  -1  -5   41.78    1.22
   4  -1  -5   41.51    1.44
   4  -1  -5   41.02    1.44
   4  -1  -5   40.46    1.35
   4  -1  -5   42.80    1.41
  -4   1   5   42.57    1.41
  -4   1   5   40.93    1.21
  -4   1   5   41.46    1.46
   3  -1  -5    2.15    0.19
   3  -1  -5    2.30    0.20
   3  -1  -5    1.40    0.20
   3  -1  -5    2.40    0.28
   3  -1  -5    1.98    0.20
  -3   1   5    2.24    0.24
  -3   1   5    1.89    0.24
  -3   1   5    2.34    0.18
   2  -1  -5    0.00    0.14
   2  -1  -5   -0.17    0.14
   2  -1  -5   -0.17    0.14
   2  -1  -5   -0.08    0.15
   2  -1  -5    0.28    0.20
  -2   1   5   -0.05    0.18
  -2   1   5    0.29    0.20
  -2   1   5    0.09    0.14
   1  -1  -5   69.53    2.15
   1  -1  -5   73.05    1.93
   1  -1  -5   68.64    2.28
   1  -1  -5   62.82    2.17
  -1   1   5   70.88    2.30
  -1   1   5   72.66    2.19
  -1   1   5   71.63    1.93
   0  -1  -5    5.28    0.27
   0  -1  -5    5.39    0.34
   0  -1  -5    6.49    0.36
   0  -1  -5    5.30    0.24
   0  -1  -5    4.92    0.33
   0   1   5    5.84    0.28
   0   1   5    5.34    0.32
   0   1   5    6.21    0.38
  -1  -1  -5    1.29    0.18
  -1  -1  -5    1.59    0.16
  -1  -1  -5    1.51    0.22
  -1  -1  -5    1.40    0.18
   1   1   5    1.32    0.11
   1   1   5    0.93    0.14
   1   1   5    1.43    0.23
  -2  -1  -5   73.35    2.44
  -2  -1  -5   75.68    2.35
  -2  -1  -5   73.58    2.06
  -2  -1  -5   72.85    2.30
   2   1   5   78.93    2.35
  -3  -1  -5   24.51    0.88
  -3  -1  -5   22.99    0.87
  -3  -1  -5   23.55    0.73
  -3  -1  -5   25.65    0.86
   3   1   5   23.99    0.88
  -4  -1  -5   29.49    1.07
  -4  -1  -5   29.34    0.89
  -4  -1  -5   29.61    1.03
  -4  -1  -5   30.23    1.07
   4   1   5   31.32    1.08
   4   1   5   29.22    1.09
  -5  -1  -5   73.76    2.53
  -5  -1  -5   76.13    2.44
  -5  -1  -5   75.03    2.13
   5   1   5   78.53    2.45
   5   1   5   74.33    2.55
  -6  -1  -5   38.63    1.39
  -6  -1  -5   39.96    1.41
   6   1   5   37.54    1.41
   6   1   5   37.15    1.40
  -7  -1  -5    0.15    0.32
   7   1   5    0.00    0.32
  -8  -1  -5   10.11    0.66
   8   1   5    9.49    0.61
  -9  -1  -5    0.52    0.44
 -10  -1  -5   -0.09    0.55
 -11  -1  -5    6.34    0.79
 -12  -1  -5    0.11    0.72
 -12   2   5   17.54    1.30
 -11   2   5    7.54    0.82
 -10   2   5   10.76    0.86
  -9   2   5   11.95    0.79
  -8   2   5    9.39    0.66
   7  -2  -5   35.43    1.31
   7  -2  -5   35.82    1.31
  -7   2   5   30.60    1.31
   6  -2  -5    0.07    0.34
   6  -2  -5    0.22    0.28
   6  -2  -5    0.09    0.30
  -6   2   5    0.13    0.33
  -6   2   5    0.03    0.33
  -6   2   5   -0.13    0.31
   5  -2  -5    0.35    0.22
   5  -2  -5   -0.17    0.26
   5  -2  -5   -0.01    0.20
   5  -2  -5   -0.07    0.25
  -5   2   5    0.21    0.26
  -5   2   5   -0.17    0.27
  -5   2   5    0.24    0.19
   4  -2  -5    1.96    0.23
   4  -2  -5    2.34    0.31
   4  -2  -5    2.55    0.28
   4  -2  -5    2.20    0.22
  -4   2   5    2.52    0.30
  -4   2   5    2.19    0.29
  -4   2   5    1.96    0.21
   3  -2  -5    3.89    0.30
   3  -2  -5    3.49    0.31
   3  -2  -5    3.06    0.22
   3  -2  -5    3.24    0.30
  -3   2   5    3.16    0.30
  -3   2   5    3.51    0.30
  -3   2   5    3.53    0.28
   2  -2  -5    8.47    0.36
   2  -2  -5    8.62    0.43
   2  -2  -5    8.13    0.40
  -2   2   5    8.40    0.42
  -2   2   5    9.13    0.36
  -2   2   5    7.71    0.43
   1  -2  -5   86.62    2.89
   1  -2  -5   92.82    2.77
   1  -2  -5   86.52    2.45
  -1   2   5   89.13    2.92
  -1   2   5   91.48    2.77
  -1   2   5   90.62    2.45
   0  -2  -5  119.84    3.79
   0  -2  -5  122.59    3.60
   0  -2  -5  111.06    3.19
   0  -2  -5  116.14    3.77
   0   2   5  113.94    3.19
   0   2   5  118.03    3.60
   0   2   5  119.67    3.80
  -1  -2  -5   31.76    1.08
  -1  -2  -5   32.32    0.94
  -1  -2  -5   33.75    1.12
   1   2   5   33.29    1.10
   1   2   5   32.44    0.94
   1   2   5   32.01    1.12
  -2  -2  -5   96.48    2.91
  -2  -2  -5   92.51    3.04
  -2  -2  -5   91.77    2.57
   2   2   5   93.01    2.57
   2   2   5   91.69    2.86
   2   2   5   98.02    2.91
  -3  -2  -5   55.92    1.56
  -3  -2  -5   56.06    1.79
  -3  -2  -5   57.37    1.86
   3   2   5   54.37    1.79
   3   2   5   55.48    1.75
  -4  -2  -5   14.49    0.50
  -4  -2  -5   15.02    0.65
  -4  -2  -5   13.21    0.61
   4   2   5   15.18    0.62
   4   2   5   15.43    0.65
   4   2   5   14.56    0.60
  -5  -2  -5   31.38    0.96
  -5  -2  -5   30.47    1.12
  -5  -2  -5   30.17    1.13
   5   2   5   30.82    1.13
   5   2   5   30.37    1.13
   5   2   5   31.72    1.08
  -6  -2  -5    6.01    0.49
  -6  -2  -5    6.38    0.53
   6   2   5    6.16    0.54
   6   2   5    5.76    0.46
  -7  -2  -5   -0.07    0.31
   7   2   5    0.38    0.38
   7   2   5   -0.31    0.29
  -8  -2  -5    2.06    0.39
   8   2   5    1.62    0.34
  -9  -2  -5    0.24    0.41
 -10  -2  -5    6.12    0.67
 -11  -2  -5    8.07    0.77
 -12  -2  -5   11.88    1.12
 -11   3   5    5.82    0.77
 -10   3   5    7.89    0.72
  -9   3   5    0.72    0.45
  -8   3   5    1.19    0.38
   7  -3  -5    4.67    0.46
  -7   3   5    4.37    0.44
   6  -3  -5   10.34    0.60
   6  -3  -5    9.81    0.58
  -6   3   5   10.23    0.66
  -6   3   5   10.03    0.60
  -6   3   5   10.84    0.64
   5  -3  -5   12.53    0.63
   5  -3  -5   12.79    0.68
   5  -3  -5   14.25    0.63
  -5   3   5   13.14    0.55
  -5   3   5   12.81    0.62
  -5   3   5   14.36    0.67
   4  -3  -5   60.87    2.06
   4  -3  -5   60.94    2.08
   4  -3  -5   63.79    2.00
  -4   3   5   59.45    1.98
  -4   3   5   61.04    2.10
  -4   3   5   61.33    1.74
   3  -3  -5  135.22    4.14
   3  -3  -5  131.61    4.34
   3  -3  -5  136.22    4.37
  -3   3   5  136.83    4.39
  -3   3   5  131.42    3.67
  -3   3   5  134.51    4.13
   2  -3  -5   26.06    0.92
   2  -3  -5   26.36    0.93
   2  -3  -5   26.42    0.79
  -2   3   5   26.20    0.91
  -2   3   5   25.75    0.96
  -2   3   5   26.33    0.78
  -2   3   5   26.99    0.91
   1  -3  -5  117.78    3.48
   1  -3  -5   95.47    3.67
   1  -3  -5  119.11    3.09
   1  -3  -5  117.17    3.65
  -1   3   5  121.91    3.49
  -1   3   5  102.07    3.48
  -1   3   5  115.69    3.68
  -1   3   5  118.36    3.09
   0  -3  -5   94.99    3.08
   0  -3  -5   96.64    2.93
   0  -3  -5   93.64    3.06
   0  -3  -5   94.34    2.59
   0   3   5   95.32    3.08
   0   3   5   94.46    2.93
   0   3   5   98.43    2.92
   0   3   5   91.41    2.59
  -1  -3  -5   12.73    0.45
  -1  -3  -5   13.72    0.53
  -1  -3  -5   14.64    0.56
  -1  -3  -5   13.37    0.54
   1   3   5   14.14    0.53
   1   3   5   13.60    0.55
   1   3   5   13.62    0.56
   1   3   5   14.09    0.46
  -2  -3  -5    3.55    0.27
  -2  -3  -5    3.19    0.30
   2   3   5    3.36    0.27
   2   3   5    2.91    0.25
   2   3   5    3.39    0.24
   2   3   5    3.42    0.27
   2   3   5    3.12    0.21
   2   3   5    3.34    0.17
  -3  -3  -5    2.98    0.27
  -3  -3  -5    1.77    0.19
   3   3   5    2.55    0.25
   3   3   5    1.86    0.25
   3   3   5    1.80    0.18
  -4  -3  -5    5.92    0.38
  -4  -3  -5    7.04    0.45
   4   3   5    5.36    0.42
   4   3   5    5.91    0.41
   4   3   5    6.77    0.43
  -5  -3  -5    2.02    0.26
  -5  -3  -5    1.87    0.23
  -5  -3  -5    2.51    0.33
   5   3   5    2.39    0.27
   5   3   5    2.15    0.32
   5   3   5    1.84    0.24
   5   3   5    1.93    0.30
  -6  -3  -5   21.88    0.92
   6   3   5   23.76    0.93
   6   3   5   21.03    0.88
   6   3   5   21.55    0.87
  -7  -3  -5    2.45    0.35
   7   3   5    2.84    0.35
   7   3   5    1.98    0.42
  -8  -3  -5    2.50    0.41
   8   3   5    2.80    0.36
   8   3   5    2.78    0.45
  -9  -3  -5    4.16    0.48
 -10  -3  -5   11.06    0.81
 -11  -3  -5   13.15    1.01
 -12  -3  -5    4.13    0.75
 -11   4   5    0.18    0.68
 -10   4   5    4.39    0.67
  -9   4   5    7.24    0.66
  -8   4   5   22.73    1.06
  -7   4   5   16.91    0.84
  -7   4   5   17.64    0.85
   6  -4  -5    3.27    0.38
   6  -4  -5    4.28    0.44
  -6   4   5    4.82    0.45
  -6   4   5    3.68    0.43
   5  -4  -5   14.83    0.72
   5  -4  -5   13.03    0.68
   5  -4  -5   13.91    0.66
  -5   4   5   14.13    0.69
  -5   4   5   14.17    0.56
  -5   4   5   14.34    0.71
   4  -4  -5   50.59    1.64
   4  -4  -5   47.49    1.69
   4  -4  -5   48.97    1.67
  -4   4   5   48.00    1.61
  -4   4   5   48.23    1.71
  -4   4   5   48.40    1.62
  -4   4   5   47.68    1.40
   3  -4  -5   95.92    2.96
   3  -4  -5   94.83    3.09
   3  -4  -5   95.31    3.13
  -3   4   5   91.48    3.13
  -3   4   5   92.69    2.95
  -3   4   5   93.69    2.61
  -3   4   5   98.17    2.96
  -3   4   5   94.52    2.89
   2  -4  -5   17.28    0.68
  -2   4   5   17.90    0.65
  -2   4   5   17.62    0.67
  -2   4   5   17.10    0.71
  -2   4   5   18.10    0.58
  -2   4   5   18.91    0.68
   1  -4  -5    0.20    0.13
   1  -4  -5    0.05    0.17
  -1   4   5    0.26    0.14
  -1   4   5    0.24    0.20
  -1   4   5    0.06    0.18
  -1   4   5    0.32    0.14
  -1   4   5   -0.09    0.18
   0  -4  -5   56.31    1.87
   0  -4  -5   53.65    1.85
   0   4   5   57.74    1.79
   0   4   5   57.06    1.87
   0   4   5   56.56    1.56
   0   4   5   53.78    1.75
   0   4   5   59.76    1.78
  -1  -4  -5   48.59    1.55
  -1  -4  -5   49.20    1.61
  -1  -4  -5   47.72    1.61
   1   4   5   48.23    1.61
   1   4   5   45.38    1.51
   1   4   5   50.77    1.55
   1   4   5   48.72    1.54
   1   4   5   49.09    1.36
  -2  -4  -5   27.86    0.99
   2   4   5   27.53    0.94
   2   4   5   28.51    0.94
   2   4   5   28.21    0.84
   2   4   5   30.24    0.97
   2   4   5   29.08    0.99
   2   4   5   29.39    0.98
   2   4   5   28.83    0.94
  -3  -4  -5   40.92    1.38
   3   4   5   41.09    1.31
   3   4   5   41.19    1.33
   3   4   5   41.04    1.16
   3   4   5   41.58    1.35
   3   4   5   40.77    1.34
   3   4   5   38.91    1.30
   3   4   5   39.93    1.36
  -4  -4  -5   17.68    0.74
   4   4   5   19.87    0.75
   4   4   5   20.00    0.76
   4   4   5   20.14    0.72
  -5  -4  -5   38.41    1.44
  -5  -4  -5   44.15    1.44
   5   4   5   41.49    1.43
   5   4   5   42.72    1.42
   5   4   5   41.00    1.37
  -6  -4  -5   25.28    0.99
   6   4   5   24.65    0.93
   6   4   5   25.25    0.95
   6   4   5   23.24    0.98
  -7  -4  -5    5.06    0.48
   7   4   5    3.82    0.46
   7   4   5    5.09    0.43
  -8  -4  -5    8.65    0.58
   8   4   5    7.43    0.61
  -9  -4  -5    7.29    0.66
 -10  -4  -5    1.05    0.49
 -11  -4  -5   -0.03    0.53
 -12  -4  -5   -0.97    0.68
 -11   5   5    5.78    0.82
 -10   5   5    1.90    0.61
  -9   5   5   14.31    0.91
  -8   5   5   34.45    1.41
  -7   5   5    4.42    0.44
  -7   5   5    4.06    0.47
   6  -5  -5    3.08    0.43
   6  -5  -5    3.27    0.35
  -6   5   5    3.08    0.41
  -6   5   5    1.70    0.36
   5  -5  -5    8.49    0.56
   5  -5  -5    7.86    0.50
  -5   5   5    7.68    0.53
  -5   5   5    7.72    0.47
  -5   5   5    7.98    0.57
   4  -5  -5   -0.07    0.27
   4  -5  -5    0.28    0.20
  -4   5   5    0.03    0.27
  -4   5   5    0.15    0.20
  -4   5   5    0.10    0.19
  -4   5   5   -0.13    0.25
  -4   5   5    0.03    0.25
   3  -5  -5   29.77    1.05
  -3   5   5   29.29    1.10
  -3   5   5   28.40    1.03
  -3   5   5   30.51    1.05
  -3   5   5   29.21    1.00
  -3   5   5   29.61    0.90
   2  -5  -5   22.38    0.83
   2  -5  -5   23.33    0.88
  -2   5   5   23.07    0.79
  -2   5   5   22.85    0.71
  -2   5   5   23.68    0.84
  -2   5   5   23.10    0.89
  -2   5   5   23.84    0.84
   1  -5  -5   46.17    1.57
   1  -5  -5   47.57    1.61
  -1   5   5   47.06    1.49
  -1   5   5   48.07    1.34
  -1   5   5   49.58    1.52
  -1   5   5   47.49    1.53
  -1   5   5   46.62    1.62
   0  -5  -5   20.53    0.74
   0  -5  -5   19.57    0.72
   0   5   5   21.74    0.76
   0   5   5   18.26    0.71
   0   5   5   20.51    0.62
   0   5   5   21.93    0.72
   0   5   5   19.36    0.71
  -1  -5  -5    7.58    0.34
  -1  -5  -5    7.05    0.37
  -1  -5  -5    7.34    0.32
   1   5   5    7.87    0.37
   1   5   5    7.43    0.37
   1   5   5    7.63    0.30
   1   5   5    7.20    0.37
   1   5   5    8.17    0.38
   1   5   5    7.15    0.35
  -2  -5  -5   91.46    2.77
  -2  -5  -5   87.78    2.83
  -2  -5  -5   86.68    2.82
   2   5   5   89.34    2.69
   2   5   5   86.38    2.83
   2   5   5   87.07    2.66
   2   5   5   83.67    2.70
   2   5   5   89.02    2.77
   2   5   5   87.21    2.39
   2   5   5   83.75    2.66
  -3  -5  -5   69.41    2.32
   3   5   5   71.48    2.19
   3   5   5   74.10    1.97
   3   5   5   74.04    2.31
   3   5   5   67.29    2.28
   3   5   5   69.47    2.23
   3   5   5   70.88    2.19
   3   5   5   71.19    2.24
  -4  -5  -5    8.69    0.45
   4   5   5    9.33    0.47
   4   5   5    9.07    0.48
   4   5   5    8.61    0.40
   4   5   5    8.88    0.46
   4   5   5    9.17    0.48
   4   5   5    8.41    0.38
  -5  -5  -5   -0.38    0.18
   5   5   5   -0.13    0.19
   5   5   5    0.24    0.26
   5   5   5    0.20    0.18
   5   5   5    0.08    0.20
   5   5   5    0.17    0.24
   5   5   5   -0.10    0.20
  -6  -5  -5    1.18    0.25
   6   5   5    1.34    0.33
   6   5   5    1.44    0.26
   6   5   5    0.77    0.20
  -7  -5  -5   -0.01    0.28
   7   5   5    0.04    0.27
   7   5   5   -0.27    0.23
   7   5   5    0.10    0.34
  -8  -5  -5    0.52    0.31
   8   5   5    0.29    0.38
  -9  -5  -5    0.08    0.32
   9   5   5   -0.32    0.37
 -10  -5  -5    0.40    0.42
 -11  -5  -5    0.78    0.57
 -12  -5  -5    2.91    0.71
 -11   6   5    2.75    0.83
 -10   6   5    0.34    0.61
  -9   6   5    2.47    0.55
  -8   6   5    0.60    0.42
  -7   6   5    3.59    0.41
  -7   6   5    3.54    0.45
  -6   6   5   44.82    1.57
  -6   6   5   43.73    1.63
   5  -6  -5    3.15    0.41
   5  -6  -5    4.49    0.36
  -5   6   5    4.60    0.41
  -5   6   5    4.16    0.31
  -5   6   5    3.90    0.40
   4  -6  -5    0.31    0.21
   4  -6  -5    0.19    0.13
  -4   6   5    0.91    0.31
  -4   6   5    0.85    0.30
  -4   6   5    0.73    0.22
  -4   6   5    0.92    0.30
  -4   6   5    0.79    0.22
   3  -6  -5   21.43    0.87
   3  -6  -5   20.87    0.81
  -3   6   5   20.82    0.77
  -3   6   5   22.09    0.88
  -3   6   5   22.00    0.70
  -3   6   5   20.56    0.81
  -3   6   5   21.72    0.81
   2  -6  -5   13.61    0.63
   2  -6  -5   14.47    0.58
  -2   6   5   14.46    0.57
  -2   6   5   14.07    0.64
  -2   6   5   14.10    0.59
  -2   6   5   15.88    0.60
  -2   6   5   13.57    0.50
   1  -6  -5  156.59    5.06
   1  -6  -5  154.24    5.00
  -1   6   5  153.63    4.70
  -1   6   5  156.77    4.76
  -1   6   5  159.63    4.75
  -1   6   5  157.73    4.24
  -1   6   5  154.88    5.08
   0  -6  -5  102.90    3.36
   0  -6  -5  101.03    3.41
   0   6   5  109.76    3.21
   0   6   5  105.64    3.42
   0   6   5  104.07    2.85
   0   6   5  103.27    3.17
   0   6   5  105.98    3.20
  -1  -6  -5   38.04    1.25
  -1  -6  -5   36.00    1.23
  -1  -6  -5   36.22    1.23
   1   6   5   36.74    1.26
   1   6   5   37.42    1.19
   1   6   5   36.17    1.17
   1   6   5   36.97    1.05
   1   6   5   38.04    1.19
  -2  -6  -5    1.75    0.19
  -2  -6  -5    1.98    0.17
  -2  -6  -5    2.19    0.18
   2   6   5    3.18    0.23
   2   6   5    2.27    0.18
   2   6   5    2.09    0.21
   2   6   5    2.21    0.22
   2   6   5    2.02    0.17
  -3  -6  -5   16.98    0.63
   3   6   5   15.78    0.62
   3   6   5   17.71    0.64
   3   6   5   16.50    0.65
   3   6   5   16.85    0.64
   3   6   5   16.69    0.60
   3   6   5   16.94    0.54
   3   6   5   16.53    0.64
  -4  -6  -5   19.00    0.76
   4   6   5   20.19    0.75
   4   6   5   20.66    0.76
   4   6   5   19.74    0.76
   4   6   5   20.95    0.77
   4   6   5   19.86    0.75
   4   6   5   20.52    0.70
  -5  -6  -5    0.87    0.21
   5   6   5    1.24    0.19
   5   6   5    0.96    0.28
   5   6   5    1.48    0.29
   5   6   5    1.11    0.24
   5   6   5    1.05    0.23
   5   6   5    1.18    0.23
   5   6   5    1.26    0.16
  -6  -6  -5    0.49    0.22
   6   6   5    0.30    0.24
   6   6   5    0.21    0.32
   6   6   5    0.14    0.19
   6   6   5   -0.18    0.24
   6   6   5   -0.08    0.29
   6   6   5    0.10    0.24
  -7  -6  -5    0.03    0.26
   7   6   5    0.00    0.27
   7   6   5    0.00    0.35
  -8  -6  -5    1.25    0.30
   8   6   5    0.69    0.39
  -9  -6  -5    4.78    0.46
   9   6   5    4.18    0.50
 -10  -6  -5    5.20    0.53
  10   6   5    4.58    0.54
 -11  -6  -5    2.97    0.55
 -12  -6  -5    1.21    0.60
 -10   7   5    2.24    0.67
  -9   7   5   12.63    0.97
  -8   7   5    1.86    0.42
  -8   7   5    1.83    0.46
  -7   7   5    2.48    0.41
  -7   7   5    3.24    0.42
  -6   7   5   27.34    1.13
  -6   7   5   26.69    1.08
   5  -7  -5   15.76    0.77
  -5   7   5   16.35    0.79
  -5   7   5   19.62    0.83
  -5   7   5   16.97    0.68
   4  -7  -5   57.70    2.01
  -4   7   5   61.58    1.94
  -4   7   5   61.18    1.90
  -4   7   5   61.39    1.72
  -4   7   5   50.14    2.04
  -4   7   5   63.15    1.96
   3  -7  -5    1.01    0.30
   3  -7  -5    0.95    0.21
  -3   7   5    1.22    0.21
  -3   7   5    1.49    0.28
  -3   7   5    1.58    0.28
  -3   7   5    1.23    0.30
  -3   7   5    0.98    0.21
   2  -7  -5    9.35    0.45
   2  -7  -5   10.37    0.53
  -2   7   5    9.98    0.53
  -2   7   5    9.86    0.40
  -2   7   5   10.13    0.47
  -2   7   5    9.32    0.46
  -2   7   5    9.52    0.46
   1  -7  -5    6.14    0.34
   1  -7  -5    6.23    0.40
  -1   7   5    6.33    0.36
  -1   7   5    5.77    0.29
  -1   7   5    6.08    0.37
  -1   7   5    5.69    0.40
  -1   7   5    5.95    0.34
   0  -7  -5    1.10    0.14
   0  -7  -5    1.62    0.22
   0   7   5    1.31    0.15
   0   7   5    1.40    0.23
   0   7   5    1.43    0.19
   0   7   5    1.27    0.16
  -1  -7  -5    9.21    0.42
  -1  -7  -5    9.85    0.41
   1   7   5    9.03    0.43
   1   7   5   10.67    0.46
   1   7   5    9.84    0.35
   1   7   5   10.02    0.41
  -2  -7  -5    1.98    0.17
  -2  -7  -5    1.70    0.16
   2   7   5    1.87    0.16
   2   7   5    1.67    0.20
   2   7   5    1.93    0.20
   2   7   5    1.48    0.16
  -3  -7  -5   13.68    0.55
   3   7   5   14.56    0.52
   3   7   5   14.01    0.47
   3   7   5   13.66    0.54
   3   7   5   13.19    0.55
   3   7   5   13.63    0.56
   3   7   5   12.88    0.56
  -4  -7  -5    6.62    0.41
   4   7   5    6.51    0.44
   4   7   5    6.60    0.30
   4   7   5    6.50    0.44
   4   7   5    6.57    0.41
   4   7   5    7.24    0.32
   4   7   5    6.83    0.40
  -5  -7  -5   30.67    1.14
   5   7   5   34.08    1.12
   5   7   5   29.58    1.14
   5   7   5   32.42    1.10
   5   7   5   30.90    1.05
   5   7   5   31.61    1.13
  -6  -7  -5   39.86    1.44
   6   7   5   42.49    1.39
   6   7   5   42.62    1.41
   6   7   5   39.20    1.41
   6   7   5   38.85    1.43
  -7  -7  -5   -0.01    0.25
   7   7   5   -0.03    0.33
   7   7   5   -0.13    0.25
  -8  -7  -5    3.78    0.37
   8   7   5    3.71    0.45
  -9  -7  -5   -0.86    0.29
   9   7   5    0.11    0.38
 -10  -7  -5    2.44    0.44
  10   7   5    3.16    0.48
 -11  -7  -5    3.32    0.57
  11   7   5    3.80    0.56
 -12  -7  -5    0.19    0.55
 -10   8   5    8.21    0.87
  -9   8   5    8.27    0.76
  -8   8   5    2.17    0.49
  -8   8   5    1.28    0.43
  -7   8   5   11.49    0.68
  -7   8   5    9.83    0.68
  -6   8   5    0.24    0.34
  -6   8   5    0.46    0.32
  -5   8   5   20.05    0.86
  -5   8   5   18.86    0.89
  -5   8   5   21.39    0.76
   4  -8  -5    0.67    0.24
   4  -8  -5    0.67    0.35
  -4   8   5    0.78    0.31
  -4   8   5    0.62    0.24
  -4   8   5    0.47    0.30
  -4   8   5    0.72    0.24
  -4   8   5    0.10    0.14
   3  -8  -5    9.32    0.60
   3  -8  -5    9.52    0.50
  -3   8   5    9.44    0.45
  -3   8   5   10.35    0.54
  -3   8   5    9.66    0.54
  -3   8   5    9.79    0.59
   2  -8  -5    1.49    0.31
   2  -8  -5    1.84    0.21
  -2   8   5    1.47    0.19
  -2   8   5    1.75    0.25
  -2   8   5    1.66    0.20
  -2   8   5    1.54    0.30
  -2   8   5    1.58    0.26
   1  -8  -5   10.92    0.47
   1  -8  -5   10.05    0.53
  -1   8   5   10.13    0.46
  -1   8   5   10.75    0.55
  -1   8   5   11.08    0.45
  -1   8   5   10.36    0.46
  -1   8   5   10.84    0.40
   0  -8  -5    6.89    0.39
   0  -8  -5    6.82    0.33
   0   8   5    6.23    0.40
   0   8   5    6.31    0.36
   0   8   5    6.27    0.28
   0   8   5    6.30    0.28
   0   8   5    6.27    0.32
  -1  -8  -5    9.44    0.41
  -1  -8  -5   10.22    0.45
  -1  -8  -5   10.07    0.48
   1   8   5   10.21    0.43
   1   8   5    9.91    0.36
   1   8   5   10.16    0.39
   1   8   5    9.92    0.47
  -2  -8  -5   46.41    1.60
  -2  -8  -5   49.91    1.63
  -2  -8  -5   48.96    1.62
   2   8   5   50.73    1.64
   2   8   5   46.03    1.52
   2   8   5   48.31    1.37
   2   8   5   50.73    1.52
  -3  -8  -5   83.28    2.59
  -3  -8  -5   80.12    2.60
  -3  -8  -5   79.88    2.60
   3   8   5   77.43    2.46
   3   8   5   81.95    2.47
   3   8   5   78.18    2.21
   3   8   5   77.18    2.60
   3   8   5   77.96    2.45
   3   8   5   79.60    2.47
   3   8   5   83.82    2.60
  -4  -8  -5   23.88    0.85
   4   8   5   22.28    0.86
   4   8   5   23.15    0.84
   4   8   5   23.85    0.72
   4   8   5   22.31    0.84
   4   8   5   22.93    0.83
   4   8   5   22.43    0.83
  -5  -8  -5   17.84    0.72
   5   8   5   16.61    0.73
   5   8   5   17.72    0.71
   5   8   5   17.45    0.72
   5   8   5   16.42    0.70
   5   8   5   17.92    0.75
  -6  -8  -5    0.35    0.23
   6   8   5    0.02    0.29
   6   8   5    0.20    0.30
   6   8   5    0.23    0.24
   6   8   5    0.55    0.26
  -7  -8  -5    5.95    0.48
   7   8   5    5.68    0.50
   7   8   5    6.57    0.56
  -8  -8  -5    0.22    0.25
   8   8   5    0.14    0.28
   8   8   5    0.35    0.35
  -9  -8  -5   -0.14    0.28
   9   8   5    0.09    0.36
 -10  -8  -5    0.74    0.38
  10   8   5    1.07    0.42
 -11  -8  -5   -0.64    0.45
  11   8   5   -0.35    0.43
 -10   9   5    8.18    0.88
  -9   9   5    1.43    0.45
  -9   9   5    1.31    0.64
  -8   9   5   -0.60    0.48
  -8   9   5    0.37    0.37
  -7   9   5    1.76    0.41
  -7   9   5    1.45    0.43
  -6   9   5    7.86    0.60
  -6   9   5    8.58    0.57
  -5   9   5   -0.08    0.29
  -5   9   5   -0.15    0.30
  -5   9   5    0.26    0.24
  -4   9   5    9.92    0.56
  -4   9   5   10.29    0.58
  -4   9   5   10.37    0.50
  -4   9   5    8.38    0.61
  -4   9   5    9.97    0.57
   3  -9  -5   49.95    1.90
   3  -9  -5   52.08    1.81
  -3   9   5   54.26    1.72
  -3   9   5   55.46    1.74
  -3   9   5   52.17    1.82
  -3   9   5   55.32    1.75
  -3   9   5   53.19    1.54
   2  -9  -5   59.40    2.13
   2  -9  -5   63.23    2.04
  -2   9   5   60.15    2.14
  -2   9   5   62.27    1.94
  -2   9   5   62.42    1.73
  -2   9   5   59.41    1.93
  -2   9   5   62.12    1.96
   1  -9  -5    8.63    0.39
   1  -9  -5    7.82    0.50
  -1   9   5    7.61    0.42
  -1   9   5    7.83    0.38
  -1   9   5    7.95    0.52
  -1   9   5    7.70    0.36
   0  -9  -5   22.95    0.88
   0  -9  -5   22.85    0.80
   0   9   5   21.85    0.79
   0   9   5   22.74    0.69
   0   9   5   22.80    0.73
   0   9   5   23.57    0.90
  -1  -9  -5   27.56    0.98
  -1  -9  -5   26.52    0.92
  -1  -9  -5   26.69    1.01
   1   9   5   27.99    1.00
   1   9   5   26.66    0.91
   1   9   5   26.93    0.79
  -2  -9  -5   68.29    2.23
  -2  -9  -5   68.17    2.26
  -2  -9  -5   67.11    2.20
   2   9   5   71.41    2.26
   2   9   5   67.55    1.88
   2   9   5   65.65    2.09
  -3  -9  -5    8.27    0.47
  -3  -9  -5    9.26    0.37
  -3  -9  -5    8.54    0.41
   3   9   5    9.43    0.40
   3   9   5    6.82    0.33
   3   9   5    8.20    0.35
   3   9   5    7.10    0.44
   3   9   5    8.83    0.45
   3   9   5    8.32    0.35
  -4  -9  -5    0.07    0.26
  -4  -9  -5    0.33    0.20
   4   9   5   -0.15    0.06
   4   9   5    0.08    0.20
   4   9   5    0.02    0.18
   4   9   5    0.38    0.20
   4   9   5    0.24    0.25
   4   9   5    0.64    0.16
  -5  -9  -5    2.26    0.23
   5   9   5    1.75    0.28
   5   9   5    1.76    0.28
   5   9   5    1.66    0.26
   5   9   5    1.57    0.24
   5   9   5    2.45    0.33
  -6  -9  -5    7.57    0.50
   6   9   5    8.30    0.50
   6   9   5    7.88    0.57
   6   9   5    8.29    0.53
   6   9   5    8.93    0.57
  -7  -9  -5    2.38    0.29
   7   9   5    1.95    0.29
   7   9   5    2.35    0.36
   7   9   5    1.82    0.34
  -8  -9  -5   13.51    0.70
   8   9   5   15.38    0.78
   8   9   5   11.76    0.70
  -9  -9  -5    1.70    0.32
   9   9   5    1.66    0.40
 -10  -9  -5    0.54    0.34
  10   9   5    0.39    0.37
 -11  -9  -5    3.16    0.50
  11   9   5    3.82    0.56
  -9  10   5    4.54    0.70
  -9  10   5    3.49    0.58
  -8  10   5    1.17    0.43
  -8  10   5    1.36    0.55
  -7  10   5    8.27    0.60
  -7  10   5    7.27    0.60
  -6  10   5    4.38    0.44
  -6  10   5    5.46    0.49
  -5  10   5    2.73    0.38
  -5  10   5    3.11    0.36
  -5  10   5    2.90    0.30
  -4  10   5    0.38    0.29
  -4  10   5    0.17    0.28
  -4  10   5    0.23    0.23
  -4  10   5    0.98    0.31
  -4  10   5    0.37    0.25
   3 -10  -5    8.06    0.61
  -3  10   5    8.66    0.50
  -3  10   5    8.96    0.45
  -3  10   5    7.89    0.53
  -3  10   5    9.03    0.53
  -3  10   5    8.34    0.47
   2 -10  -5   28.31    1.04
   2 -10  -5   29.68    1.17
  -2  10   5   29.80    1.08
  -2  10   5   30.32    0.99
  -2  10   5   29.15    0.90
  -2  10   5   29.67    1.01
  -2  10   5   28.03    1.17
   1 -10  -5    8.09    0.53
   1 -10  -5    7.26    0.40
  -1  10   5    7.46    0.44
  -1  10   5    8.45    0.55
  -1  10   5    8.03    0.32
  -1  10   5    8.26    0.37
   0 -10  -5    5.86    0.44
   0 -10  -5    5.42    0.31
   0  10   5    4.97    0.36
   0  10   5    6.32    0.47
   0  10   5    5.02    0.29
  -1 -10  -5    2.72    0.34
  -1 -10  -5    3.40    0.24
  -1 -10  -5    3.63    0.31
   1  10   5    3.67    0.32
   1  10   5    3.26    0.23
   1  10   5    3.32    0.24
  -2 -10  -5    0.00    0.18
  -2 -10  -5    0.30    0.27
   2  10   5    0.04    0.14
   2  10   5    0.06    0.20
   2  10   5    0.09    0.16
  -3 -10  -5    6.03    0.31
  -3 -10  -5    5.64    0.42
   3  10   5    6.48    0.36
   3  10   5    5.68    0.41
   3  10   5    5.52    0.39
   3  10   5    5.63    0.30
  -4 -10  -5   13.81    0.62
   4  10   5   12.77    0.61
   4  10   5   13.66    0.48
   4  10   5   13.06    0.58
   4  10   5   13.48    0.63
   4  10   5   12.90    0.47
   5  10   5   29.73    1.06
   5  10   5   30.17    1.01
   5  10   5   31.17    1.07
   5  10   5   29.33    1.02
   6  10   5   11.29    0.53
   6  10   5   11.46    0.62
   6  10   5   11.04    0.60
   6  10   5   10.03    0.55
   7  10   5    2.63    0.35
   7  10   5    3.08    0.35
   7  10   5    2.56    0.30
   8  10   5   15.85    0.76
   8  10   5   13.95    0.70
   9  10   5    6.17    0.53
  10  10   5    0.19    0.39
  11  10   5    2.11    0.50
  -9  11   5    5.20    0.74
  -9  11   5    4.73    0.66
  -8  11   5    7.69    0.71
  -8  11   5    8.06    0.67
  -7  11   5    4.88    0.55
  -7  11   5    5.09    0.51
  -6  11   5    1.77    0.38
  -6  11   5    1.29    0.37
  -5  11   5    0.61    0.33
  -5  11   5    0.53    0.30
  -5  11   5    1.25    0.27
  -5  11   5    0.06    0.30
  -4  11   5    0.35    0.26
  -4  11   5    0.30    0.28
  -4  11   5    0.37    0.29
  -4  11   5    0.49    0.23
  -3  11   5    0.17    0.21
  -3  11   5    0.20    0.23
  -3  11   5    0.02    0.23
  -3  11   5    0.10    0.24
  -3  11   5    0.33    0.25
   2 -11  -5   13.87    0.73
  -2  11   5   12.75    0.49
  -2  11   5   14.56    0.51
  -2  11   5   12.81    0.60
  -2  11   5   13.11    0.60
  -2  11   5   12.10    0.51
   1 -11  -5    9.91    0.60
  -1  11   5    8.93    0.48
  -1  11   5    9.82    0.61
  -1  11   5    8.99    0.40
   0 -11  -5   38.61    1.38
   0 -11  -5   37.40    1.37
   0  11   5   36.32    1.21
   0  11   5   38.47    1.39
   0  11   5   36.97    1.08
  -1 -11  -5   11.46    0.61
  -1 -11  -5   11.53    0.57
   1  11   5   10.64    0.50
   1  11   5   11.33    0.40
   1  11   5   11.60    0.58
  -2 -11  -5   28.77    1.00
  -2 -11  -5   27.07    1.07
   2  11   5   27.68    0.93
   2  11   5   28.03    1.03
   2  11   5   27.18    0.82
  -3 -11  -5   20.98    0.84
   3  11   5   19.32    0.74
   3  11   5   20.45    0.64
   3  11   5   20.23    0.73
  -4 -11  -5   14.63    0.67
   4  11   5   14.16    0.50
   4  11   5   14.88    0.63
   4  11   5   14.27    0.61
   5  11   5   52.10    1.70
   5  11   5   52.64    1.68
   6  11   5   10.50    0.61
   6  11   5    9.24    0.56
   6  11   5    9.79    0.45
   6  11   5    9.86    0.46
   7  11   5    1.74    0.29
   7  11   5    1.90    0.29
   7  11   5    1.66    0.28
   8  11   5    0.18    0.28
   8  11   5   -0.23    0.29
   8  11   5    0.29    0.29
   9  11   5    8.25    0.57
   9  11   5   10.38    0.75
  10  11   5    1.77    0.42
  11  11   5   -0.07    0.45
  -8  12   5    0.19    0.49
  -8  12   5   -0.68    0.55
  -7  12   5    2.80    0.47
  -7  12   5    3.83    0.55
  -6  12   5   -0.58    0.34
  -6  12   5   -0.39    0.32
  -5  12   5    6.98    0.50
  -5  12   5    7.94    0.51
  -5  12   5    7.25    0.49
  -4  12   5   13.29    0.60
  -4  12   5   12.85    0.57
  -4  12   5   12.53    0.57
  -3  12   5    7.81    0.42
  -3  12   5    7.73    0.39
  -3  12   5    7.57    0.51
  -3  12   5    7.51    0.37
  -2  12   5    2.43    0.23
  -2  12   5    2.16    0.25
   1 -12  -5   -0.25    0.30
  -1  12   5    0.03    0.17
  -1  12   5   -0.09    0.19
   0 -12  -5   31.68    1.21
   0 -12  -5   32.10    1.21
   0  12   5   31.54    1.22
   0  12   5   30.97    0.92
   0  12   5   30.85    1.04
  -1 -12  -5   21.12    0.90
  -1 -12  -5   21.89    0.86
   1  12   5   20.46    0.65
   1  12   5   21.69    0.88
   1  12   5   20.37    0.75
  -2 -12  -5    8.29    0.57
   2  12   5    7.84    0.32
   2  12   5    7.05    0.43
  -3 -12  -5    0.70    0.33
   3  12   5    1.06    0.19
   3  12   5    0.82    0.16
   3  12   5    0.91    0.17
  -4 -12  -5    0.43    0.30
   4  12   5    0.51    0.15
   4  12   5    0.02    0.18
   4  12   5    0.33    0.18
  -5 -12  -5    3.72    0.40
   5  12   5    4.42    0.31
   5  12   5    3.82    0.27
   6  12   5    0.87    0.25
   6  12   5    0.86    0.24
   7  12   5    3.62    0.34
   7  12   5    3.50    0.27
   8  12   5    3.24    0.30
   8  12   5    3.68    0.33
   8  12   5    3.40    0.38
   9  12   5    5.82    0.49
   9  12   5    6.70    0.52
   9  12   5    6.50    0.46
  10  12   5    3.05    0.43
  -7  13   5    3.03    0.50
  -6  13   5    8.18    0.55
  -5  13   5    3.30    0.32
  -5  13   5    2.81    0.35
  -5  13   5    2.77    0.33
  -4  13   5   10.49    0.46
  -4  13   5   10.55    0.48
  -4  13   5   10.59    0.52
  -3  13   5   13.24    0.63
  -3  13   5   11.84    0.53
  -2  13   5    0.81    0.23
  -2  13   5    1.08    0.21
   1 -13  -5   11.87    0.67
  -1  13   5   11.75    0.45
  -1  13   5   11.20    0.53
   0 -13  -5    1.34    0.35
   0 -13  -5    1.16    0.32
   0  13   5    1.33    0.19
   0  13   5    1.29    0.31
   0  13   5    1.23    0.17
  -1 -13  -5    0.63    0.33
   1  13   5    0.52    0.15
   1  13   5    0.37    0.16
  -2 -13  -5    4.48    0.44
   2  13   5    4.30    0.25
   2  13   5    4.14    0.36
  -3 -13  -5   13.67    0.70
   3  13   5   12.98    0.53
   3  13   5   13.10    0.46
   3  13   5   13.59    0.55
   4  13   5    3.07    0.24
   4  13   5    3.55    0.26
   4  13   5    3.17    0.24
   5  13   5   11.59    0.55
   5  13   5   11.49    0.58
   6  13   5   13.96    0.68
   6  13   5   15.13    0.69
   7  13   5   11.41    0.68
   8  13   5   13.05    0.77
   9  13   5    2.52    0.27
   9  13   5    2.52    0.43
  10  13   5    0.28    0.29
  10  13   5    0.15    0.24
  -7  14   5    8.58    0.65
  -6  14   5    1.58    0.29
  -6  14   5    1.71    0.35
  -5  14   5    1.81    0.27
  -5  14   5    1.20    0.22
  -5  14   5    1.26    0.31
  -4  14   5    0.85    0.27
  -3  14   5    0.35    0.23
  -3  14   5    0.15    0.25
  -2  14   5   -0.16    0.22
  -2  14   5   -0.12    0.20
  -1  14   5    1.76    0.23
  -1  14   5    1.32    0.20
   0  14   5    4.07    0.36
   0  14   5    4.81    0.29
   1  14   5    0.25    0.15
   1  14   5    0.49    0.17
   2  14   5    9.37    0.43
   2  14   5    8.61    0.35
   3  14   5    6.52    0.38
   3  14   5    6.91    0.32
   3  14   5    6.87    0.41
   4  14   5   11.25    0.52
   4  14   5   10.49    0.49
   4  14   5    9.91    0.40
   5  14   5    9.32    0.53
   5  14   5    9.24    0.52
   6  14   5    1.99    0.29
   6  14   5    1.79    0.28
   7  14   5    0.31    0.27
   7  14   5    0.12    0.31
   8  14   5    3.49    0.43
   9  14   5    0.69    0.43
  -4  15   5    7.94    0.53
  -3  15   5   11.43    0.63
  -3  15   5   11.41    0.55
  -2  15   5    6.93    0.42
  -2  15   5    7.19    0.51
  -1  15   5   15.18    0.57
  -1  15   5   15.77    0.65
   0  15   5    6.33    0.41
   0  15   5    5.65    0.33
   1  15   5    2.23    0.20
   1  15   5    2.24    0.22
   2  15   5    5.49    0.29
   3  15   5    3.29    0.24
   3  15   5    3.70    0.26
   3  15   5    3.69    0.27
   4  15   5    0.21    0.16
   4  15   5    0.20    0.20
   4  15   5   -0.09    0.20
   5  15   5   -0.03    0.23
   5  15   5   -0.23    0.22
   6  15   5    1.55    0.28
   6  15   5    0.70    0.28
   7  15   5    3.59    0.39
   7  15   5    4.02    0.38
   8  15   5    3.36    0.43
   9  15   5    4.29    0.50
  -4  16   5    5.41    0.41
  -3  16   5    3.14    0.33
  -3  16   5    2.70    0.35
  -2  16   5    2.00    0.28
  -2  16   5    1.76    0.30
  -1  16   5    3.37    0.28
  -1  16   5    3.45    0.31
   0  16   5    1.81    0.23
   0  16   5    2.13    0.25
   1  16   5    0.25    0.18
   2  16   5    3.11    0.22
   3  16   5    2.01    0.20
   4  16   5    2.42    0.27
   4  16   5    2.17    0.21
   4  16   5    1.97    0.24
   5  16   5    1.93    0.29
   5  16   5    1.42    0.26
   6  16   5   10.33    0.64
   6  16   5    8.83    0.59
   7  16   5    4.83    0.43
   7  16   5    5.28    0.43
   8  16   5    4.43    0.47
  -3  17   5    0.56    0.31
  -2  17   5    0.34    0.31
  -2  17   5    0.15    0.27
  -1  17   5    2.32    0.31
  -1  17   5    2.22    0.28
   0  17   5    7.84    0.48
   0  17   5    7.29    0.40
   1  17   5    9.33    0.41
   2  17   5   11.95    0.45
   3  17   5    6.16    0.33
   5  17   5    3.09    0.30
   5  17   5    4.17    0.34
   6  17   5    3.88    0.36
   6  17   5    4.28    0.38
   7  17   5    0.95    0.37
   7  17   5    0.59    0.35
  -2  18   5    5.62    0.43
  -1  18   5    4.22    0.36
   1  18   5    1.41    0.23
   2  18   5    1.45    0.22
   5  14  -6    1.55    0.29
   5  14  -6    1.63    0.38
   5  14  -6    1.31    0.37
   4  14  -6    3.83    0.31
   4  14  -6    3.66    0.37
   3  14  -6    0.67    0.24
   3  14  -6    0.97    0.31
   2  14  -6    1.84    0.25
   1  14  -6    1.18    0.25
   1  14  -6    1.42    0.33
   0  14  -6    4.02    0.40
   0  14  -6    3.13    0.31
  -1  14  -6    4.16    0.45
  -1  14  -6    4.19    0.33
  -2  14  -6    4.36    0.49
   6  13  -6    2.24    0.41
   6  13  -6    1.50    0.40
   5  13  -6    1.54    0.27
   5  13  -6    1.55    0.37
   4  13  -6    2.28    0.35
   4  13  -6    2.54    0.27
   3  13  -6    2.35    0.33
   3  13  -6    2.55    0.26
   2  13  -6    2.45    0.25
   2  13  -6    2.70    0.32
   1  13  -6    6.67    0.52
   1  13  -6    6.39    0.38
   0  13  -6    7.28    0.41
   0  13  -6    7.96    0.57
  -1  13  -6    3.70    0.41
  -1  13  -6    3.30    0.29
  -2  13  -6    3.44    0.45
  -3  13  -6    0.31    0.44
  -4  13  -6    0.32    0.50
  -4  13  -6    1.34    0.35
   8  12  -6   -0.35    0.44
   7  12  -6    2.01    0.44
   6  12  -6    1.99    0.39
   6  12  -6    1.77    0.39
   5  12  -6    0.04    0.32
   5  12  -6    0.24    0.23
   4  12  -6    6.49    0.52
   4  12  -6    5.40    0.37
   3  12  -6    5.94    0.49
   3  12  -6    5.86    0.35
   2  12  -6   19.25    0.76
   2  12  -6   18.43    0.63
   1  12  -6    6.69    0.35
   1  12  -6    5.81    0.51
   0  12  -6    0.54    0.19
   0  12  -6    0.33    0.30
  -1  12  -6    0.09    0.33
  -1  12  -6   -0.07    0.20
  -2  12  -6    0.79    0.28
  -2  12  -6    0.86    0.37
  -2  12  -6    0.76    0.22
  -3  12  -6   -0.01    0.39
  -4  12  -6    0.48    0.46
  -5  12  -6    0.57    0.51
   8  11  -6    3.66    0.49
   7  11  -6    4.73    0.47
   6  11  -6    4.20    0.42
   6  11  -6    4.80    0.41
   5  11  -6    4.00    0.37
   5  11  -6    4.19    0.30
   4  11  -6    0.25    0.19
   4  11  -6   -0.03    0.28
   3  11  -6    0.98    0.27
   3  11  -6    0.82    0.19
   2  11  -6    0.05    0.17
   2  11  -6   -0.27    0.24
   1  11  -6   -0.08    0.25
   1  11  -6    0.23    0.17
   0  11  -6    2.66    0.32
   0  11  -6    2.69    0.22
  -1  11  -6    5.18    0.33
  -1  11  -6    5.13    0.40
  -2  11  -6    7.21    0.48
  -2  11  -6    6.68    0.38
  -2  11  -6    6.94    0.47
  -3  11  -6    3.96    0.44
  -4  11  -6    0.81    0.42
  -5  11  -6    0.79    0.47
  -6  11  -6    1.13    0.31
  -6  11  -6    0.57    0.30
   9  10  -6    1.68    0.49
   8  10  -6    2.75    0.45
   7  10  -6    0.34    0.37
   6  10  -6   -0.16    0.22
   6  10  -6   -0.31    0.31
   5  10  -6    0.50    0.21
   5  10  -6    0.57    0.29
   4  10  -6    0.53    0.26
   4  10  -6    0.66    0.20
   3  10  -6   -0.01    0.24
   3  10  -6   -0.07    0.17
   2  10  -6    4.83    0.29
   2  10  -6    4.50    0.31
   1  10  -6   11.73    0.57
   1  10  -6   11.67    0.45
  -1 -10   6   12.93    0.66
   0  10  -6   12.05    0.45
   0  10  -6   12.37    0.59
  -1  10  -6    5.74    0.50
  -1  10  -6    6.46    0.34
  -2  10  -6   25.14    0.92
  -2  10  -6   25.06    0.97
  -2  10  -6   24.57    0.80
  -3  10  -6    9.87    0.67
  -3  10  -6   10.64    0.59
  -4  10  -6    0.27    0.21
  -4  10  -6    0.42    0.36
  -5  10  -6   -0.28    0.39
  -5  10  -6   -0.20    0.29
  -5  10  -6    0.00    0.27
  -6  10  -6   -0.03    0.37
  -7  10  -6   -0.39    0.47
  10   9  -6   -0.10    0.33
   9   9  -6    1.44    0.46
   9   9  -6    1.20    0.35
   9   9  -6    1.16    0.29
   8   9  -6    3.07    0.33
   8   9  -6    3.05    0.29
   8   9  -6    2.82    0.44
   7   9  -6    4.20    0.41
   6   9  -6    9.89    0.51
   6   9  -6   10.51    0.62
   5   9  -6    7.31    0.51
   5   9  -6    8.25    0.42
   4   9  -6   16.89    0.59
   4   9  -6   16.21    0.68
   3   9  -6   17.90    0.69
   3   9  -6   17.00    0.59
   2   9  -6    1.36    0.19
   2   9  -6    1.26    0.23
  -2  -9   6    1.37    0.29
   1   9  -6    3.12    0.27
   1   9  -6    2.39    0.21
  -1  -9   6    3.29    0.37
   0   9  -6    0.82    0.23
   0   9  -6    0.68    0.17
   0  -9   6    1.02    0.31
  -1   9  -6    0.03    0.24
  -1   9  -6    0.59    0.18
  -1   9  -6    0.31    0.20
  -2   9  -6    0.38    0.19
  -2   9  -6    0.58    0.27
  -2   9  -6    0.72    0.23
  -3   9  -6    1.65    0.22
  -3   9  -6    1.58    0.28
  -3   9  -6    1.44    0.23
  -3   9  -6    1.55    0.31
  -4   9  -6    0.25    0.32
  -4   9  -6    0.24    0.27
  -4   9  -6    0.76    0.27
  -5   9  -6    0.39    0.37
  -5   9  -6    0.39    0.33
  -5   9  -6    0.59    0.31
  -6   9  -6    1.92    0.41
  -7   9  -6    2.83    0.50
  -7   9  -6    3.63    0.54
  -8   9  -6    3.87    0.65
  -8   9  -6    3.18    0.59
  10   8  -6    2.91    0.48
   9   8  -6    4.25    0.44
   8   8  -6    4.13    0.43
   8   8  -6    3.78    0.41
   8   8  -6    3.49    0.37
   7   8  -6   15.75    0.69
   7   8  -6   17.18    0.77
   7   8  -6   14.04    0.64
   6   8  -6   13.77    0.66
   6   8  -6   12.61    0.56
   6   8  -6   12.52    0.54
   6   8  -6   12.47    0.52
   5   8  -6    2.18    0.28
   5   8  -6    2.27    0.25
   4   8  -6    1.48    0.22
   4   8  -6    1.67    0.25
   3   8  -6    0.40    0.22
   3   8  -6    0.38    0.18
   2   8  -6    1.96    0.25
   2   8  -6    2.28    0.21
  -2  -8   6    2.44    0.39
  -2  -8   6    2.27    0.32
   1   8  -6    0.14    0.21
   1   8  -6    0.28    0.17
  -1  -8   6    0.51    0.27
  -1  -8   6    0.60    0.30
   0   8  -6    4.67    0.29
   0   8  -6    4.49    0.32
   0  -8   6    5.75    0.48
   0  -8   6    5.16    0.49
  -1   8  -6    5.26    0.46
  -1   8  -6    4.84    0.30
  -1   8  -6    5.22    0.42
   1  -8   6    4.29    0.44
   1  -8   6    5.16    0.46
  -2   8  -6    4.84    0.33
  -2   8  -6    5.17    0.33
  -2   8  -6    5.19    0.44
  -2   8  -6    5.11    0.36
  -2   8  -6    4.99    0.33
  -2   8  -6    5.38    0.43
   2  -8   6    5.19    0.46
  -3   8  -6    1.82    0.29
  -3   8  -6    1.84    0.29
  -3   8  -6    1.87    0.28
  -3   8  -6    1.07    0.26
  -3   8  -6    1.41    0.30
  -4   8  -6   14.37    0.67
  -4   8  -6   14.32    0.67
  -4   8  -6   15.10    0.75
  -4   8  -6   15.09    0.74
  -5   8  -6    9.81    0.59
  -5   8  -6   10.86    0.65
  -5   8  -6   10.61    0.70
  -6   8  -6    3.23    0.45
  -6   8  -6    1.64    0.39
  -7   8  -6    1.46    0.44
  -7   8  -6    1.50    0.47
  -8   8  -6    4.44    0.64
  -8   8  -6    4.02    0.60
  10   7  -6    2.08    0.48
   9   7  -6    0.41    0.36
   8   7  -6    2.81    0.37
   8   7  -6    2.35    0.38
   7   7  -6    1.15    0.30
   7   7  -6    0.85    0.31
   7   7  -6    1.19    0.34
   6   7  -6   -0.30    0.26
   6   7  -6    0.63    0.25
   6   7  -6    0.23    0.29
   6   7  -6    0.38    0.23
   5   7  -6    0.03    0.22
   5   7  -6    0.30    0.21
   5   7  -6   -0.20    0.20
   5   7  -6    0.29    0.24
   5   7  -6    0.16    0.24
   4   7  -6   10.55    0.55
   4   7  -6   10.07    0.46
   4   7  -6   10.60    0.43
   4   7  -6   10.87    0.53
   4   7  -6   10.47    0.44
  -4  -7   6   10.24    0.62
   3   7  -6   20.27    0.77
   3   7  -6   19.92    0.76
   3   7  -6   20.08    0.66
  -3  -7   6   19.43    0.87
  -3  -7   6   20.19    0.81
   2   7  -6   10.09    0.47
   2   7  -6    9.34    0.50
   2   7  -6    9.27    0.39
  -2  -7   6    9.12    0.56
   1   7  -6   10.90    0.51
   1   7  -6   12.30    0.54
   1   7  -6   10.45    0.42
  -1  -7   6    9.95    0.59
   0   7  -6   15.54    0.67
   0   7  -6   16.98    0.67
   0   7  -6   15.82    0.54
   0  -7   6   16.15    0.75
   0  -7   6   15.07    0.73
  -1   7  -6    5.54    0.31
  -1   7  -6    5.49    0.43
  -1   7  -6    5.90    0.44
  -1   7  -6    5.78    0.48
  -1   7  -6    5.07    0.32
  -1   7  -6    5.01    0.31
   1  -7   6    5.07    0.46
   1  -7   6    5.57    0.50
  -2   7  -6   15.91    0.55
  -2   7  -6   15.82    0.72
  -2   7  -6   15.71    0.67
  -2   7  -6   15.84    0.70
  -2   7  -6   15.09    0.62
  -2   7  -6   14.90    0.63
   2  -7   6   14.57    0.77
   2  -7   6   15.75    0.74
  -3   7  -6    1.44    0.30
  -3   7  -6    0.58    0.25
  -3   7  -6    0.73    0.28
  -3   7  -6    0.71    0.29
  -3   7  -6    1.24    0.28
  -4   7  -6    0.55    0.28
  -4   7  -6   -0.11    0.29
  -4   7  -6    0.09    0.28
  -4   7  -6    0.19    0.28
  -5   7  -6    0.10    0.31
  -5   7  -6    0.53    0.30
  -5   7  -6    0.07    0.31
  -6   7  -6   -0.34    0.33
  -6   7  -6    0.11    0.34
  -7   7  -6    0.20    0.37
  -7   7  -6    0.11    0.42
  -8   7  -6    0.87    0.54
  -8   7  -6    1.23    0.46
  -9   7  -6    0.84    0.66
  -9   7  -6    1.38    0.55
  11   6  -6    2.21    0.56
 -11  -6   6    1.39    0.55
  10   6  -6    1.31    0.46
 -10  -6   6    0.73    0.46
   9   6  -6    0.65    0.37
  -9  -6   6    0.63    0.35
   8   6  -6    1.18    0.35
   8   6  -6    0.98    0.35
  -8  -6   6    1.33    0.34
   7   6  -6   24.08    0.93
   7   6  -6   20.78    0.90
   7   6  -6   22.88    0.96
   7   6  -6   23.03    0.94
   6   6  -6    4.72    0.41
   6   6  -6    4.28    0.36
   6   6  -6    4.31    0.38
   6   6  -6    4.16    0.36
   6   6  -6    4.49    0.33
   5   6  -6    2.33    0.29
   5   6  -6    2.94    0.30
   5   6  -6    2.83    0.31
   5   6  -6    2.98    0.27
   5   6  -6    3.25    0.33
   4   6  -6   22.08    0.82
   4   6  -6   23.47    0.76
   4   6  -6   23.67    0.89
   4   6  -6   23.64    0.86
   4   6  -6   22.93    0.83
  -4  -6   6   22.91    0.89
   3   6  -6   16.95    0.64
   3   6  -6   18.00    0.70
   3   6  -6   16.73    0.68
   3   6  -6   16.61    0.59
  -3  -6   6   17.20    0.77
  -3  -6   6   17.66    0.72
   2   6  -6    8.45    0.48
   2   6  -6    7.78    0.37
   2   6  -6    8.43    0.43
   2   6  -6    8.55    0.38
  -2  -6   6    9.13    0.49
  -2  -6   6    8.49    0.52
   1   6  -6   17.96    0.61
   1   6  -6   18.11    0.69
   1   6  -6   17.05    0.69
   1   6  -6   17.13    0.58
  -1  -6   6   17.64    0.76
   0   6  -6   12.07    0.58
   0   6  -6   12.40    0.49
   0   6  -6   12.80    0.56
   0   6  -6   12.22    0.45
   0  -6   6   11.71    0.61
  -1   6  -6    2.65    0.25
  -1   6  -6    2.84    0.27
  -1   6  -6    2.89    0.28
  -1   6  -6    3.00    0.28
  -1   6  -6    2.70    0.22
   1  -6   6    2.53    0.35
   1  -6   6    3.51    0.37
  -2   6  -6    0.10    0.24
  -2   6  -6    0.01    0.21
  -2   6  -6   -0.16    0.25
  -2   6  -6   -0.02    0.22
  -2   6  -6   -0.06    0.25
  -2   6  -6    0.09    0.18
   2  -6   6   -0.13    0.30
  -3   6  -6    0.88    0.29
  -3   6  -6    0.80    0.25
  -3   6  -6    0.80    0.28
  -3   6  -6    0.80    0.26
  -3   6  -6    0.85    0.29
  -4   6  -6    0.88    0.29
  -4   6  -6    0.85    0.31
  -4   6  -6    1.32    0.33
  -4   6  -6    0.43    0.31
  -5   6  -6    3.30    0.39
  -5   6  -6    3.47    0.40
  -5   6  -6    2.90    0.36
  -6   6  -6    0.43    0.32
  -6   6  -6   -0.03    0.34
  -7   6  -6    0.39    0.38
  -7   6  -6    0.62    0.41
  -8   6  -6   12.74    0.92
  -8   6  -6   10.89    0.74
  -9   6  -6    3.41    0.56
  -9   6  -6    3.80    0.65
  11   5  -6    0.67    0.50
 -11  -5   6    0.75    0.53
  10   5  -6    3.23    0.49
 -10  -5   6    3.12    0.52
   9   5  -6    3.31    0.45
   8   5  -6   10.66    0.64
  -8  -5   6    8.63    0.63
   7   5  -6    1.81    0.37
   7   5  -6    1.53    0.32
   7   5  -6    1.81    0.32
  -7  -5   6    2.93    0.40
   6   5  -6   14.67    0.72
   6   5  -6   13.75    0.70
   6   5  -6   14.71    0.61
   6   5  -6   12.72    0.67
   6   5  -6   13.71    0.68
   5   5  -6   28.06    0.99
   5   5  -6   27.49    0.89
   5   5  -6   28.33    1.03
   5   5  -6   27.09    1.04
   5   5  -6   26.68    1.01
  -5  -5   6   26.64    1.02
   4   5  -6   37.04    1.29
   4   5  -6   36.99    1.23
   4   5  -6   35.63    1.09
   4   5  -6   35.81    1.24
   4   5  -6   35.93    1.23
  -4  -5   6   36.57    1.29
   3   5  -6   10.31    0.48
   3   5  -6    9.59    0.47
   3   5  -6   10.47    0.49
   3   5  -6    9.13    0.50
   3   5  -6    9.21    0.42
  -3  -5   6    9.54    0.54
  -3  -5   6    9.63    0.50
   2   5  -6    3.08    0.22
   2   5  -6    3.43    0.33
   2   5  -6    2.80    0.25
   2   5  -6    2.99    0.25
   2   5  -6    2.56    0.32
   2   5  -6    2.92    0.27
  -2  -5   6    2.98    0.34
  -2  -5   6    3.29    0.30
   1   5  -6   17.36    0.70
   1   5  -6   17.92    0.57
   1   5  -6   17.77    0.64
   1   5  -6   17.30    0.64
   1   5  -6   17.60    0.67
  -1  -5   6   17.54    0.73
   0   5  -6   18.41    0.59
   0   5  -6   17.96    0.71
   0   5  -6   17.50    0.66
   0   5  -6   17.66    0.69
   0   5  -6   19.08    0.66
   0  -5   6   17.09    0.74
  -1   5  -6    0.15    0.22
  -1   5  -6    0.05    0.18
  -1   5  -6    0.00    0.20
  -1   5  -6    0.18    0.16
  -1   5  -6    0.02    0.22
  -1   5  -6    0.37    0.21
   1  -5   6   -0.14    0.26
   1  -5   6   -0.07    0.26
  -2   5  -6   21.23    0.83
  -2   5  -6   21.77    0.83
  -2   5  -6   22.42    0.70
  -2   5  -6   21.21    0.85
  -2   5  -6   21.69    0.81
  -2   5  -6   22.19    0.82
   2  -5   6   20.65    0.92
  -3   5  -6    1.33    0.30
  -3   5  -6    0.98    0.26
  -3   5  -6    1.55    0.25
  -3   5  -6    1.24    0.29
  -3   5  -6    1.36    0.30
   3  -5   6    1.39    0.36
  -4   5  -6    3.22    0.34
  -4   5  -6    2.63    0.35
  -4   5  -6    4.01    0.39
  -4   5  -6    2.74    0.36
  -5   5  -6    7.36    0.61
  -5   5  -6    5.78    0.50
  -5   5  -6    5.86    0.50
  -6   5  -6    0.28    0.33
  -6   5  -6    0.67    0.31
  -7   5  -6    5.30    0.52
  -7   5  -6    5.90    0.51
  -8   5  -6    7.35    0.66
  -8   5  -6    6.79    0.61
  -9   5  -6    0.13    0.41
  -9   5  -6    0.14    0.55
 -10   5  -6    1.02    0.67
  11   4  -6    5.41    0.62
 -11  -4   6    6.61    0.72
  10   4  -6    4.73    0.55
 -10  -4   6    4.35    0.57
   9   4  -6    1.64    0.42
  -9  -4   6    0.85    0.39
   8   4  -6    1.67    0.39
  -8  -4   6    1.34    0.35
   7   4  -6    1.03    0.30
   7   4  -6    1.24    0.31
   7   4  -6    1.28    0.36
  -7  -4   6    1.88    0.37
   6   4  -6    0.31    0.34
   6   4  -6    1.32    0.30
   6   4  -6    1.09    0.34
   6   4  -6    1.29    0.24
   6   4  -6    1.23    0.27
   6   4  -6    1.45    0.29
  -6  -4   6    1.29    0.31
   5   4  -6    1.42    0.34
   5   4  -6    1.24    0.24
   5   4  -6    1.41    0.28
   5   4  -6    1.63    0.31
   5   4  -6    1.75    0.28
  -5  -4   6    1.51    0.28
   4   4  -6    4.08    0.28
   4   4  -6    4.86    0.41
   4   4  -6    4.28    0.36
   4   4  -6    3.95    0.36
   4   4  -6    3.80    0.30
  -4  -4   6    4.23    0.36
   3   4  -6   27.32    0.95
   3   4  -6   27.20    0.84
   3   4  -6   25.75    1.02
   3   4  -6   28.00    0.96
   3   4  -6   29.12    0.96
   3   4  -6   27.53    0.99
  -3  -4   6   26.95    1.00
   2   4  -6   -0.21    0.20
   2   4  -6   -0.04    0.15
   2   4  -6    0.00    0.16
   2   4  -6   -0.02    0.18
   2   4  -6   -0.07    0.22
   2   4  -6    0.16    0.18
  -2  -4   6    0.12    0.20
  -2  -4   6    0.01    0.23
   1   4  -6   17.47    0.69
   1   4  -6   19.49    0.69
   1   4  -6   19.02    0.73
   1   4  -6   18.94    0.60
   1   4  -6   19.61    0.71
  -1  -4   6   19.62    0.75
   0   4  -6   32.09    1.09
   0   4  -6   34.47    1.10
   0   4  -6   32.08    0.96
   0   4  -6   32.98    1.15
   0  -4   6   32.67    1.16
  -1   4  -6   69.05    2.11
  -1   4  -6   68.79    2.09
  -1   4  -6   66.97    1.87
  -1   4  -6   66.46    2.10
  -1   4  -6   65.23    2.22
   1  -4   6   65.93    2.21
  -2   4  -6   62.91    1.78
  -2   4  -6   61.44    2.12
  -2   4  -6   63.10    2.01
  -2   4  -6   65.52    2.00
  -2   4  -6   64.70    2.02
   2  -4   6   62.50    2.20
  -3   4  -6   18.92    0.80
  -3   4  -6   19.22    0.80
  -3   4  -6   19.14    0.78
  -3   4  -6   19.97    0.78
  -4   4  -6    5.35    0.46
  -4   4  -6    4.45    0.35
  -4   4  -6    7.37    0.58
  -4   4  -6    5.07    0.43
  -4   4  -6    4.80    0.38
  -5   4  -6   -0.10    0.31
  -5   4  -6    0.43    0.30
  -5   4  -6   -0.19    0.27
  -6   4  -6    0.29    0.30
  -6   4  -6    0.04    0.31
  -7   4  -6    0.15    0.36
  -7   4  -6   -0.39    0.34
  -8   4  -6    0.65    0.48
  -8   4  -6    1.33    0.43
  -9   4  -6    0.45    0.54
 -10   4  -6    2.48    0.73
 -11  -3   6    2.89    0.61
  10   3  -6    0.39    0.46
 -10  -3   6    0.12    0.45
   9   3  -6    1.96    0.46
  -9  -3   6    1.60    0.40
   8   3  -6    0.16    0.32
   8   3  -6    0.03    0.36
  -8  -3   6   -0.43    0.32
   7   3  -6    0.20    0.29
   7   3  -6    0.29    0.23
   7   3  -6   -0.02    0.29
   7   3  -6   -0.09    0.34
  -7  -3   6    0.27    0.35
   6   3  -6   39.07    1.41
   6   3  -6   41.12    1.38
   6   3  -6   39.37    1.44
   6   3  -6   39.21    1.39
  -6  -3   6   39.15    1.43
   5   3  -6    8.79    0.56
   5   3  -6    8.23    0.45
   5   3  -6    9.41    0.46
   5   3  -6    7.98    0.53
   5   3  -6    8.16    0.52
   5   3  -6    9.10    0.56
  -5  -3   6    8.33    0.49
   4   3  -6   65.34    1.78
   4   3  -6   63.08    1.97
   4   3  -6   60.01    2.09
   4   3  -6   63.01    2.02
   4   3  -6   63.26    2.10
   4   3  -6   60.67    2.01
  -4  -3   6   62.35    2.10
   3   3  -6   51.90    1.72
   3   3  -6   50.63    1.46
   3   3  -6   51.00    1.65
   3   3  -6   50.67    1.61
   3   3  -6   50.67    1.72
   3   3  -6   50.63    1.65
  -3  -3   6   51.18    1.73
   2   3  -6   16.43    0.64
   2   3  -6   15.46    0.52
   2   3  -6   16.37    0.62
   2   3  -6   16.63    0.63
   2   3  -6   15.03    0.62
   2   3  -6   15.49    0.60
  -2  -3   6   15.03    0.63
  -2  -3   6   14.89    0.63
   1   3  -6   80.97    2.62
   1   3  -6   86.17    2.51
   1   3  -6   79.68    2.22
   1   3  -6   79.28    2.63
   1   3  -6   80.66    2.50
   1   3  -6   79.70    2.47
  -1  -3   6   77.20    2.61
   0   3  -6   38.59    1.12
   0   3  -6   38.95    1.28
   0   3  -6   39.36    1.28
   0   3  -6   38.76    1.33
   0   3  -6   40.13    1.27
   0  -3   6   37.93    1.32
  -1   3  -6   25.64    0.87
  -1   3  -6   25.08    0.88
  -1   3  -6   24.94    0.76
  -1   3  -6   26.83    0.89
  -1   3  -6   25.30    0.92
  -1   3  -6   25.41    0.90
   1  -3   6   24.29    0.90
  -2   3  -6    1.48    0.20
  -2   3  -6    1.66    0.25
  -2   3  -6    1.74    0.18
  -2   3  -6    2.25    0.25
  -2   3  -6    1.86    0.22
  -2   3  -6    1.91    0.26
  -3   3  -6   12.19    0.57
  -3   3  -6   12.00    0.57
  -3   3  -6   11.64    0.56
  -3   3  -6   12.83    0.59
  -3   3  -6   12.19    0.62
  -4   3  -6    0.37    0.30
  -4   3  -6    0.12    0.23
  -4   3  -6    0.34    0.23
  -4   3  -6   -0.16    0.27
  -4   3  -6   -0.12    0.27
   4  -3   6    0.07    0.29
  -5   3  -6    0.06    0.28
  -5   3  -6    0.14    0.30
  -5   3  -6    0.42    0.33
   5  -3   6    0.49    0.35
  -6   3  -6   16.27    0.82
  -6   3  -6   16.45    0.80
  -7   3  -6    1.58    0.38
  -7   3  -6    1.30    0.38
  -8   3  -6    2.46    0.43
  -8   3  -6    1.70    0.46
  -9   3  -6    1.16    0.53
 -10   3  -6    2.97    0.71
 -11  -2   6    2.87    0.67
 -10  -2   6    4.89    0.61
   9   2  -6    7.41    0.65
  -9  -2   6    6.46    0.57
   8   2  -6    1.44    0.34
   8   2  -6    1.52    0.43
  -8  -2   6    2.02    0.38
   7   2  -6   12.49    0.76
   7   2  -6   13.70    0.64
   7   2  -6   14.00    0.69
  -7  -2   6   13.99    0.68
  -7  -2   6   16.24    0.84
   6   2  -6    5.26    0.39
   6   2  -6    5.28    0.39
   6   2  -6    5.50    0.45
   6   2  -6    5.46    0.47
  -6  -2   6    5.02    0.48
   5   2  -6    3.20    0.37
   5   2  -6    2.67    0.28
   5   2  -6    3.11    0.36
   5   2  -6    3.61    0.32
   5   2  -6    2.73    0.30
   5   2  -6    3.04    0.27
  -5  -2   6    3.03    0.32
   4   2  -6   13.14    0.62
   4   2  -6   14.66    0.63
   4   2  -6   14.86    0.66
   4   2  -6   14.33    0.53
   4   2  -6   14.19    0.61
   4   2  -6   14.49    0.62
   4   2  -6   14.44    0.59
  -4  -2   6   13.97    0.61
   3   2  -6    1.57    0.19
   3   2  -6    1.61    0.26
   3   2  -6    1.55    0.20
   3   2  -6    1.52    0.20
   3   2  -6    1.32    0.20
   3   2  -6    1.67    0.23
   3   2  -6    1.46    0.25
  -3  -2   6    1.26    0.22
   2   2  -6   49.00    1.56
   2   2  -6   50.63    1.60
   2   2  -6   50.36    1.67
   2   2  -6   49.21    1.65
   2   2  -6   51.28    1.61
   2   2  -6   49.22    1.41
  -2  -2   6   47.90    1.68
   1   2  -6    1.59    0.19
   1   2  -6    1.15    0.19
   1   2  -6    1.18    0.21
   1   2  -6    1.56    0.17
   1   2  -6    1.64    0.22
   1   2  -6    1.67    0.23
  -1  -2   6    1.35    0.22
  -1  -2   6    1.19    0.21
   0   2  -6   18.05    0.68
   0   2  -6   17.34    0.68
   0   2  -6   18.50    0.57
   0   2  -6   17.82    0.67
   0   2  -6   17.94    0.68
   0  -2   6   17.55    0.67
  -1   2  -6   33.82    1.08
  -1   2  -6   31.96    1.15
  -1   2  -6   33.16    1.12
  -1   2  -6   34.27    1.12
  -1   2  -6   32.22    1.09
  -1   2  -6   32.44    0.96
   1  -2   6   31.72    1.11
  -2   2  -6   81.14    2.51
  -2   2  -6   82.70    2.26
  -2   2  -6   77.58    2.56
  -2   2  -6   82.46    2.52
  -2   2  -6   81.23    2.68
  -2   2  -6   84.17    2.57
  -3   2  -6   37.74    1.28
  -3   2  -6   37.29    1.23
  -3   2  -6   37.58    1.08
  -3   2  -6   37.30    1.23
  -3   2  -6   34.76    1.29
  -3   2  -6   36.29    1.26
   3  -2   6   36.40    1.35
  -4   2  -6   13.34    0.67
  -4   2  -6   13.86    0.65
  -4   2  -6   14.17    0.65
  -4   2  -6   14.54    0.64
  -4   2  -6   13.07    0.65
   4  -2   6   14.34    0.71
  -5   2  -6   32.96    1.27
  -5   2  -6   34.30    1.29
  -5   2  -6   38.19    1.27
   5  -2   6   34.50    1.35
  -6   2  -6   20.24    0.87
  -6   2  -6   18.03    0.85
  -7   2  -6    1.17    0.36
  -7   2  -6    1.04    0.37
  -8   2  -6    9.66    0.72
  -9   2  -6    1.60    0.52
 -10   2  -6    0.49    0.64
 -11   2  -6    0.19    0.70
 -12  -1   6    2.56    0.73
 -11  -1   6    1.87    0.68
 -10  -1   6   11.51    0.82
  -9  -1   6    6.33    0.58
   8   1  -6    4.11    0.51
   8   1  -6    3.63    0.38
   8   1  -6    3.94    0.44
  -8  -1   6    4.16    0.45
   7   1  -6    4.70    0.41
   7   1  -6    5.53    0.43
   7   1  -6    4.96    0.50
  -7  -1   6    5.81    0.48
  -7  -1   6    2.94    0.48
   6   1  -6    0.39    0.26
   6   1  -6    0.18    0.27
   6   1  -6    0.07    0.26
   6   1  -6   -0.19    0.34
  -6  -1   6    0.59    0.30
   5   1  -6    5.06    0.41
   5   1  -6    4.09    0.30
   5   1  -6    4.48    0.36
   5   1  -6    4.50    0.33
   5   1  -6    4.50    0.41
   5   1  -6    4.14    0.40
  -5  -1   6    4.47    0.41
   4   1  -6   -0.18    0.25
   4   1  -6    0.00    0.17
   4   1  -6    0.08    0.19
   4   1  -6   -0.06    0.19
   4   1  -6   -0.54    0.22
   4   1  -6    0.29    0.19
  -4  -1   6   -0.02    0.22
   3   1  -6   33.20    1.14
   3   1  -6   33.52    1.15
   3   1  -6   31.76    1.12
   3   1  -6   32.09    1.08
   3   1  -6   32.19    1.13
   3   1  -6   32.87    0.97
   3   1  -6   32.60    1.12
  -3  -1   6   32.16    1.15
   2   1  -6   94.58    2.95
   2   1  -6   94.46    3.09
   2   1  -6   95.58    2.95
   2   1  -6   94.72    3.04
   2   1  -6   93.84    3.11
   2   1  -6   94.96    2.61
   2   1  -6   94.35    2.89
  -2  -1   6   96.94    3.11
   1   1  -6   69.71    2.31
   1   1  -6   70.33    2.22
   1   1  -6   69.38    1.95
   1   1  -6   71.99    2.17
   1   1  -6   70.50    2.28
   1   1  -6   72.49    2.22
  -1  -1   6   72.00    2.34
  -1  -1   6   68.15    2.27
   0   1  -6   32.53    1.09
   0   1  -6   32.45    1.09
   0   1  -6   30.65    1.06
   0   1  -6   32.99    1.12
   0   1  -6   32.71    0.94
   0  -1   6   32.16    1.08
  -1   1  -6   36.51    1.29
  -1   1  -6   38.49    1.27
  -1   1  -6   37.86    1.25
  -1   1  -6   39.14    1.09
  -1   1  -6   36.53    1.23
   1  -1   6   38.00    1.25
  -2   1  -6  140.51    4.27
  -2   1  -6  141.65    4.54
  -2   1  -6  132.19    4.32
  -2   1  -6  141.28    3.84
  -2   1  -6  143.54    4.33
  -2   1  -6  145.96    4.28
  -3   1  -6  106.12    3.20
  -3   1  -6  104.36    3.41
  -3   1  -6  102.49    3.26
  -3   1  -6  103.49    3.27
  -3   1  -6  105.12    3.21
  -3   1  -6  107.65    2.88
   3  -1   6  101.71    3.27
  -4   1  -6   29.52    1.07
  -4   1  -6   29.51    1.08
  -4   1  -6   28.84    1.05
  -4   1  -6   29.42    1.04
  -4   1  -6   29.00    0.89
  -4   1  -6   29.06    1.07
  -4   1  -6   29.05    1.08
   4  -1   6   29.11    1.13
   4  -1   6   29.64    1.07
  -5   1  -6    2.19    0.31
  -5   1  -6    1.97    0.32
  -5   1  -6    2.13    0.35
   5  -1   6    1.93    0.36
  -6   1  -6    1.68    0.36
  -6   1  -6    2.25    0.35
   6  -1   6    1.41    0.37
  -7   1  -6   -0.06    0.34
  -7   1  -6    0.48    0.33
  -8   1  -6   -0.36    0.40
  -9   1  -6    0.63    0.49
 -10   1  -6    0.51    0.58
 -11   1  -6    1.60    0.75
 -12   0   6    0.30    0.69
 -11   0   6    0.22    0.65
 -10   0   6    4.15    0.62
  -9   0   6    1.10    0.44
   8   0  -6    0.63    0.37
   8   0  -6    0.66    0.30
   8   0  -6   -0.09    0.31
  -8   0   6    0.86    0.38
   7   0  -6    6.37    0.48
   7   0  -6    6.66    0.52
   7   0  -6    6.21    0.54
  -7   0   6    4.24    0.50
  -7   0   6    7.08    0.53
   6   0  -6    6.74    0.51
   6   0  -6    7.44    0.47
   6   0  -6    6.89    0.55
   6   0  -6    7.06    0.56
  -6   0   6    6.94    0.49
   5   0  -6    1.72    0.24
   5   0  -6    1.24    0.33
   5   0  -6    1.56    0.35
   5   0  -6    1.45    0.26
   5   0  -6    1.42    0.26
   5   0  -6    1.74    0.27
  -5   0   6    1.88    0.34
  -5   0   6    1.43    0.30
   4   0  -6   39.21    1.29
   4   0  -6   38.57    1.37
   4   0  -6   36.97    1.33
   4   0  -6   39.18    1.37
   4   0  -6   41.13    1.36
   4   0  -6   40.69    1.17
  -4   0   6   39.47    1.35
  -4   0   6   38.94    1.38
   3   0  -6   29.48    1.04
   3   0  -6   28.78    1.03
   3   0  -6   29.66    0.88
   3   0  -6   29.10    1.03
   3   0  -6   29.63    1.04
   3   0  -6   28.21    0.98
  -3   0   6   30.31    0.88
  -3   0   6   29.50    1.03
  -3   0   6   28.22    1.05
   2   0  -6    0.62    0.20
   2   0  -6    0.70    0.16
   2   0  -6    0.47    0.16
   2   0  -6    0.50    0.17
   2   0  -6    0.87    0.21
   2   0  -6    0.65    0.17
   2   0  -6    0.78    0.16
  -2   0   6    0.41    0.14
  -2   0   6    0.58    0.22
  -2   0   6    0.42    0.19
   1   0  -6    1.79    0.19
   1   0  -6    1.79    0.17
   1   0  -6    1.56    0.23
   1   0  -6    1.31    0.16
   1   0  -6    1.53    0.23
   1   0  -6    1.50    0.17
  -1   0   6    1.37    0.15
  -1   0   6    1.52    0.20
   0   0  -6  117.18    3.54
   0   0  -6  118.26    3.14
   0   0  -6  117.61    3.64
   0   0  -6  109.31    3.54
   0   0  -6  117.21    3.72
   0   0  -6  113.88    3.49
   0   0   6  112.40    3.13
   0   0   6  115.74    3.75
   0   0   6  113.65    3.63
  -1   0  -6   43.32    1.48
  -1   0  -6   43.40    1.39
  -1   0  -6   44.89    1.43
  -1   0  -6   44.24    1.24
  -1   0  -6   43.28    1.43
   1   0   6   45.54    1.44
   1   0   6   43.51    1.42
   1   0   6   42.15    1.23
  -2   0  -6   28.91    0.98
  -2   0  -6   28.42    1.01
  -2   0  -6   27.96    1.00
  -2   0  -6   29.42    0.85
  -2   0  -6   28.33    1.00
   2   0   6   27.27    1.00
   2   0   6   28.76    1.01
  -3   0  -6    4.01    0.26
  -3   0  -6    3.38    0.32
  -3   0  -6    4.52    0.39
  -3   0  -6    4.05    0.35
   3   0   6    4.02    0.34
  -4   0  -6   30.50    1.12
  -4   0  -6   31.23    1.16
  -4   0  -6   33.23    1.17
  -4   0  -6   32.78    1.16
  -4   0  -6   32.40    0.98
  -4   0  -6   32.19    1.16
   4   0   6   32.39    1.21
   4   0   6   34.43    1.18
  -5   0  -6    2.25    0.32
  -5   0  -6    2.78    0.37
  -5   0  -6    2.29    0.32
   5   0   6    3.04    0.37
   5   0   6    2.69    0.36
  -6   0  -6   52.01    1.80
  -6   0  -6   51.78    1.77
   6   0   6   49.14    1.83
  -7   0  -6   27.59    1.11
   7   0   6   26.05    1.12
  -8   0  -6    4.47    0.49
  -9   0  -6    3.15    0.52
 -10   0  -6    3.27    0.62
 -11   0  -6    3.45    0.76
 -11   1   6    0.25    0.61
 -10   1   6    2.09    0.54
  -9   1   6    3.76    0.52
   8  -1  -6   10.23    0.64
   8  -1  -6   10.11    0.60
  -8   1   6    8.51    0.65
   7  -1  -6   17.94    0.89
   7  -1  -6   18.67    0.83
   7  -1  -6   18.86    0.85
  -7   1   6   19.17    0.96
   6  -1  -6   22.10    0.93
   6  -1  -6   21.44    0.90
   6  -1  -6   22.08    0.94
  -6   1   6   21.87    0.93
   5  -1  -6   14.49    0.61
   5  -1  -6   16.04    0.72
   5  -1  -6   14.03    0.67
   5  -1  -6   14.47    0.66
   5  -1  -6   14.57    0.67
  -5   1   6   14.77    0.56
  -5   1   6   15.23    0.71
  -5   1   6   14.55    0.69
   4  -1  -6    7.95    0.44
   4  -1  -6    8.35    0.49
   4  -1  -6    7.55    0.45
   4  -1  -6    8.97    0.42
   4  -1  -6    7.36    0.45
  -4   1   6    8.49    0.49
  -4   1   6    8.32    0.48
  -4   1   6    8.80    0.39
   3  -1  -6    0.71    0.22
   3  -1  -6    0.86    0.18
   3  -1  -6    1.09    0.18
   3  -1  -6    0.78    0.24
   3  -1  -6    0.84    0.21
   3  -1  -6    0.79    0.18
  -3   1   6    0.97    0.22
  -3   1   6    0.82    0.18
  -3   1   6    1.23    0.24
   2  -1  -6   21.95    0.83
   2  -1  -6   22.56    0.81
   2  -1  -6   23.27    0.70
   2  -1  -6   22.58    0.82
   2  -1  -6   22.79    0.79
   2  -1  -6   22.58    0.83
  -2   1   6   23.14    0.83
  -2   1   6   24.23    0.70
  -2   1   6   22.48    0.84
   1  -1  -6   23.97    0.75
   1  -1  -6   24.90    0.89
   1  -1  -6   25.21    0.89
   1  -1  -6   23.69    0.88
   1  -1  -6   24.63    0.84
   1  -1  -6   25.49    0.85
  -1   1   6   25.36    0.90
  -1   1   6   25.21    0.75
  -1   1   6   25.62    0.89
   0  -1  -6   11.16    0.51
   0  -1  -6   11.86    0.43
   0  -1  -6   12.41    0.53
   0  -1  -6   11.57    0.51
   0  -1  -6   11.94    0.42
   0  -1  -6   13.58    0.54
   0   1   6   11.16    0.54
   0   1   6   11.47    0.42
   0   1   6   11.11    0.49
  -1  -1  -6   42.32    1.39
  -1  -1  -6   42.36    1.21
  -1  -1  -6   42.06    1.35
  -1  -1  -6   42.17    1.43
   1   1   6   41.55    1.20
   1   1   6   44.46    1.39
   1   1   6   40.87    1.35
  -2  -1  -6   37.13    1.31
  -2  -1  -6   38.38    1.25
  -2  -1  -6   38.03    1.28
  -2  -1  -6   37.18    1.10
   2   1   6   39.67    1.29
   2   1   6   39.31    1.29
   2   1   6   39.03    1.10
  -3  -1  -6   87.96    2.67
  -3  -1  -6   86.18    2.84
  -3  -1  -6   88.21    2.39
  -3  -1  -6   83.24    2.72
   3   1   6   86.95    2.73
  -4  -1  -6   24.94    0.95
  -4  -1  -6   23.18    0.93
  -4  -1  -6   26.82    0.92
  -4  -1  -6   24.53    0.77
   4   1   6   24.77    0.96
   4   1   6   25.57    0.96
  -5  -1  -6   38.35    1.15
  -5  -1  -6   39.55    1.38
  -5  -1  -6   39.80    1.34
  -5  -1  -6   39.14    1.39
   5   1   6   38.39    1.41
   5   1   6   36.68    1.36
  -6  -1  -6   27.94    1.08
  -6  -1  -6   26.54    1.09
   6   1   6   26.85    1.09
   6   1   6   27.51    1.10
  -7  -1  -6   15.50    0.79
   7   1   6   14.69    0.76
  -8  -1  -6    9.71    0.66
   8   1   6    9.64    0.64
  -9  -1  -6    0.50    0.44
 -10  -1  -6    2.63    0.58
 -11  -1  -6    0.81    0.65
 -11   2   6   14.28    1.12
 -10   2   6    7.66    0.72
  -9   2   6    0.12    0.43
  -8   2   6   10.94    0.71
   7  -2  -6   20.07    0.90
   7  -2  -6   19.10    0.89
  -7   2   6   22.67    0.97
   6  -2  -6   12.37    0.69
   6  -2  -6   13.87    0.68
   6  -2  -6   14.12    0.69
  -6   2   6   14.22    0.71
  -6   2   6   14.46    0.74
   5  -2  -6    1.54    0.29
   5  -2  -6    1.15    0.25
   5  -2  -6    1.27    0.25
   5  -2  -6    0.98    0.33
   5  -2  -6    1.05    0.23
  -5   2   6    1.15    0.30
  -5   2   6    0.93    0.29
  -5   2   6    1.26    0.23
   4  -2  -6    4.02    0.37
   4  -2  -6    3.57    0.27
   4  -2  -6    3.15    0.24
   4  -2  -6    3.97    0.35
   4  -2  -6    3.58    0.34
  -4   2   6    3.75    0.34
  -4   2   6    2.93    0.24
  -4   2   6    3.07    0.33
   3  -2  -6    1.32    0.19
   3  -2  -6    1.23    0.19
   3  -2  -6    1.60    0.27
   3  -2  -6    1.51    0.23
   3  -2  -6    0.99    0.18
  -3   2   6    1.05    0.18
  -3   2   6    1.02    0.26
   2  -2  -6   30.82    1.07
   2  -2  -6   30.70    1.04
   2  -2  -6   30.46    1.06
   2  -2  -6   29.77    0.89
  -2   2   6   29.83    0.89
  -2   2   6   29.57    1.07
  -2   2   6   30.03    1.04
   1  -2  -6   71.56    2.20
   1  -2  -6   68.16    2.29
   1  -2  -6   69.21    1.93
  -1   2   6   71.61    2.21
  -1   2   6   69.24    2.30
  -1   2   6   68.91    1.93
   0  -2  -6   75.36    2.87
   0  -2  -6   95.34    2.75
   0  -2  -6   88.30    2.42
   0  -2  -6   89.81    2.77
   0  -2  -6   89.46    2.87
   0   2   6   91.60    2.42
   0   2   6   83.99    2.74
   0   2   6   91.56    2.89
  -1  -2  -6    5.91    0.40
  -1  -2  -6    6.63    0.31
  -1  -2  -6    6.50    0.37
   1   2   6    5.61    0.30
   1   2   6    6.66    0.40
   1   2   6    5.89    0.34
  -2  -2  -6   29.67    1.00
  -2  -2  -6   29.44    0.85
  -2  -2  -6   27.40    1.00
   2   2   6   28.17    0.84
   2   2   6   28.17    1.00
   2   2   6   27.97    0.98
  -3  -2  -6   53.21    1.45
  -3  -2  -6   50.23    1.66
  -3  -2  -6   49.35    1.71
   3   2   6   49.88    1.61
   3   2   6   51.43    1.67
  -4  -2  -6   52.22    1.51
  -4  -2  -6   52.86    1.80
  -4  -2  -6   52.77    1.76
   4   2   6   53.76    1.70
   4   2   6   53.88    1.76
  -5  -2  -6   50.56    1.74
  -5  -2  -6   52.01    1.72
   5   2   6   48.77    1.71
   5   2   6   50.68    1.76
   5   2   6   49.57    1.64
  -6  -2  -6    1.41    0.31
  -6  -2  -6    0.70    0.34
   6   2   6    0.86    0.31
   6   2   6    0.64    0.37
  -7  -2  -6    0.35    0.31
   7   2   6    0.58    0.33
  -8  -2  -6   10.50    0.67
   8   2   6   10.75    0.64
  -9  -2  -6    5.60    0.58
 -10  -2  -6    2.82    0.57
 -11  -2  -6    4.05    0.73
 -12  -2  -6    3.25    0.81
 -11   3   6   15.24    1.11
 -10   3   6    4.24    0.64
  -9   3   6    0.05    0.44
  -8   3   6    0.70    0.38
   7  -3  -6    0.70    0.34
   7  -3  -6    0.18    0.30
  -7   3   6   -0.11    0.35
   6  -3  -6    5.78    0.48
   6  -3  -6    4.90    0.44
  -6   3   6    5.48    0.50
  -6   3   6    5.38    0.49
   5  -3  -6   12.75    0.69
   5  -3  -6   12.48    0.63
   5  -3  -6   13.18    0.63
  -5   3   6   13.22    0.67
  -5   3   6   13.63    0.67
  -5   3   6   11.73    0.53
   4  -3  -6   64.17    2.04
   4  -3  -6   61.54    2.09
   4  -3  -6   62.29    2.12
  -4   3   6   60.16    2.01
  -4   3   6   62.92    1.77
  -4   3   6   61.23    2.13
   3  -3  -6   46.15    1.55
   3  -3  -6   44.71    1.53
   3  -3  -6   43.80    1.49
   3  -3  -6   44.67    1.30
  -3   3   6   43.60    1.48
  -3   3   6   45.51    1.30
  -3   3   6   44.56    1.57
   2  -3  -6   12.73    0.56
   2  -3  -6   12.58    0.53
   2  -3  -6   13.29    0.46
  -2   3   6   12.23    0.53
  -2   3   6   13.40    0.46
  -2   3   6   12.17    0.55
   1  -3  -6  112.18    3.09
   1  -3  -6  115.48    3.66
   1  -3  -6  114.54    3.49
  -1   3   6  113.82    3.49
  -1   3   6  112.54    3.69
  -1   3   6  112.08    3.50
  -1   3   6  111.79    3.09
   0  -3  -6    8.66    0.44
   0  -3  -6    8.35    0.41
   0  -3  -6    8.27    0.35
   0  -3  -6    8.64    0.40
   0   3   6    8.62    0.41
   0   3   6    8.69    0.45
   0   3   6    7.88    0.42
  -1  -3  -6    0.04    0.14
  -1  -3  -6   -0.31    0.13
  -1  -3  -6    0.00    0.20
   1   3   6    0.15    0.20
   1   3   6    0.15    0.14
   1   3   6    0.10    0.21
   1   3   6    0.12    0.16
  -2  -3  -6   74.74    2.28
  -2  -3  -6   71.93    2.00
  -2  -3  -6   72.94    2.37
   2   3   6   71.39    2.00
   2   3   6   69.85    2.27
   2   3   6   75.51    2.28
   2   3   6   70.70    2.37
   2   3   6   70.37    2.27
   2   3   6   72.17    2.23
  -3  -3  -6    9.34    0.48
  -3  -3  -6    7.65    0.43
   3   3   6    8.69    0.36
   3   3   6    8.87    0.45
   3   3   6    8.24    0.47
   3   3   6    8.13    0.47
  -4  -3  -6    0.40    0.24
  -4  -3  -6    0.65    0.19
   4   3   6    0.58    0.18
   4   3   6    0.53    0.24
   4   3   6    0.12    0.24
  -5  -3  -6   37.32    1.32
  -5  -3  -6   36.03    1.34
  -5  -3  -6   37.34    1.13
   5   3   6   37.34    1.28
   5   3   6   38.59    1.34
   5   3   6   38.40    1.34
  -6  -3  -6   24.11    0.97
   6   3   6   23.83    0.96
   6   3   6   24.19    1.00
  -7  -3  -6   14.31    0.72
   7   3   6   12.90    0.75
   7   3   6   14.73    0.70
  -8  -3  -6    5.34    0.48
   8   3   6    5.30    0.49
  -9  -3  -6    1.43    0.43
 -10  -3  -6   15.76    1.00
 -11  -3  -6    2.57    0.67
 -12  -3  -6    0.92    0.74
 -11   4   6    0.24    0.72
 -10   4   6   10.00    0.88
  -9   4   6    8.37    0.77
  -8   4   6   23.68    1.08
   7  -4  -6   30.72    1.20
  -7   4   6   29.79    1.27
   6  -4  -6   33.12    1.25
   6  -4  -6   35.73    1.30
  -6   4   6   34.31    1.26
  -6   4   6   29.47    1.30
   5  -4  -6    8.61    0.55
   5  -4  -6    8.68    0.56
   5  -4  -6    9.88    0.62
  -5   4   6    9.49    0.48
  -5   4   6    9.19    0.58
  -5   4   6    9.28    0.58
   4  -4  -6   25.67    0.94
   4  -4  -6   24.20    0.96
   4  -4  -6   25.13    0.96
  -4   4   6   25.43    0.99
  -4   4   6   24.67    0.95
  -4   4   6   23.54    0.80
  -4   4   6   25.44    0.95
   3  -4  -6    8.73    0.50
   3  -4  -6    8.42    0.47
   3  -4  -6    8.39    0.44
  -3   4   6    8.85    0.48
  -3   4   6    8.43    0.49
  -3   4   6    8.46    0.48
  -3   4   6    8.14    0.39
   2  -4  -6   29.52    1.02
   2  -4  -6   29.39    1.04
  -2   4   6   28.96    1.02
  -2   4   6   28.77    1.08
  -2   4   6   29.65    0.88
  -2   4   6   29.46    1.02
   1  -4  -6    2.65    0.20
   1  -4  -6    3.47    0.27
   1  -4  -6    2.97    0.26
  -1   4   6    2.81    0.27
  -1   4   6    2.84    0.25
  -1   4   6    3.09    0.21
  -1   4   6    2.82    0.23
  -1   4   6    2.98    0.26
   0  -4  -6    3.48    0.27
   0  -4  -6    3.71    0.31
   0   4   6    3.74    0.29
   0   4   6    3.77    0.32
   0   4   6    3.43    0.23
   0   4   6    3.99    0.23
   0   4   6    3.96    0.33
  -1  -4  -6    2.81    0.15
  -1  -4  -6    2.64    0.22
  -1  -4  -6    3.39    0.25
   1   4   6    2.84    0.26
   1   4   6    3.01    0.23
   1   4   6    3.19    0.25
   1   4   6    2.85    0.21
   1   4   6    3.34    0.27
  -2  -4  -6   36.80    1.25
   2   4   6   37.90    1.24
   2   4   6   38.56    1.19
   2   4   6   36.42    1.22
   2   4   6   35.63    1.17
   2   4   6   35.86    1.06
   2   4   6   36.88    1.24
   2   4   6   33.97    1.18
  -3  -4  -6   11.57    0.53
  -3  -4  -6   10.32    0.50
   3   4   6   10.90    0.46
   3   4   6   10.53    0.41
   3   4   6   10.14    0.40
   3   4   6   12.00    0.51
   3   4   6   10.98    0.50
   3   4   6   10.67    0.52
   3   4   6   11.18    0.53
  -4  -4  -6   63.78    2.28
  -4  -4  -6   70.04    2.21
   4   4   6   68.75    2.20
   4   4   6   70.22    2.21
   4   4   6   70.68    2.15
  -5  -4  -6   80.28    2.69
  -5  -4  -6   81.64    2.61
   5   4   6   81.65    2.69
   5   4   6   81.37    2.60
   5   4   6   81.61    2.53
   5   4   6   78.23    2.59
  -6  -4  -6   37.30    1.36
   6   4   6   36.74    1.35
   6   4   6   38.16    1.31
   6   4   6   37.88    1.38
  -7  -4  -6   26.74    1.02
   7   4   6   23.35    1.03
   7   4   6   23.62    0.97
  -8  -4  -6   16.62    0.84
   8   4   6   16.92    0.87
  -9  -4  -6    2.19    0.42
 -10  -4  -6    0.17    0.46
 -11  -4  -6   -0.94    0.52
 -12  -4  -6    5.27    0.76
 -11   5   6    3.37    0.77
 -10   5   6    7.91    0.79
  -9   5   6   26.26    1.23
  -8   5   6   19.56    0.98
   7  -5  -6    2.95    0.37
  -7   5   6    3.08    0.45
  -7   5   6    2.08    0.38
   6  -5  -6    1.04    0.30
   6  -5  -6    0.46    0.35
  -6   5   6    0.84    0.36
  -6   5   6    0.01    0.35
   5  -5  -6   11.60    0.65
   5  -5  -6   13.00    0.64
  -5   5   6   13.19    0.56
  -5   5   6   13.08    0.67
   4  -5  -6   18.10    0.77
   4  -5  -6   18.63    0.80
   4  -5  -6   19.47    0.81
  -4   5   6   19.55    0.83
  -4   5   6   19.65    0.82
  -4   5   6   18.64    0.77
  -4   5   6   18.90    0.67
  -4   5   6   18.53    0.78
   3  -5  -6    5.15    0.38
  -3   5   6    4.91    0.43
  -3   5   6    5.56    0.33
  -3   5   6    5.03    0.39
  -3   5   6    4.81    0.41
  -3   5   6    5.52    0.39
   2  -5  -6   67.13    2.24
   2  -5  -6   69.13    2.28
  -2   5   6   67.12    2.16
  -2   5   6   69.22    2.11
  -2   5   6   68.20    2.30
  -2   5   6   68.26    2.16
  -2   5   6   66.80    1.90
   1  -5  -6  198.44    6.33
   1  -5  -6  190.53    6.27
  -1   5   6  197.83    5.89
  -1   5   6  191.92    6.33
  -1   5   6  195.86    5.95
  -1   5   6  200.28    5.31
  -1   5   6  197.87    5.97
   0  -5  -6   22.20    0.83
   0  -5  -6   21.96    0.82
   0   5   6   22.88    0.79
   0   5   6   23.05    0.84
   0   5   6   23.27    0.81
   0   5   6   22.87    0.81
   0   5   6   23.71    0.69
  -1  -5  -6   14.01    0.53
  -1  -5  -6   13.48    0.48
  -1  -5  -6   13.28    0.53
   1   5   6   13.48    0.54
   1   5   6   14.18    0.46
   1   5   6   13.06    0.54
   1   5   6   13.21    0.55
   1   5   6   13.57    0.54
  -2  -5  -6   75.75    2.54
   2   5   6   78.58    2.15
   2   5   6   79.20    2.54
   2   5   6   77.35    2.39
   2   5   6   76.33    2.43
   2   5   6   81.25    2.43
   2   5   6   74.57    2.39
  -3  -5  -6    1.98    0.20
   3   5   6    2.02    0.17
   3   5   6    1.76    0.19
   3   5   6    1.56    0.24
   3   5   6    1.72    0.19
   3   5   6    2.08    0.19
   3   5   6    1.62    0.17
   3   5   6    2.12    0.26
  -4  -5  -6    8.31    0.44
   4   5   6    8.40    0.39
   4   5   6    8.75    0.50
   4   5   6    8.96    0.47
   4   5   6    8.28    0.48
   4   5   6    8.44    0.50
   4   5   6    8.46    0.39
  -5  -5  -6    8.35    0.48
   5   5   6    7.87    0.56
   5   5   6    8.83    0.44
   5   5   6    8.83    0.54
   5   5   6    8.93    0.53
   5   5   6    8.23    0.52
  -6  -5  -6    6.85    0.53
   6   5   6    7.21    0.44
   6   5   6    7.86    0.56
   6   5   6    6.70    0.53
  -7  -5  -6    2.95    0.35
   7   5   6    2.96    0.32
   7   5   6    3.09    0.43
  -8  -5  -6    0.42    0.32
   8   5   6    0.74    0.38
  -9  -5  -6    7.64    0.66
   9   5   6    7.73    0.64
 -10  -5  -6    0.02    0.47
 -11  -5  -6    1.03    0.59
 -12  -5  -6    5.55    0.74
 -11   6   6    0.32    0.79
 -10   6   6   -0.04    0.61
  -9   6   6    1.47    0.54
  -8   6   6    0.25    0.41
  -7   6   6    7.11    0.65
  -7   6   6    6.89    0.61
   6  -6  -6   28.60    1.13
  -6   6   6   29.09    1.13
  -6   6   6   27.82    1.17
   5  -6  -6    5.27    0.45
   5  -6  -6    4.68    0.45
  -5   6   6    4.75    0.44
  -5   6   6    6.86    0.63
  -5   6   6    4.65    0.34
   4  -6  -6   29.41    1.08
  -4   6   6   27.25    1.07
  -4   6   6   29.44    1.14
  -4   6   6   29.00    1.04
  -4   6   6   28.26    1.08
  -4   6   6   28.91    0.92
   3  -6  -6   17.10    0.70
   3  -6  -6   16.43    0.73
  -3   6   6   16.76    0.75
  -3   6   6   16.73    0.59
  -3   6   6   17.15    0.72
  -3   6   6   17.79    0.71
  -3   6   6   16.63    0.67
   2  -6  -6   58.80    2.07
   2  -6  -6   58.99    2.02
  -2   6   6   62.60    1.91
  -2   6   6   62.55    1.72
  -2   6   6   62.34    1.96
  -2   6   6   60.31    1.95
  -2   6   6   60.61    2.09
   1  -6  -6  119.24    3.90
   1  -6  -6  118.87    3.95
  -1   6   6  119.45    3.73
  -1   6   6  121.63    3.30
  -1   6   6  123.22    3.97
  -1   6   6  118.28    3.67
  -1   6   6  125.98    3.72
   0  -6  -6   78.25    2.61
   0  -6  -6   79.19    2.58
   0   6   6   77.80    2.19
   0   6   6   82.43    2.48
   0   6   6   81.51    2.47
   0   6   6   79.32    2.63
   0   6   6   77.46    2.44
  -1  -6  -6    2.56    0.23
  -1  -6  -6    1.89    0.18
  -1  -6  -6    2.35    0.20
   1   6   6    2.14    0.23
   1   6   6    2.29    0.22
   1   6   6    2.20    0.17
   1   6   6    2.02    0.23
   1   6   6    1.87    0.18
   1   6   6    2.20    0.23
  -2  -6  -6   11.34    0.44
  -2  -6  -6   11.24    0.46
  -2  -6  -6   11.10    0.50
   2   6   6   11.94    0.51
   2   6   6   10.60    0.50
   2   6   6   11.66    0.50
   2   6   6   10.81    0.41
   2   6   6   11.48    0.47
  -3  -6  -6    7.67    0.41
   3   6   6    8.39    0.45
   3   6   6    8.16    0.46
   3   6   6    7.81    0.34
   3   6   6    7.66    0.37
   3   6   6    7.68    0.44
   3   6   6    7.87    0.44
   3   6   6    8.42    0.36
  -4  -6  -6    1.05    0.20
   4   6   6    0.51    0.19
   4   6   6    0.93    0.20
   4   6   6    1.17    0.20
   4   6   6    0.67    0.25
   4   6   6    0.92    0.26
   4   6   6    1.26    0.16
   4   6   6    0.78    0.17
  -5  -6  -6    2.55    0.27
   5   6   6    2.65    0.34
   5   6   6    2.97    0.35
   5   6   6    2.29    0.27
   5   6   6    2.99    0.26
   5   6   6    2.89    0.28
   5   6   6    2.90    0.28
   5   6   6    3.11    0.27
  -6  -6  -6   31.40    1.23
   6   6   6   33.81    1.22
   6   6   6   36.47    1.22
   6   6   6   33.89    1.24
  -7  -6  -6   14.90    0.71
   7   6   6   14.68    0.74
   7   6   6   14.69    0.77
  -8  -6  -6   32.53    1.28
   8   6   6   35.65    1.33
  -9  -6  -6   17.95    0.88
   9   6   6   17.10    0.88
 -10  -6  -6    1.50    0.47
  10   6   6    1.72    0.47
 -11  -6  -6    3.67    0.58
 -12  -6  -6    0.83    0.65
 -10   7   6    3.70    0.75
  -9   7   6    9.89    0.94
  -8   7   6    4.52    0.54
  -8   7   6    4.44    0.50
  -7   7   6   10.68    0.75
  -7   7   6   11.69    0.69
   6  -7  -6   48.53    1.70
  -6   7   6   45.26    1.71
  -6   7   6   47.70    1.66
   5  -7  -6   16.80    0.86
   5  -7  -6   19.81    0.84
  -5   7   6   21.64    0.74
  -5   7   6   19.99    0.90
  -5   7   6   21.32    0.88
   4  -7  -6   30.95    1.16
  -4   7   6   29.83    1.10
  -4   7   6   31.63    0.99
  -4   7   6   31.26    1.15
  -4   7   6   32.77    1.15
   3  -7  -6    0.01    0.18
   3  -7  -6   -0.36    0.26
  -3   7   6   -0.27    0.19
  -3   7   6    0.12    0.20
  -3   7   6    0.09    0.29
  -3   7   6    0.17    0.27
  -3   7   6   -0.13    0.27
   2  -7  -6   -0.17    0.23
   2  -7  -6   -0.02    0.16
  -2   7   6    0.35    0.23
  -2   7   6    0.34    0.24
  -2   7   6   -0.11    0.16
  -2   7   6    0.16    0.17
  -2   7   6    0.35    0.24
   1  -7  -6   12.70    0.53
   1  -7  -6   13.55    0.58
  -1   7   6   11.67    0.60
  -1   7   6   12.96    0.46
  -1   7   6   13.66    0.58
  -1   7   6   13.03    0.54
  -1   7   6   12.90    0.55
   0  -7  -6    0.30    0.19
   0  -7  -6    0.17    0.13
   0   7   6    0.13    0.14
   0   7   6    0.55    0.21
   0   7   6    0.24    0.20
   0   7   6    0.31    0.15
   0   7   6    0.43    0.19
  -1  -7  -6    3.41    0.29
  -1  -7  -6    3.14    0.28
  -1  -7  -6    4.08    0.28
   1   7   6    3.59    0.32
   1   7   6    3.75    0.23
   1   7   6    3.49    0.26
   1   7   6    3.54    0.30
   1   7   6    3.73    0.24
   1   7   6    3.42    0.30
  -2  -7  -6   22.70    0.85
  -2  -7  -6   24.10    0.83
  -2  -7  -6   23.78    0.84
   2   7   6   23.70    0.83
   2   7   6   23.39    0.82
   2   7   6   23.05    0.72
   2   7   6   23.98    0.85
   2   7   6   24.31    0.83
  -3  -7  -6   21.16    0.78
   3   7   6   20.85    0.75
   3   7   6   20.81    0.66
   3   7   6   20.57    0.76
   3   7   6   20.80    0.75
   3   7   6   20.87    0.76
   3   7   6   20.31    0.78
   3   7   6   22.10    0.77
  -4  -7  -6    3.43    0.25
   4   7   6    2.52    0.30
   4   7   6    2.57    0.21
   4   7   6    2.53    0.24
   4   7   6    2.68    0.30
   4   7   6    2.54    0.25
   4   7   6    2.97    0.24
   4   7   6    2.69    0.25
  -5  -7  -6   27.93    1.06
   5   7   6   28.65    1.03
   5   7   6   29.56    1.05
   5   7   6   27.04    1.04
   5   7   6   28.86    1.05
   5   7   6   29.16    1.06
   5   7   6   29.30    0.99
  -6  -7  -6    5.11    0.46
   6   7   6    5.76    0.50
   6   7   6    4.91    0.34
   6   7   6    4.47    0.42
   6   7   6    6.16    0.45
   6   7   6    5.28    0.37
  -7  -7  -6    2.54    0.32
   7   7   6    1.30    0.37
   7   7   6    2.26    0.32
  -8  -7  -6   22.00    0.91
   8   7   6   20.62    0.93
  -9  -7  -6    1.07    0.35
   9   7   6    1.45    0.40
 -10  -7  -6    0.93    0.42
  10   7   6    0.63    0.44
 -11  -7  -6    0.33    0.52
 -12  -7  -6   -0.88    0.59
 -10   8   6    6.21    0.79
  -9   8   6   14.79    0.99
  -8   8   6    1.99    0.45
  -8   8   6    1.56    0.49
  -7   8   6   10.49    0.66
  -7   8   6   10.15    0.74
  -6   8   6    2.28    0.36
  -6   8   6    2.57    0.41
   5  -8  -6    0.61    0.26
  -5   8   6    1.00    0.36
  -5   8   6    0.64    0.26
  -5   8   6    1.47    0.37
   4  -8  -6    1.80    0.28
   4  -8  -6    1.70    0.38
  -4   8   6    1.77    0.33
  -4   8   6    2.07    0.28
  -4   8   6    1.64    0.31
  -4   8   6    2.06    0.27
  -4   8   6    2.39    0.36
   3  -8  -6    3.86    0.31
   3  -8  -6    3.83    0.41
  -3   8   6    3.87    0.29
  -3   8   6    3.92    0.28
  -3   8   6    4.27    0.42
  -3   8   6    3.75    0.37
   2  -8  -6    1.94    0.23
   2  -8  -6    1.98    0.31
  -2   8   6    1.98    0.22
  -2   8   6    2.00    0.23
  -2   8   6    2.37    0.30
  -2   8   6    2.00    0.32
   1  -8  -6    5.40    0.40
   1  -8  -6    5.68    0.33
  -1   8   6    5.07    0.39
  -1   8   6    5.43    0.31
  -1   8   6    5.56    0.38
  -1   8   6    5.10    0.42
   0  -8  -6   86.91    2.83
   0  -8  -6   85.53    2.89
   0   8   6   87.98    2.91
   0   8   6   84.45    2.68
   0   8   6   93.01    2.71
   0   8   6   84.21    2.69
   0   8   6   89.84    2.41
  -1  -8  -6   55.43    1.83
  -1  -8  -6   54.90    1.86
  -1  -8  -6   47.35    1.82
   1   8   6   58.29    1.56
   1   8   6   57.07    1.74
   1   8   6   57.83    1.88
   1   8   6   57.48    1.75
   1   8   6   55.84    1.74
  -2  -8  -6  104.98    3.48
  -2  -8  -6  104.63    3.46
   2   8   6  108.80    3.29
   2   8   6  104.73    3.27
   2   8   6  110.01    3.29
   2   8   6  108.65    2.94
   2   8   6  109.25    3.50
  -3  -8  -6   18.21    0.72
  -3  -8  -6   18.39    0.68
  -3  -8  -6   18.58    0.71
   3   8   6   18.27    0.61
   3   8   6   19.59    0.71
   3   8   6   18.25    0.72
   3   8   6   19.19    0.70
   3   8   6   18.77    0.69
   3   8   6   19.08    0.72
  -4  -8  -6    2.97    0.24
   4   8   6    2.47    0.28
   4   8   6    2.46    0.25
   4   8   6    2.28    0.29
   4   8   6    2.67    0.20
   4   8   6    2.67    0.25
   4   8   6    2.73    0.30
   4   8   6    2.77    0.22
  -5  -8  -6   10.60    0.56
   5   8   6   11.17    0.59
   5   8   6   11.70    0.45
   5   8   6   11.33    0.59
   5   8   6   11.63    0.59
   5   8   6   12.31    0.58
   5   8   6   11.66    0.61
  -6  -8  -6    0.45    0.23
   6   8   6    0.11    0.29
   6   8   6    0.34    0.25
   6   8   6    0.41    0.30
   6   8   6    0.16    0.24
  -7  -8  -6    0.23    0.24
   7   8   6    0.74    0.27
   7   8   6    0.53    0.33
  -8  -8  -6    0.70    0.28
   8   8   6    0.54    0.35
  -9  -8  -6    1.51    0.34
   9   8   6    1.91    0.41
 -10  -8  -6    4.31    0.48
  10   8   6    3.93    0.53
 -11  -8  -6    3.45    0.52
  11   8   6    2.42    0.54
 -10   9   6    1.32    0.76
  -9   9   6    0.44    0.45
  -9   9   6    0.14    0.57
  -8   9   6    0.48    0.52
  -8   9   6    0.63    0.39
  -7   9   6    0.96    0.43
  -7   9   6    0.48    0.36
  -6   9   6   12.07    0.71
  -6   9   6   11.38    0.67
  -5   9   6    7.49    0.46
  -5   9   6    7.12    0.52
  -5   9   6    5.00    0.45
   4  -9  -6   33.31    1.20
  -4   9   6   32.65    1.18
  -4   9   6   29.49    1.22
  -4   9   6   33.11    1.02
  -4   9   6   31.29    1.17
   3  -9  -6   50.96    1.72
   3  -9  -6   49.44    1.81
  -3   9   6   49.49    1.66
  -3   9   6   51.30    1.66
  -3   9   6   49.61    1.46
  -3   9   6   49.43    1.64
   2  -9  -6   49.93    1.75
   2  -9  -6   49.75    1.67
  -2   9   6   48.35    1.60
  -2   9   6   48.63    1.42
  -2   9   6   46.93    1.61
  -2   9   6   49.82    1.77
  -2   9   6   49.72    1.59
   1  -9  -6   26.04    0.93
   1  -9  -6   24.42    1.00
  -1   9   6   26.82    0.91
  -1   9   6   25.71    0.80
  -1   9   6   25.99    1.03
  -1   9   6   26.61    0.91
  -1   9   6   25.69    0.90
   0  -9  -6    1.30    0.17
   0  -9  -6    1.30    0.25
   0   9   6    1.31    0.21
   0   9   6    1.32    0.26
   0   9   6    1.59    0.20
   0   9   6    1.75    0.20
   0   9   6    1.84    0.20
   0   9   6    1.49    0.18
  -1  -9  -6    4.14    0.33
  -1  -9  -6    4.97    0.38
  -1  -9  -6    4.31    0.29
   1   9   6    4.51    0.27
   1   9   6    5.04    0.38
   1   9   6    4.61    0.30
   1   9   6    4.91    0.39
  -2  -9  -6   28.48    1.01
  -2  -9  -6   27.88    1.00
  -2  -9  -6   29.34    1.05
   2   9   6   29.04    0.86
   2   9   6   29.35    0.95
   2   9   6   28.56    0.98
   2   9   6   30.13    1.04
  -3  -9  -6    1.59    0.19
  -3  -9  -6    1.60    0.27
  -3  -9  -6    1.66    0.19
   3   9   6    1.68    0.23
   3   9   6    1.44    0.20
   3   9   6    1.25    0.20
   3   9   6    2.15    0.22
   3   9   6    1.55    0.21
   3   9   6    1.48    0.19
  -4  -9  -6    3.21    0.25
   4   9   6    2.75    0.22
   4   9   6    2.28    0.30
   4   9   6    2.91    0.27
   4   9   6    2.84    0.25
   4   9   6    3.50    0.30
   4   9   6    2.89    0.30
   4   9   6    3.43    0.27
  -5  -9  -6    0.31    0.23
   5   9   6    0.20    0.26
   5   9   6    0.42    0.27
   5   9   6   -0.14    0.21
   5   9   6    0.32    0.24
   5   9   6   -0.09    0.23
  -6  -9  -6    4.95    0.46
   6   9   6    5.05    0.35
   6   9   6    4.59    0.41
   6   9   6    4.43    0.36
   6   9   6    5.19    0.43
  -7  -9  -6    4.02    0.34
   7   9   6    3.94    0.34
   7   9   6    3.90    0.41
  -8  -9  -6    3.30    0.36
   8   9   6    2.74    0.40
   8   9   6    3.03    0.36
  -9  -9  -6    4.92    0.45
   9   9   6    4.64    0.50
 -10  -9  -6    3.59    0.45
  10   9   6    2.84    0.48
 -11  -9  -6    2.65    0.51
  11   9   6    1.82    0.51
  -9  10   6    5.30    0.74
  -9  10   6    4.09    0.59
  -8  10   6    8.08    0.65
  -8  10   6    7.25    0.69
  -7  10   6   28.31    1.24
  -7  10   6   27.62    1.14
  -6  10   6   14.47    0.75
  -6  10   6   14.37    0.78
  -5  10   6    6.34    0.55
  -5  10   6    6.74    0.46
  -5  10   6    6.72    0.50
   4 -10  -6    0.54    0.25
  -4  10   6    0.95    0.30
  -4  10   6    0.92    0.24
  -4  10   6    0.69    0.32
  -4  10   6    1.10    0.30
   3 -10  -6   12.46    0.73
   3 -10  -6   13.09    0.62
  -3  10   6   13.46    0.62
  -3  10   6   12.73    0.62
  -3  10   6   12.81    0.62
  -3  10   6   13.90    0.55
   2 -10  -6   15.11    0.75
   2 -10  -6   15.50    0.64
  -2  10   6   15.41    0.66
  -2  10   6   14.85    0.64
  -2  10   6   13.95    0.55
  -2  10   6   14.84    0.63
  -2  10   6   15.50    0.78
   1 -10  -6    0.12    0.17
   1 -10  -6   -0.03    0.27
  -1  10   6   -0.02    0.20
  -1  10   6    0.09    0.05
  -1  10   6    0.04    0.18
  -1  10   6    0.19    0.27
  -1  10   6    0.03    0.19
   0 -10  -6    2.13    0.20
   0 -10  -6    2.26    0.30
   0  10   6    1.87    0.19
   0  10   6    1.88    0.30
   0  10   6    1.82    0.19
   0  10   6    2.04    0.22
  -1 -10  -6    1.14    0.24
  -1 -10  -6    1.13    0.30
  -1 -10  -6    1.22    0.16
   1  10   6    1.10    0.20
   1  10   6    0.82    0.16
   1  10   6    1.40    0.26
  -2 -10  -6    1.53    0.17
  -2 -10  -6    1.73    0.30
  -2 -10  -6    1.76    0.22
   2  10   6    1.80    0.21
   2  10   6    1.74    0.25
   2  10   6    1.53    0.18
  -3 -10  -6   13.79    0.61
  -3 -10  -6   12.37    0.54
  -3 -10  -6   13.47    0.52
   3  10   6   13.04    0.49
   3  10   6   12.36    0.48
   3  10   6   13.51    0.56
   3  10   6   12.41    0.57
   3  10   6   12.46    0.58
  -4 -10  -6   25.97    0.94
  -4 -10  -6   26.84    0.98
   4  10   6   25.69    0.92
   4  10   6   26.04    0.80
   4  10   6   24.85    0.93
   4  10   6   26.21    0.89
  -5 -10  -6   28.44    1.06
   5  10   6   29.82    1.02
   5  10   6   28.57    1.05
   5  10   6   28.39    1.03
   5  10   6   30.00    1.04
  -6 -10  -6   17.24    0.72
   6  10   6   16.29    0.73
   6  10   6   16.85    0.75
   6  10   6   17.85    0.78
   6  10   6   17.06    0.72
  -7 -10  -6    2.21    0.28
   7  10   6    2.77    0.37
   7  10   6    2.77    0.36
   7  10   6    2.00    0.29
  -8 -10  -6    9.06    0.60
   8  10   6    8.95    0.59
   8  10   6   11.20    0.67
   9  10   6    5.32    0.50
  10  10   6    0.43    0.41
  11  10   6   -0.10    0.48
  -9  11   6    2.40    0.57
  -9  11   6    1.15    0.68
  -8  11   6    3.58    0.54
  -8  11   6    3.62    0.62
  -7  11   6    6.90    0.58
  -7  11   6    6.06    0.58
  -6  11   6    2.35    0.41
  -6  11   6    3.29    0.43
  -5  11   6    3.95    0.34
  -5  11   6    3.97    0.40
  -5  11   6    4.44    0.43
  -4  11   6   -0.19    0.22
  -4  11   6    0.18    0.30
  -4  11   6    0.01    0.28
  -4  11   6   -0.02    0.26
  -3  11   6    1.43    0.28
  -3  11   6    1.50    0.30
  -3  11   6    1.29    0.26
  -3  11   6    1.40    0.23
  -3  11   6    1.70    0.31
   2 -11  -6   24.17    0.91
   2 -11  -6   24.33    1.05
  -2  11   6   25.33    0.97
  -2  11   6   23.70    0.79
  -2  11   6   24.16    0.89
  -2  11   6   25.06    0.86
  -2  11   6   25.14    0.86
   1 -11  -6    1.37    0.21
   1 -11  -6    1.67    0.34
  -1  11   6    1.48    0.17
  -1  11   6    1.62    0.17
  -1  11   6    1.24    0.22
  -1  11   6    1.41    0.34
  -1  11   6    1.57    0.21
   0 -11  -6   13.67    0.66
   0  11   6   15.02    0.70
   0  11   6   13.82    0.59
   0  11   6   13.22    0.49
  -1 -11  -6   15.06    0.69
  -1 -11  -6   16.46    0.67
   1  11   6   15.76    0.70
   1  11   6   14.17    0.51
   1  11   6   13.84    0.62
  -2 -11  -6   51.07    1.72
  -2 -11  -6   50.04    1.76
   2  11   6   48.96    1.61
   2  11   6   50.98    1.44
   2  11   6   52.65    1.75
  -3 -11  -6   23.27    0.91
   3  11   6   22.09    0.83
   3  11   6   22.87    0.82
   3  11   6   22.16    0.71
  -4 -11  -6   10.29    0.55
   4  11   6   10.29    0.41
   4  11   6    9.40    0.55
   4  11   6   10.63    0.52
   5  11   6    8.92    0.43
   5  11   6    9.19    0.42
   5  11   6    9.43    0.55
   5  11   6   10.23    0.52
   6  11   6   17.08    0.74
   6  11   6   16.97    0.69
   6  11   6   17.05    0.67
   6  11   6   17.50    0.76
   7  11   6    2.04    0.33
   7  11   6    2.55    0.30
   7  11   6    2.11    0.31
   8  11   6    0.14    0.29
   8  11   6   -0.09    0.28
   9  11   6    2.61    0.41
  10  11   6    1.19    0.42
  11  11   6    0.01    0.50
  -8  12   6    2.07    0.60
  -8  12   6    1.38    0.52
  -7  12   6    2.47    0.45
  -7  12   6    1.05    0.49
  -6  12   6    2.25    0.43
  -6  12   6    1.99    0.40
  -5  12   6    3.97    0.43
  -5  12   6    4.67    0.35
  -5  12   6    4.11    0.41
  -4  12   6    7.15    0.44
  -4  12   6    6.20    0.52
  -4  12   6    6.52    0.45
  -4  12   6    6.72    0.47
  -3  12   6   10.78    0.49
  -3  12   6   10.87    0.51
  -3  12   6   10.71    0.48
  -3  12   6   10.62    0.59
  -2  12   6    0.59    0.22
  -2  12   6    0.18    0.19
  -2  12   6    0.43    0.16
   1 -12  -6    9.61    0.60
  -1  12   6    9.18    0.40
  -1  12   6    9.34    0.51
   0 -12  -6   53.68    1.90
   0 -12  -6   56.37    1.90
   0  12   6   52.08    1.53
   0  12   6   56.48    1.94
   0  12   6   52.64    1.71
  -1 -12  -6   11.99    0.65
  -1 -12  -6   12.07    0.59
   1  12   6   11.66    0.62
   1  12   6   10.94    0.54
   1  12   6   11.03    0.43
  -2 -12  -6    5.34    0.49
   2  12   6    4.13    0.28
   2  12   6    4.35    0.28
  -3 -12  -6    1.25    0.34
   3  12   6    1.55    0.20
   3  12   6    1.70    0.19
   3  12   6    1.32    0.21
  -4 -12  -6    0.23    0.28
   4  12   6    0.16    0.16
   4  12   6   -0.07    0.18
   4  12   6    0.11    0.20
   5  12   6   10.17    0.55
   5  12   6    9.50    0.52
   6  12   6    1.66    0.19
   6  12   6    1.89    0.26
   6  12   6    1.57    0.27
   7  12   6    4.22    0.36
   7  12   6    4.54    0.38
   7  12   6    4.35    0.35
   8  12   6    6.11    0.45
   8  12   6    5.80    0.43
   8  12   6    6.16    0.47
   9  12   6   12.03    0.82
   9  12   6   10.56    0.61
  10  12   6    2.82    0.46
  -7  13   6    4.15    0.53
  -6  13   6   12.34    0.68
  -5  13   6    9.96    0.58
  -5  13   6   11.75    0.57
  -5  13   6   11.26    0.57
  -4  13   6    9.64    0.49
  -4  13   6   10.40    0.50
  -4  13   6   10.17    0.51
  -3  13   6    3.06    0.26
  -3  13   6    3.23    0.28
  -3  13   6    2.99    0.31
  -2  13   6    2.58    0.28
  -2  13   6    2.93    0.25
   1 -13  -6    1.10    0.34
  -1  13   6    1.69    0.20
  -1  13   6    1.45    0.23
   0 -13  -6    9.94    0.59
   0 -13  -6   10.59    0.61
   0  13   6   10.25    0.41
   0  13   6   10.31    0.50
   0  13   6   11.53    0.63
  -1 -13  -6    0.30    0.31
   1  13   6    0.30    0.15
   1  13   6   -0.03    0.17
  -2 -13  -6    3.22    0.40
   2  13   6    2.84    0.25
   2  13   6    2.86    0.20
  -3 -13  -6    7.75    0.54
   3  13   6    7.53    0.34
   3  13   6    7.30    0.41
   3  13   6    6.92    0.45
  -4 -13  -6    9.71    0.58
   4  13   6    9.44    0.48
   4  13   6    9.37    0.38
   4  13   6    9.10    0.51
   5  13   6   13.54    0.62
   5  13   6   13.81    0.64
   6  13   6   15.68    0.73
   6  13   6   16.54    0.74
   7  13   6   12.49    0.70
   8  13   6   18.54    0.89
   8  13   6   14.89    0.59
   9  13   6    0.35    0.28
   9  13   6    0.25    0.38
   9  13   6    0.25    0.24
  10  13   6    0.68    0.29
  -7  14   6   -0.36    0.47
  -6  14   6    0.63    0.38
  -5  14   6    0.41    0.28
  -5  14   6    0.09    0.23
  -4  14   6    0.25    0.18
  -4  14   6    0.15    0.25
  -3  14   6    0.64    0.25
  -3  14   6    0.77    0.24
  -2  14   6    0.41    0.23
  -2  14   6    0.45    0.21
  -1  14   6    0.37    0.21
  -1  14   6    0.66    0.19
   0  14   6    0.50    0.19
   0  14   6    0.34    0.17
   1  14   6    0.28    0.18
   1  14   6    0.10    0.16
   2  14   6    8.79    0.38
   2  14   6   10.34    0.48
   3  14   6    9.26    0.39
   3  14   6    9.51    0.46
   3  14   6    8.99    0.48
   4  14   6   11.33    0.55
   4  14   6   10.50    0.53
   4  14   6   10.58    0.42
   5  14   6    9.42    0.54
   5  14   6    9.67    0.55
   6  14   6    0.83    0.25
   6  14   6    0.82    0.28
   7  14   6    2.60    0.35
   8  14   6    2.25    0.41
   9  14   6   -0.45    0.40
  -6  15   6    2.56    0.29
  -6  15   6    2.66    0.34
  -4  15   6    6.73    0.49
  -3  15   6    5.92    0.44
  -2  15   6    6.86    0.50
  -2  15   6    7.22    0.43
  -1  15   6   21.94    0.82
  -1  15   6   21.44    0.72
   0  15   6    4.22    0.32
   0  15   6    5.00    0.40
   1  15   6    1.11    0.20
   1  15   6    1.18    0.19
   2  15   6    2.44    0.21
   2  15   6    2.46    0.23
   3  15   6    0.08    0.18
   3  15   6    0.16    0.21
   3  15   6    0.17    0.20
   4  15   6    0.21    0.18
   4  15   6   -0.04    0.21
   4  15   6   -0.06    0.21
   5  15   6    0.23    0.24
   5  15   6   -0.40    0.22
   6  15   6    0.91    0.28
   6  15   6    1.15    0.30
   7  15   6    0.78    0.34
   8  15   6    3.35    0.44
   9  15   6    2.54    0.47
  -4  16   6    3.97    0.39
  -3  16   6    1.12    0.30
  -2  16   6    0.21    0.27
  -2  16   6    0.14    0.25
  -1  16   6    2.98    0.31
  -1  16   6    3.06    0.28
   0  16   6    0.87    0.22
   0  16   6    1.00    0.24
   1  16   6    2.45    0.23
   1  16   6    2.84    0.26
   2  16   6    0.14    0.19
   2  16   6    0.11    0.21
   3  16   6    1.19    0.22
   3  16   6    1.38    0.25
   3  16   6    1.66    0.21
   4  16   6    0.85    0.26
   4  16   6    0.74    0.23
   4  16   6    1.05    0.20
   5  16   6    2.01    0.30
   5  16   6    1.82    0.28
   6  16   6    4.97    0.39
   6  16   6    4.91    0.39
   7  16   6    7.74    0.68
   8  16   6    8.91    0.78
  -4  17   6    0.19    0.34
  -3  17   6    0.71    0.32
  -2  17   6    1.53    0.34
  -2  17   6    1.98    0.30
  -1  17   6    3.22    0.33
  -1  17   6    2.80    0.30
   0  17   6    5.63    0.48
   0  17   6    5.02    0.37
   1  17   6    7.00    0.46
   1  17   6    6.60    0.37
   2  17   6    6.37    0.36
   3  17   6    1.12    0.23
   3  17   6    1.50    0.22
   4  17   6    2.62    0.28
   4  17   6    3.61    0.33
   4  17   6    3.44    0.26
   5  17   6    3.27    0.34
   5  17   6    2.07    0.30
   6  17   6    1.11    0.34
   6  17   6    1.28    0.33
   7  17   6    0.27    0.36
   7  17   6    0.38    0.35
  -2  18   6    2.34    0.37
  -1  18   6    6.00    0.45
  -1  18   6    6.50    0.56
   0  18   6    4.52    0.33
   0  18   6    5.50    0.37
   1  18   6    0.38    0.23
   2  18   6    2.97    0.27
   3  18   6    3.79    0.27
   5  18   6    0.42    0.27
   5  18   6    0.54    0.32
   4  14  -7    1.13    0.28
   3  14  -7    0.39    0.34
   3  14  -7    0.04    0.26
   2  14  -7   -0.07    0.25
   2  14  -7    0.20    0.35
   1  14  -7    2.07    0.38
   1  14  -7    1.98    0.28
   0  14  -7    5.36    0.43
   0  14  -7    4.74    0.47
   6  13  -7   -0.05    0.41
   6  13  -7   -0.16    0.42
   5  13  -7   -0.40    0.38
   5  13  -7    0.50    0.28
   4  13  -7    4.25    0.41
   4  13  -7    4.24    0.34
   3  13  -7    8.34    0.46
   3  13  -7    9.05    0.60
   2  13  -7    3.97    0.30
   2  13  -7    2.97    0.37
   1  13  -7   12.72    0.54
   1  13  -7   12.58    0.68
   0  13  -7    7.19    0.43
   0  13  -7    7.05    0.62
  -1  13  -7    5.18    0.48
  -2  13  -7    5.89    0.54
  -3  13  -7    2.79    0.52
   7  12  -7    1.42    0.46
   6  12  -7    1.23    0.41
   5  12  -7    3.45    0.32
   5  12  -7    2.99    0.42
   4  12  -7    5.53    0.39
   4  12  -7    4.59    0.42
   3  12  -7    3.09    0.35
   3  12  -7    2.87    0.27
   2  12  -7   12.01    0.50
   2  12  -7   12.60    0.65
   1  12  -7    9.27    0.45
   1  12  -7   10.35    0.62
   0  12  -7    1.97    0.37
   0  12  -7    1.23    0.24
  -1  12  -7    0.10    0.22
  -1  12  -7   -0.27    0.36
  -2  12  -7    0.93    0.41
  -3  12  -7    2.76    0.49
  -4  12  -7    0.87    0.49
   8  11  -7    2.15    0.50
   7  11  -7    2.46    0.45
   6  11  -7    2.09    0.40
   5  11  -7    3.84    0.31
   5  11  -7    3.86    0.40
   4  11  -7    0.08    0.32
   4  11  -7    0.04    0.21
   3  11  -7    0.37    0.20
   3  11  -7    0.10    0.29
   2  11  -7    0.09    0.29
   2  11  -7   -0.15    0.19
   1  11  -7    0.56    0.20
   1  11  -7    0.48    0.30
   0  11  -7    1.22    0.33
   0  11  -7    1.29    0.22
  -1  11  -7    8.66    0.63
  -1  11  -7    8.01    0.41
  -2  11  -7   12.62    0.62
  -2  11  -7   12.40    0.76
  -3  11  -7    7.02    0.54
  -4  11  -7   15.56    0.93
  -5  11  -7    2.37    0.53
   9  10  -7    0.53    0.49
   8  10  -7    2.09    0.47
   7  10  -7    0.56    0.40
   6  10  -7    0.57    0.36
   5  10  -7    0.14    0.22
   5  10  -7    0.17    0.31
   4  10  -7    0.32    0.30
   4  10  -7    0.44    0.21
   3  10  -7    2.95    0.25
   3  10  -7    2.70    0.32
   2  10  -7   12.88    0.62
   2  10  -7   13.51    0.50
   1  10  -7   16.66    0.72
   1  10  -7   16.70    0.58
   0  10  -7   12.44    0.65
   0  10  -7   12.43    0.49
  -1  10  -7   10.35    0.63
  -1  10  -7    9.68    0.44
  -2  10  -7    8.49    0.63
  -2  10  -7    8.09    0.52
  -2  10  -7    8.21    0.41
  -3  10  -7    7.86    0.65
  -4  10  -7    2.57    0.26
  -4  10  -7    3.08    0.45
  -5  10  -7    0.43    0.29
  -5  10  -7    1.13    0.45
  -5  10  -7    0.19    0.29
  -6  10  -7   -0.31    0.36
   9   9  -7    1.30    0.35
   9   9  -7    0.83    0.27
   8   9  -7   -0.14    0.40
   8   9  -7    0.36    0.24
   8   9  -7    0.42    0.26
   7   9  -7    8.00    0.66
   6   9  -7    3.65    0.39
   5   9  -7    2.91    0.34
   5   9  -7    3.58    0.29
   4   9  -7   17.05    0.62
   4   9  -7   16.90    0.73
   3   9  -7    6.53    0.48
   3   9  -7    6.36    0.37
   2   9  -7    0.54    0.24
   2   9  -7    0.68    0.19
  -2  -9   7    0.24    0.27
   1   9  -7    2.85    0.29
   1   9  -7    2.56    0.23
  -1  -9   7    2.20    0.35
   0   9  -7    0.35    0.19
   0   9  -7    0.46    0.25
  -1   9  -7    9.91    0.59
  -1   9  -7    9.69    0.42
  -2   9  -7    0.94    0.31
  -2   9  -7    0.82    0.22
  -2   9  -7    0.98    0.25
  -3   9  -7    4.98    0.42
  -3   9  -7    4.65    0.33
  -3   9  -7    4.14    0.32
  -4   9  -7    7.84    0.68
  -4   9  -7    6.98    0.46
  -4   9  -7    6.73    0.46
  -5   9  -7    4.91    0.46
  -5   9  -7    6.02    0.50
  -5   9  -7    6.25    0.52
  -6   9  -7    4.38    0.51
  -7   9  -7    0.22    0.49
  10   8  -7    5.14    0.54
   9   8  -7    1.25    0.38
   8   8  -7    3.67    0.44
   8   8  -7    3.77    0.37
   8   8  -7    4.36    0.42
   7   8  -7   15.93    0.79
   7   8  -7   15.07    0.64
   7   8  -7   15.37    0.68
   6   8  -7    7.91    0.44
   6   8  -7    8.93    0.57
   6   8  -7    7.66    0.40
   5   8  -7    3.40    0.29
   5   8  -7    3.00    0.32
   4   8  -7    3.40    0.30
   4   8  -7    2.63    0.26
   3   8  -7    1.29    0.21
   3   8  -7    1.46    0.26
   2   8  -7    5.01    0.44
   2   8  -7    5.62    0.33
   1   8  -7    0.19    0.18
   1   8  -7    0.21    0.23
  -1  -8   7    0.46    0.28
  -1  -8   7    0.68    0.30
   0   8  -7    2.46    0.22
   0   8  -7    2.37    0.28
   0  -8   7    2.22    0.38
   0  -8   7    2.41    0.37
  -1   8  -7   17.94    0.64
  -1   8  -7   20.17    0.79
  -2   8  -7   12.21    0.51
  -2   8  -7   12.27    0.50
  -2   8  -7   12.90    0.62
  -2   8  -7   11.87    0.65
  -2   8  -7   12.72    0.52
  -3   8  -7   10.49    0.53
  -3   8  -7   11.70    0.60
  -3   8  -7    9.99    0.52
  -3   8  -7    9.55    0.63
  -4   8  -7   17.04    0.83
  -4   8  -7   17.74    0.81
  -4   8  -7   16.46    0.74
  -4   8  -7   16.37    0.74
  -5   8  -7   23.44    0.98
  -5   8  -7   20.35    0.92
  -5   8  -7   23.39    1.01
  -6   8  -7    1.89    0.43
  -6   8  -7    1.77    0.41
  -7   8  -7    4.52    0.56
  -7   8  -7    3.62    0.57
  -8   8  -7    6.36    0.72
  -8   8  -7    5.04    0.65
  10   7  -7    5.26    0.58
   9   7  -7    0.12    0.35
   8   7  -7    1.53    0.35
   8   7  -7    1.43    0.37
   7   7  -7   -0.11    0.32
   7   7  -7    0.08    0.31
   7   7  -7   -0.07    0.28
   6   7  -7    2.72    0.34
   6   7  -7    2.59    0.33
   6   7  -7    2.38    0.30
   5   7  -7    0.31    0.22
   5   7  -7    0.04    0.25
   5   7  -7    0.28    0.26
   5   7  -7    0.46    0.22
   4   7  -7    1.84    0.24
   4   7  -7    1.92    0.24
   4   7  -7    1.77    0.27
   4   7  -7    1.86    0.21
   3   7  -7   20.40    0.81
   3   7  -7   21.18    0.70
   3   7  -7   21.29    0.81
  -3  -7   7   20.82    0.85
  -3  -7   7   20.22    0.90
   2   7  -7   10.83    0.56
   2   7  -7   10.73    0.45
   2   7  -7   10.91    0.53
  -2  -7   7   10.63    0.61
  -2  -7   7   11.43    0.59
   1   7  -7   14.58    0.62
   1   7  -7   13.15    0.51
   1   7  -7   14.13    0.63
  -1  -7   7   13.37    0.68
   0   7  -7    1.02    0.26
   0   7  -7    1.20    0.18
   0   7  -7    1.50    0.24
   0   7  -7    1.38    0.21
   0  -7   7    0.96    0.34
   0  -7   7    0.94    0.32
  -1   7  -7   10.03    0.46
  -1   7  -7   10.76    0.60
  -1   7  -7    9.86    0.46
  -1   7  -7   10.37    0.44
  -1   7  -7   10.14    0.56
   1  -7   7    9.56    0.64
   1  -7   7   10.48    0.60
  -2   7  -7   20.18    0.77
  -2   7  -7   19.68    0.76
  -2   7  -7   20.16    0.84
  -2   7  -7   20.18    0.84
  -2   7  -7   20.20    0.68
  -2   7  -7   21.71    0.81
   2  -7   7   18.99    0.87
  -3   7  -7    2.54    0.29
  -3   7  -7    3.00    0.34
  -3   7  -7    3.04    0.32
  -3   7  -7    2.76    0.34
  -3   7  -7    2.79    0.26
  -3   7  -7    2.36    0.34
  -4   7  -7    5.08    0.42
  -4   7  -7    4.73    0.42
  -4   7  -7    5.32    0.45
  -4   7  -7    4.79    0.43
  -5   7  -7    2.21    0.39
  -5   7  -7    2.41    0.38
  -5   7  -7    2.87    0.39
  -6   7  -7    1.17    0.39
  -6   7  -7    1.17    0.38
  -7   7  -7    0.08    0.39
  -7   7  -7    0.23    0.46
  -8   7  -7    4.16    0.57
  -8   7  -7    4.36    0.66
  10   6  -7    1.25    0.45
 -10  -6   7    0.83    0.46
   9   6  -7   -0.11    0.36
  -9  -6   7    0.24    0.37
   8   6  -7    0.52    0.35
  -8  -6   7    0.87    0.35
   7   6  -7   11.96    0.66
   7   6  -7   10.52    0.61
   7   6  -7   11.40    0.64
  -7  -6   7   11.15    0.71
   6   6  -7    6.03    0.46
   6   6  -7    4.59    0.40
   6   6  -7    5.06    0.43
   6   6  -7    4.72    0.39
   5   6  -7    7.24    0.52
   5   6  -7    7.47    0.48
   5   6  -7    6.99    0.47
   5   6  -7    7.29    0.44
   5   6  -7    7.61    0.49
   4   6  -7   30.19    1.13
   4   6  -7   31.60    1.07
   4   6  -7   29.39    1.08
   4   6  -7   32.05    0.98
   4   6  -7   31.29    1.08
  -4  -6   7   30.71    1.15
   3   6  -7   19.07    0.72
   3   6  -7   18.54    0.66
   3   6  -7   19.80    0.77
   3   6  -7   19.20    0.76
  -3  -6   7   19.52    0.81
  -3  -6   7   19.36    0.84
   2   6  -7    6.65    0.36
   2   6  -7    6.51    0.48
   2   6  -7    5.71    0.38
   2   6  -7    6.80    0.44
  -2  -6   7    6.58    0.49
  -2  -6   7    7.65    0.47
   1   6  -7   15.64    0.59
   1   6  -7   14.66    0.55
   1   6  -7   15.15    0.67
   1   6  -7   16.89    0.68
  -1  -6   7   15.74    0.72
   0   6  -7    0.15    0.24
   0   6  -7   -0.20    0.18
   0   6  -7   -0.04    0.06
   0   6  -7   -0.11    0.19
   0   6  -7   -0.05    0.21
   0  -6   7    0.32    0.30
  -1   6  -7    0.81    0.20
  -1   6  -7    0.56    0.24
  -1   6  -7    0.56    0.24
  -1   6  -7    0.44    0.26
  -1   6  -7    0.53    0.25
   1  -6   7    0.54    0.30
   1  -6   7    0.47    0.31
  -2   6  -7    4.74    0.34
  -2   6  -7    4.55    0.40
  -2   6  -7    4.91    0.43
  -2   6  -7    4.49    0.33
  -2   6  -7    5.29    0.37
  -2   6  -7    4.97    0.47
   2  -6   7    4.76    0.44
   2  -6   7    4.28    0.45
  -3   6  -7    0.74    0.30
  -3   6  -7    0.59    0.26
  -3   6  -7    0.45    0.28
  -3   6  -7    0.45    0.22
  -3   6  -7    0.70    0.31
  -3   6  -7    0.98    0.30
  -4   6  -7    0.52    0.31
  -4   6  -7    0.95    0.29
  -4   6  -7    0.66    0.31
  -4   6  -7    0.20    0.31
  -5   6  -7    9.64    0.63
  -5   6  -7    8.54    0.57
  -5   6  -7    9.99    0.67
  -6   6  -7    9.42    0.65
  -6   6  -7    9.73    0.70
  -7   6  -7    7.37    0.62
  -7   6  -7    7.56    0.60
  -8   6  -7    3.72    0.61
  -8   6  -7    4.46    0.55
  -9   6  -7    5.01    0.70
  -9   6  -7    4.60    0.63
  11   5  -7    0.96    0.52
 -11  -5   7    0.77    0.57
  10   5  -7   11.78    0.77
   9   5  -7   10.40    0.68
   8   5  -7    2.65    0.38
   8   5  -7    2.19    0.42
  -8  -5   7    2.10    0.40
   7   5  -7    3.28    0.37
   7   5  -7    3.58    0.38
   7   5  -7    3.26    0.41
  -7  -5   7    2.11    0.41
   6   5  -7    5.89    0.46
   6   5  -7    5.42    0.48
   6   5  -7    5.16    0.39
   6   5  -7    5.65    0.49
   5   5  -7    2.30    0.31
   5   5  -7    2.28    0.36
   5   5  -7    2.06    0.27
   5   5  -7    2.33    0.35
   5   5  -7    2.63    0.32
  -5  -5   7    2.47    0.32
   4   5  -7   14.72    0.66
   4   5  -7   14.03    0.65
   4   5  -7   13.01    0.64
   4   5  -7   15.17    0.66
   4   5  -7   14.89    0.57
  -4  -5   7   13.64    0.64
   3   5  -7   -0.35    0.25
   3   5  -7   -0.14    0.20
   3   5  -7   -0.16    0.20
   3   5  -7    0.02    0.23
   3   5  -7    0.09    0.23
  -3  -5   7    0.24    0.26
  -3  -5   7    0.28    0.26
   2   5  -7    0.77    0.23
   2   5  -7    0.45    0.19
   2   5  -7    0.76    0.24
   2   5  -7    0.40    0.19
   2   5  -7    0.53    0.22
  -2  -5   7    0.55    0.29
  -2  -5   7    0.57    0.26
   1   5  -7   20.19    0.66
   1   5  -7   20.46    0.80
   1   5  -7   19.62    0.74
   1   5  -7   20.32    0.77
   1   5  -7   20.79    0.74
  -1  -5   7   18.83    0.81
   0   5  -7   -0.12    0.23
   0   5  -7   -0.03    0.23
   0   5  -7   -0.16    0.18
   0   5  -7    0.04    0.22
   0   5  -7   -0.01    0.18
   0  -5   7   -0.21    0.27
  -1   5  -7    0.14    0.18
  -1   5  -7    0.14    0.24
  -1   5  -7   -0.02    0.25
  -1   5  -7   -0.04    0.21
  -1   5  -7    0.07    0.24
   1  -5   7    0.10    0.27
  -2   5  -7   17.28    0.59
  -2   5  -7   17.80    0.71
  -2   5  -7   16.18    0.74
  -2   5  -7   16.66    0.71
  -2   5  -7   15.66    0.72
  -2   5  -7   16.96    0.72
   2  -5   7   16.59    0.80
   2  -5   7   15.97    0.72
  -3   5  -7   26.22    0.98
  -3   5  -7   26.04    1.02
  -3   5  -7   27.13    1.02
  -3   5  -7   26.92    0.85
  -3   5  -7   26.80    0.99
  -3   5  -7   26.33    1.00
   3  -5   7   23.97    1.09
  -4   5  -7   29.26    1.14
  -4   5  -7   29.65    1.11
  -4   5  -7   28.02    1.09
  -4   5  -7   29.43    1.13
  -5   5  -7    4.14    0.43
  -5   5  -7    4.57    0.41
  -5   5  -7    4.95    0.42
  -6   5  -7    0.42    0.34
  -6   5  -7    0.82    0.36
  -7   5  -7    1.78    0.44
  -7   5  -7    2.18    0.42
  -8   5  -7    2.24    0.47
  -8   5  -7    2.01    0.53
  -9   5  -7   -0.84    0.39
  -9   5  -7    0.54    0.60
  11   4  -7    2.52    0.56
 -11  -4   7    2.74    0.63
  10   4  -7    7.26    0.66
   9   4  -7    3.52    0.48
  -9  -4   7    2.93    0.44
   8   4  -7    1.04    0.33
   8   4  -7    0.49    0.37
  -8  -4   7    1.11    0.36
   7   4  -7    1.30    0.31
   7   4  -7    1.47    0.33
   7   4  -7    1.98    0.37
   6   4  -7    1.07    0.34
   6   4  -7    1.39    0.30
   6   4  -7    1.12    0.31
   5   4  -7    3.66    0.36
   5   4  -7    4.22    0.40
   5   4  -7    4.19    0.42
   5   4  -7    4.17    0.34
   5   4  -7    3.45    0.30
  -5  -4   7    3.83    0.35
   4   4  -7    3.67    0.32
   4   4  -7    4.42    0.37
   4   4  -7    3.78    0.29
   4   4  -7    3.99    0.34
   4   4  -7    4.02    0.37
  -4  -4   7    4.16    0.39
   3   4  -7    5.48    0.45
   3   4  -7    5.39    0.43
   3   4  -7    5.46    0.37
   3   4  -7    6.44    0.42
   3   4  -7    5.69    0.46
   3   4  -7    6.19    0.45
  -3  -4   7    6.38    0.43
   2   4  -7    6.47    0.43
   2   4  -7    6.50    0.42
   2   4  -7    6.58    0.46
   2   4  -7    7.07    0.45
   2   4  -7    7.00    0.42
   2   4  -7    6.30    0.36
  -2  -4   7    7.00    0.47
  -2  -4   7    6.55    0.43
   1   4  -7   19.26    0.63
   1   4  -7   19.37    0.76
   1   4  -7   20.07    0.73
   1   4  -7   18.57    0.72
   1   4  -7   19.18    0.74
  -1  -4   7   18.36    0.76
   0   4  -7   16.12    0.66
   0   4  -7   16.19    0.64
   0   4  -7   15.80    0.54
   0   4  -7   15.29    0.64
   0   4  -7   15.22    0.63
   0  -4   7   14.03    0.65
  -1   4  -7   22.25    0.89
  -1   4  -7   25.34    0.91
  -1   4  -7   25.77    0.94
  -1   4  -7   25.24    0.92
  -1   4  -7   26.45    0.78
   1  -4   7   24.20    0.93
  -2   4  -7    7.41    0.55
  -2   4  -7    5.70    0.46
  -2   4  -7    7.19    0.36
  -2   4  -7    7.50    0.49
  -2   4  -7    6.34    0.47
   2  -4   7    6.78    0.53
  -3   4  -7    3.98    0.32
  -3   4  -7    5.13    0.47
  -3   4  -7    4.81    0.34
  -3   4  -7    4.08    0.36
  -3   4  -7    4.31    0.39
  -4   4  -7    0.39    0.30
  -4   4  -7    0.07    0.15
  -4   4  -7    0.07    0.29
  -4   4  -7    0.27    0.27
  -5   4  -7   18.37    0.83
  -5   4  -7   18.22    0.84
  -5   4  -7   18.48    0.83
  -6   4  -7    2.70    0.39
  -6   4  -7    2.76    0.41
  -7   4  -7    1.38    0.41
  -7   4  -7    1.23    0.41
  -8   4  -7    0.20    0.39
  -8   4  -7   -0.12    0.46
  -9   4  -7    3.39    0.67
 -10   4  -7    1.30    0.74
 -11  -3   7   -1.12    0.59
  10   3  -7    1.35    0.46
 -10  -3   7    1.18    0.48
   9   3  -7    6.41    0.58
  -9  -3   7    5.13    0.54
   8   3  -7    0.29    0.37
   8   3  -7   -0.39    0.32
  -8  -3   7   -0.31    0.36
   7   3  -7    0.48    0.30
   7   3  -7    0.22    0.35
   7   3  -7   -0.08    0.28
   6   3  -7    7.13    0.53
   6   3  -7    7.62    0.46
   6   3  -7    8.42    0.55
   6   3  -7    7.65    0.58
  -6  -3   7    7.08    0.53
   5   3  -7    8.67    0.56
   5   3  -7    8.63    0.47
   5   3  -7    7.43    0.50
   5   3  -7    8.35    0.54
   5   3  -7    8.56    0.55
   5   3  -7    8.93    0.47
  -5  -3   7    7.93    0.50
   4   3  -7   52.20    1.49
   4   3  -7   49.02    1.69
   4   3  -7   50.82    1.65
   4   3  -7   50.70    1.69
   4   3  -7   51.31    1.75
  -4  -3   7   51.00    1.75
   3   3  -7   44.92    1.46
   3   3  -7   43.46    1.47
   3   3  -7   43.98    1.44
   3   3  -7   44.66    1.53
   3   3  -7   43.99    1.52
   3   3  -7   45.02    1.29
  -3  -3   7   42.56    1.53
   2   3  -7   33.54    1.16
   2   3  -7   32.04    1.16
   2   3  -7   32.43    0.97
   2   3  -7   33.54    1.10
   2   3  -7   33.53    1.12
   2   3  -7   32.92    1.12
  -2  -3   7   31.90    1.18
  -2  -3   7   31.01    1.15
   1   3  -7   13.33    0.58
   1   3  -7   14.81    0.51
   1   3  -7   15.67    0.62
   1   3  -7   13.63    0.61
   1   3  -7   13.95    0.60
   1   3  -7   14.32    0.61
  -1  -3   7   14.55    0.63
  -1  -3   7   13.65    0.58
   0   3  -7    6.96    0.33
   0   3  -7    6.94    0.41
   0   3  -7    7.11    0.44
   0   3  -7    6.50    0.40
   0   3  -7    7.59    0.42
   0  -3   7    6.87    0.41
  -1   3  -7    3.07    0.29
  -1   3  -7    3.14    0.22
  -1   3  -7    2.96    0.27
  -1   3  -7    3.20    0.30
  -1   3  -7    2.62    0.26
   1  -3   7    2.91    0.29
  -2   3  -7    1.46    0.20
  -2   3  -7    1.35    0.28
  -2   3  -7    1.33    0.27
  -2   3  -7    1.56    0.22
  -2   3  -7    1.65    0.25
  -2   3  -7    1.30    0.26
  -3   3  -7    4.64    0.39
  -3   3  -7    4.37    0.33
  -3   3  -7    3.40    0.32
  -3   3  -7    3.75    0.30
  -3   3  -7    4.27    0.35
  -3   3  -7    4.48    0.38
  -4   3  -7    0.35    0.28
  -4   3  -7   -0.27    0.29
  -4   3  -7    0.02    0.28
  -4   3  -7   -0.11    0.20
  -4   3  -7    0.53    0.29
   4  -3   7   -0.27    0.27
  -5   3  -7    0.85    0.34
  -5   3  -7    0.36    0.28
  -5   3  -7    0.36    0.32
  -6   3  -7    9.49    0.62
  -6   3  -7   10.12    0.61
  -7   3  -7    7.74    0.63
  -7   3  -7    7.82    0.61
  -8   3  -7   11.22    0.82
  -8   3  -7   12.92    0.78
  -9   3  -7    0.83    0.56
 -10   3  -7    1.16    0.67
 -11  -2   7    4.10    0.68
 -10  -2   7    6.47    0.66
   9   2  -7    5.34    0.57
  -9  -2   7    5.29    0.54
   8   2  -7    5.52    0.52
   8   2  -7    5.05    0.50
  -8  -2   7    3.84    0.47
   7   2  -7    8.87    0.57
   7   2  -7    8.57    0.59
   7   2  -7    8.81    0.52
  -7  -2   7    9.77    0.57
   6   2  -7   11.72    0.66
   6   2  -7   14.21    0.70
   6   2  -7   13.24    0.61
   6   2  -7   12.72    0.65
  -6  -2   7   13.07    0.67
   5   2  -7    0.73    0.23
   5   2  -7    0.76    0.34
   5   2  -7    0.58    0.33
   5   2  -7    0.59    0.24
   5   2  -7    0.69    0.27
   5   2  -7    0.67    0.27
  -5  -2   7    0.25    0.27
   4   2  -7    5.44    0.39
   4   2  -7    5.48    0.47
   4   2  -7    5.11    0.46
   4   2  -7    5.31    0.43
   4   2  -7    5.86    0.38
   4   2  -7    5.74    0.42
   4   2  -7    6.47    0.45
  -4  -2   7    5.58    0.42
   3   2  -7    6.21    0.36
   3   2  -7    6.41    0.45
   3   2  -7    6.65    0.42
   3   2  -7    5.95    0.40
   3   2  -7    6.84    0.45
   3   2  -7    6.82    0.41
  -3  -2   7    6.58    0.40
   2   2  -7    3.41    0.31
   2   2  -7    3.37    0.25
   2   2  -7    3.19    0.25
   2   2  -7    3.30    0.29
   2   2  -7    3.49    0.28
   2   2  -7    3.79    0.30
  -2  -2   7    3.59    0.32
   1   2  -7    0.12    0.18
   1   2  -7    0.35    0.22
   1   2  -7    0.17    0.17
   1   2  -7    0.17    0.19
   1   2  -7    0.35    0.22
   1   2  -7    0.11    0.16
  -1  -2   7    0.01    0.20
  -1  -2   7    0.25    0.19
   0   2  -7   -0.05    0.20
   0   2  -7    0.29    0.16
   0   2  -7    0.32    0.16
   0   2  -7    0.46    0.19
   0   2  -7    0.15    0.21
   0  -2   7    0.25    0.18
  -1   2  -7    1.57    0.24
  -1   2  -7    1.38    0.20
  -1   2  -7    1.35    0.18
  -1   2  -7    1.35    0.22
  -1   2  -7    1.48    0.25
   1  -2   7    1.51    0.22
  -2   2  -7    3.12    0.28
  -2   2  -7    3.33    0.32
  -2   2  -7    2.49    0.24
  -2   2  -7    3.13    0.28
  -2   2  -7    3.53    0.28
  -2   2  -7    2.94    0.31
  -3   2  -7   46.84    1.57
  -3   2  -7   47.75    1.35
  -3   2  -7   47.85    1.62
  -3   2  -7   43.64    1.56
  -3   2  -7   46.71    1.54
  -3   2  -7   46.25    1.53
  -4   2  -7   11.21    0.58
  -4   2  -7   10.59    0.63
  -4   2  -7   10.22    0.60
  -4   2  -7    9.68    0.57
  -4   2  -7   10.44    0.46
   4  -2   7    9.71    0.62
  -5   2  -7   46.23    1.64
  -5   2  -7   47.21    1.58
  -5   2  -7   45.63    1.60
   5  -2   7   44.15    1.70
  -6   2  -7    0.83    0.32
  -6   2  -7    0.91    0.35
  -7   2  -7    4.47    0.45
  -7   2  -7    4.07    0.46
  -8   2  -7    4.91    0.55
  -9   2  -7    2.28    0.57
 -10   2  -7    4.03    0.70
 -11   2  -7    1.17    0.74
 -11  -1   7    6.04    0.77
 -10  -1   7   12.32    0.86
  -9  -1   7    7.06    0.67
   8   1  -7    0.09    0.32
   8   1  -7   -0.13    0.28
   8   1  -7    0.50    0.39
  -8  -1   7    0.27    0.37
   7   1  -7    2.76    0.36
   7   1  -7    2.83    0.34
   7   1  -7    2.39    0.43
  -7  -1   7    3.92    0.39
   6   1  -7    1.07    0.36
   6   1  -7    0.79    0.29
   6   1  -7    1.09    0.28
   6   1  -7    0.95    0.29
  -6  -1   7    1.01    0.33
   5   1  -7    1.55    0.28
   5   1  -7    1.60    0.25
   5   1  -7    1.70    0.37
   5   1  -7    1.18    0.35
   5   1  -7    1.56    0.28
   5   1  -7    1.66    0.27
  -5  -1   7    1.59    0.31
   4   1  -7    2.94    0.34
   4   1  -7    2.70    0.25
   4   1  -7    2.69    0.29
   4   1  -7    2.24    0.28
   4   1  -7    2.86    0.34
   4   1  -7    2.74    0.27
   4   1  -7    2.87    0.28
  -4  -1   7    2.81    0.30
   3   1  -7   13.75    0.51
   3   1  -7   13.56    0.59
   3   1  -7   13.63    0.60
   3   1  -7   13.39    0.59
   3   1  -7   13.59    0.59
   3   1  -7   13.40    0.57
   3   1  -7   13.34    0.58
  -3  -1   7   13.89    0.60
   2   1  -7   11.62    0.55
   2   1  -7   12.49    0.46
   2   1  -7   11.96    0.55
   2   1  -7   12.04    0.55
   2   1  -7   12.02    0.52
   2   1  -7   12.62    0.52
  -2  -1   7   11.94    0.54
   1   1  -7  154.48    4.57
   1   1  -7  145.90    4.57
   1   1  -7  147.02    4.80
   1   1  -7  151.85    4.06
   1   1  -7  152.53    4.51
   1   1  -7  147.90    4.72
  -1  -1   7  146.73    4.83
  -1  -1   7  145.34    4.72
   0   1  -7   65.59    2.21
   0   1  -7   72.88    1.96
   0   1  -7   71.92    2.32
   0   1  -7   69.41    2.18
   0   1  -7   68.22    2.22
   0  -1   7   70.57    2.26
   0  -1   7   71.93    2.35
  -1   1  -7   18.20    0.70
  -1   1  -7   17.07    0.69
  -1   1  -7   18.12    0.59
  -1   1  -7   17.22    0.71
  -1   1  -7   17.87    0.70
   1  -1   7   17.12    0.64
  -2   1  -7   67.08    2.08
  -2   1  -7   69.61    1.86
  -2   1  -7   66.53    2.20
  -2   1  -7   68.51    2.08
  -2   1  -7   64.88    2.12
  -2   1  -7   59.33    2.12
  -3   1  -7    9.70    0.53
  -3   1  -7    9.56    0.41
  -3   1  -7    8.98    0.50
  -3   1  -7   10.01    0.55
  -3   1  -7    8.99    0.52
  -3   1  -7    9.04    0.51
  -4   1  -7   31.32    0.94
  -4   1  -7   29.60    1.12
  -4   1  -7   29.55    1.10
  -4   1  -7   30.08    1.13
  -4   1  -7   30.36    1.13
   4  -1   7   29.72    1.18
  -5   1  -7    0.07    0.30
  -5   1  -7   -0.12    0.29
  -5   1  -7   -0.02    0.30
   5  -1   7    0.00    0.32
  -6   1  -7   -0.11    0.31
  -6   1  -7   -0.03    0.33
   6  -1   7   -0.15    0.35
  -7   1  -7    4.03    0.46
  -7   1  -7    4.08    0.43
  -8   1  -7    1.09    0.43
  -9   1  -7    1.21    0.57
 -10   1  -7    3.57    0.66
 -11   1  -7    0.72    0.71
 -11   0   7    1.05    0.64
 -10   0   7    0.21    0.55
  -9   0   7    1.46    0.49
   8   0  -7    6.73    0.60
   8   0  -7    7.15    0.51
   8   0  -7    6.26    0.56
  -8   0   7    4.98    0.54
   7   0  -7   12.31    0.71
   7   0  -7   11.58    0.73
   7   0  -7   12.45    0.64
   6   0  -7    1.72    0.40
   6   0  -7    2.12    0.33
   6   0  -7    2.41    0.33
  -6   0   7    2.29    0.36
   5   0  -7    0.36    0.25
   5   0  -7    0.57    0.25
   5   0  -7    0.83    0.26
   5   0  -7    0.47    0.23
   5   0  -7    0.82    0.32
   4   0  -7   32.39    1.16
   4   0  -7   29.66    1.13
   4   0  -7   31.44    1.15
   4   0  -7   32.95    0.99
   4   0  -7   32.33    1.15
   4   0  -7   32.78    1.09
  -4   0   7   31.18    1.16
  -4   0   7   31.05    1.14
   3   0  -7    0.17    0.18
   3   0  -7    0.24    0.18
   3   0  -7    0.34    0.19
   3   0  -7    0.27    0.17
   3   0  -7    0.39    0.23
   3   0  -7    0.26    0.19
   3   0  -7    0.34    0.23
  -3   0   7    0.31    0.23
  -3   0   7    0.16    0.21
   2   0  -7   25.20    0.93
   2   0  -7   25.41    0.93
   2   0  -7   26.30    0.94
   2   0  -7   25.68    0.90
   2   0  -7   24.93    0.89
   2   0  -7   26.03    0.93
   2   0  -7   26.59    0.79
  -2   0   7   24.73    0.94
   1   0  -7  116.72    3.55
   1   0  -7  116.08    3.78
   1   0  -7  116.93    3.60
   1   0  -7  114.13    3.19
   1   0  -7  122.21    3.60
   1   0  -7  118.24    3.70
  -1   0   7  112.67    3.80
  -1   0   7  114.57    3.18
   0   0  -7   45.41    1.50
   0   0  -7   46.60    1.53
   0   0  -7   48.08    1.52
   0   0  -7   47.36    1.58
   0   0  -7   47.83    1.55
   0   0  -7   45.78    1.33
   0   0   7   46.79    1.52
   0   0   7   46.20    1.33
   0   0   7   46.90    1.60
  -1   0  -7    4.42    0.28
  -1   0  -7    4.31    0.34
  -1   0  -7    4.25    0.37
  -1   0  -7    4.26    0.36
   1   0   7    3.84    0.33
   1   0   7    3.37    0.26
   1   0   7    4.09    0.25
  -2   0  -7    3.49    0.25
  -2   0  -7    3.92    0.29
  -2   0  -7    4.82    0.38
  -2   0  -7    4.96    0.36
  -2   0  -7    4.15    0.37
  -2   0  -7    4.18    0.29
   2   0   7    3.83    0.35
   2   0   7    4.34    0.39
  -3   0  -7    2.60    0.21
  -3   0  -7    2.52    0.27
  -3   0  -7    3.09    0.30
  -3   0  -7    2.69    0.30
  -3   0  -7    2.45    0.26
   3   0   7    2.26    0.31
  -4   0  -7   15.14    0.71
  -4   0  -7   15.45    0.57
  -4   0  -7   15.79    0.71
  -4   0  -7   15.64    0.71
  -4   0  -7   15.89    0.70
   4   0   7   15.18    0.74
   4   0   7   15.23    0.72
  -5   0  -7   12.11    0.65
  -5   0  -7   11.44    0.67
  -5   0  -7   11.32    0.63
   5   0   7   11.48    0.64
  -6   0  -7    4.78    0.48
  -6   0  -7    5.29    0.44
   6   0   7    5.08    0.47
  -7   0  -7   21.43    0.95
  -8   0  -7    5.78    0.53
  -9   0  -7    6.17    0.65
 -10   0  -7    6.83    0.72
 -11   0  -7    8.85    0.91
 -11   1   7    1.17    0.69
 -10   1   7    4.77    0.62
  -9   1   7   12.04    0.82
   8  -1  -7   11.10    0.70
  -8   1   7   13.45    0.77
   7  -1  -7   17.67    0.86
   7  -1  -7   15.90    0.86
   7  -1  -7   17.60    0.80
  -7   1   7   20.35    0.94
   6  -1  -7    7.10    0.60
   6  -1  -7    7.09    0.56
   6  -1  -7    7.01    0.48
  -6   1   7    6.82    0.53
   5  -1  -7   12.17    0.67
   5  -1  -7   13.66    0.64
   5  -1  -7   12.05    0.63
   5  -1  -7   12.96    0.62
   5  -1  -7   12.99    0.56
  -5   1   7   12.85    0.67
  -5   1   7   13.40    0.55
  -5   1   7   12.68    0.68
   4  -1  -7    1.45    0.24
   4  -1  -7    2.01    0.31
   4  -1  -7    1.03    0.21
   4  -1  -7    1.62    0.30
   4  -1  -7    1.43    0.23
   4  -1  -7    1.36    0.26
  -4   1   7    1.74    0.22
  -4   1   7    1.35    0.27
  -4   1   7    1.25    0.30
   3  -1  -7    7.01    0.42
   3  -1  -7    6.93    0.45
   3  -1  -7    7.74    0.44
   3  -1  -7    7.59    0.41
   3  -1  -7    7.88    0.48
   3  -1  -7    7.94    0.37
  -3   1   7    7.59    0.36
  -3   1   7    6.98    0.43
  -3   1   7    7.06    0.46
   2  -1  -7    8.79    0.44
   2  -1  -7    9.55    0.49
   2  -1  -7    8.47    0.47
   2  -1  -7    8.96    0.43
   2  -1  -7    8.58    0.45
   2  -1  -7    9.06    0.38
  -2   1   7    8.14    0.36
  -2   1   7    8.94    0.45
  -2   1   7    9.32    0.48
   1  -1  -7    5.82    0.37
   1  -1  -7    6.21    0.40
   1  -1  -7    6.13    0.40
   1  -1  -7    6.20    0.37
   1  -1  -7    6.33    0.42
   1  -1  -7    6.03    0.30
   1  -1  -7    6.72    0.33
  -1   1   7    5.77    0.42
  -1   1   7    6.30    0.31
  -1   1   7    6.72    0.37
   0  -1  -7    9.54    0.48
   0  -1  -7    9.55    0.37
   0  -1  -7    9.12    0.46
   0  -1  -7    9.45    0.48
   0  -1  -7    9.38    0.48
   0  -1  -7    9.08    0.37
   0   1   7    8.99    0.45
   0   1   7    9.38    0.37
   0   1   7    9.79    0.50
  -1  -1  -7   30.85    1.08
  -1  -1  -7   31.46    1.08
  -1  -1  -7   31.70    0.93
  -1  -1  -7   30.93    1.09
  -1  -1  -7   30.78    1.05
   1   1   7   31.41    1.08
   1   1   7   29.95    0.91
   1   1   7   30.53    1.10
   1   1   7   30.85    1.00
  -2  -1  -7   39.72    1.40
  -2  -1  -7   39.74    1.34
  -2  -1  -7   40.94    1.18
  -2  -1  -7   40.34    1.37
   2   1   7   40.78    1.18
   2   1   7   42.95    1.39
   2   1   7   40.69    1.38
  -3  -1  -7   16.03    0.67
  -3  -1  -7   16.93    0.69
  -3  -1  -7   16.09    0.67
  -3  -1  -7   15.46    0.55
   3   1   7   15.40    0.69
  -4  -1  -7   72.47    2.01
  -4  -1  -7   70.06    2.26
  -4  -1  -7   69.51    2.32
  -4  -1  -7   72.35    2.40
   4   1   7   72.50    2.33
  -5  -1  -7   26.03    1.02
  -5  -1  -7   24.21    0.99
   5   1   7   25.54    1.03
   5   1   7   24.97    1.02
  -6  -1  -7   41.38    1.48
  -6  -1  -7   38.84    1.44
   6   1   7   39.85    1.50
  -7  -1  -7   22.99    0.97
   7   1   7   21.76    0.98
  -8  -1  -7    0.89    0.38
  -9  -1  -7    0.77    0.47
 -10  -1  -7   -0.26    0.55
 -11  -1  -7    1.39    0.68
 -11   2   7    3.69    0.76
 -10   2   7    4.70    0.62
  -9   2   7    0.81    0.51
   8  -2  -7   16.34    0.86
  -8   2   7   15.62    0.88
   7  -2  -7   10.36    0.58
   7  -2  -7    9.02    0.59
  -7   2   7    6.42    0.59
   6  -2  -7    4.24    0.39
   6  -2  -7    5.26    0.50
   6  -2  -7    4.86    0.46
  -6   2   7    5.63    0.50
   5  -2  -7    7.67    0.50
   5  -2  -7    7.63    0.53
   5  -2  -7    8.97    0.53
   5  -2  -7    7.68    0.59
   5  -2  -7    7.67    0.47
  -5   2   7    7.73    0.42
  -5   2   7    8.07    0.57
  -5   2   7    8.53    0.56
   4  -2  -7    1.19    0.23
   4  -2  -7    1.43    0.27
   4  -2  -7    1.33    0.31
   4  -2  -7    1.38    0.24
   4  -2  -7    1.17    0.21
  -4   2   7    1.35    0.21
  -4   2   7    0.75    0.29
  -4   2   7    1.24    0.30
   3  -2  -7    0.07    0.21
   3  -2  -7   -0.04    0.18
   3  -2  -7   -0.24    0.16
   3  -2  -7   -0.11    0.24
   3  -2  -7   -0.11    0.18
  -3   2   7    0.11    0.24
  -3   2   7    0.06    0.16
  -3   2   7    0.09    0.23
   2  -2  -7    3.75    0.26
   2  -2  -7    3.38    0.31
   2  -2  -7    3.66    0.31
   2  -2  -7    3.67    0.23
   2  -2  -7    3.77    0.32
  -2   2   7    3.76    0.28
  -2   2   7    3.60    0.30
  -2   2   7    2.86    0.28
   1  -2  -7    3.55    0.33
   1  -2  -7    3.86    0.26
   1  -2  -7    3.35    0.26
  -1   2   7    3.51    0.29
  -1   2   7    4.05    0.26
  -1   2   7    3.88    0.32
   0  -2  -7   60.38    1.89
   0  -2  -7   58.77    1.69
   0  -2  -7   55.85    1.92
   0  -2  -7   60.82    2.00
   0  -2  -7   61.80    1.91
   0   2   7   59.14    1.94
   0   2   7   62.83    1.69
   0   2   7   61.98    2.02
  -1  -2  -7   51.23    1.66
  -1  -2  -7   52.07    1.44
  -1  -2  -7   50.93    1.71
   1   2   7   50.69    1.44
   1   2   7   49.87    1.66
   1   2   7   49.84    1.72
  -2  -2  -7  124.50    4.08
  -2  -2  -7  139.78    3.63
  -2  -2  -7  134.32    4.29
   2   2   7  131.81    4.10
   2   2   7  128.19    4.09
   2   2   7  136.71    3.62
  -3  -2  -7   38.00    1.31
  -3  -2  -7   36.92    1.31
  -3  -2  -7   37.02    1.11
   3   2   7   38.87    1.31
  -4  -2  -7    2.64    0.22
  -4  -2  -7    2.40    0.28
  -4  -2  -7    2.97    0.34
   4   2   7    2.86    0.35
  -5  -2  -7    5.44    0.47
  -5  -2  -7    5.87    0.52
   5   2   7    4.83    0.45
   5   2   7    4.94    0.44
  -6  -2  -7    2.15    0.34
   6   2   7    2.13    0.36
   6   2   7    2.35    0.41
  -7  -2  -7    0.33    0.32
   7   2   7    0.52    0.33
  -8  -2  -7   -0.09    0.34
   8   2   7    0.15    0.32
  -9  -2  -7   16.76    0.92
 -10  -2  -7   -0.47    0.52
 -11  -2  -7    3.57    0.71
 -11   3   7    3.52    0.73
 -10   3   7    0.38    0.55
  -9   3   7    1.33    0.50
   8  -3  -7    1.13    0.36
  -8   3   7    1.40    0.43
   7  -3  -7    9.61    0.61
  -7   3   7    9.14    0.72
   6  -3  -7   27.29    1.08
   6  -3  -7   26.85    1.09
   5  -3  -7   13.73    0.71
   5  -3  -7   12.45    0.63
   5  -3  -7   12.41    0.64
  -5   3   7   12.97    0.69
  -5   3   7   12.94    0.55
  -5   3   7   12.30    0.68
   4  -3  -7   43.12    1.52
   4  -3  -7   44.72    1.50
   4  -3  -7   42.48    1.51
   4  -3  -7   43.04    1.29
  -4   3   7   42.52    1.27
  -4   3   7   41.45    1.54
  -4   3   7   44.21    1.49
   3  -3  -7    2.37    0.30
   3  -3  -7    2.22    0.23
   3  -3  -7    1.70    0.26
   3  -3  -7    2.31    0.21
  -3   3   7    2.20    0.29
  -3   3   7    2.08    0.21
  -3   3   7    2.00    0.29
   2  -3  -7    1.53    0.20
   2  -3  -7    2.60    0.29
   2  -3  -7    1.86    0.24
   2  -3  -7    2.11    0.20
  -2   3   7    2.19    0.20
  -2   3   7    2.10    0.28
  -2   3   7    2.11    0.26
   1  -3  -7   37.78    1.07
   1  -3  -7   38.04    1.25
   1  -3  -7   35.21    1.27
  -1   3   7   36.91    1.07
  -1   3   7   37.40    1.26
  -1   3   7   35.90    1.28
   0  -3  -7   15.02    0.51
   0  -3  -7   15.29    0.62
   0  -3  -7   16.13    0.64
   0  -3  -7   15.22    0.61
   0   3   7   15.28    0.51
   0   3   7   16.20    0.62
   0   3   7   15.19    0.64
  -1  -3  -7    6.75    0.39
  -1  -3  -7    7.06    0.42
  -1  -3  -7    6.37    0.32
   1   3   7    6.82    0.42
   1   3   7    6.56    0.32
   1   3   7    6.86    0.37
  -2  -3  -7    5.92    0.37
  -2  -3  -7    6.16    0.42
  -2  -3  -7    5.45    0.30
   2   3   7    5.29    0.39
   2   3   7    5.20    0.41
   2   3   7    5.70    0.34
   2   3   7    5.57    0.40
   2   3   7    5.88    0.30
  -3  -3  -7   10.50    0.50
  -3  -3  -7   11.18    0.55
   3   3   7    9.91    0.54
   3   3   7   10.45    0.41
   3   3   7   10.10    0.51
  -4  -3  -7    0.17    0.25
  -4  -3  -7   -0.18    0.20
   4   3   7    0.12    0.19
   4   3   7    0.22    0.27
  -5  -3  -7    7.56    0.51
  -5  -3  -7    8.14    0.57
   5   3   7    8.25    0.55
   5   3   7    7.46    0.49
   5   3   7    7.41    0.51
  -6  -3  -7   38.37    1.40
   6   3   7   37.05    1.39
   6   3   7   37.98    1.40
  -7  -3  -7    1.18    0.33
   7   3   7    1.26    0.33
   7   3   7    1.31    0.40
  -8  -3  -7   14.40    0.76
   8   3   7   13.90    0.72
  -9  -3  -7   26.68    1.18
 -10  -3  -7    6.30    0.66
 -11  -3  -7    4.16    0.70
 -11   4   7    1.84    0.70
 -10   4   7    7.93    0.75
  -9   4   7    4.99    0.64
   8  -4  -7    8.04    0.65
  -8   4   7   10.33    0.79
   7  -4  -7   26.67    1.10
  -7   4   7   27.26    1.17
   6  -4  -7   23.16    1.00
   6  -4  -7   24.39    0.99
  -6   4   7   24.07    1.01
   5  -4  -7   18.34    0.80
   5  -4  -7   18.28    0.83
   5  -4  -7   17.46    0.79
  -5   4   7   18.11    0.81
  -5   4   7   16.56    0.66
  -5   4   7   16.56    0.80
   4  -4  -7   64.47    2.23
   4  -4  -7   68.20    2.22
   4  -4  -7   69.11    2.16
  -4   4   7   62.89    2.25
  -4   4   7   63.22    2.13
  -4   4   7   64.97    1.87
   3  -4  -7   11.90    0.55
   3  -4  -7   11.90    0.56
   3  -4  -7   11.67    0.57
  -3   4   7   12.59    0.48
  -3   4   7   12.35    0.58
  -3   4   7   11.27    0.55
  -3   4   7   13.05    0.61
   2  -4  -7    0.04    0.05
   2  -4  -7    0.01    0.22
   2  -4  -7    0.06    0.16
  -2   4   7    0.00    0.22
  -2   4   7    0.03    0.16
  -2   4   7    0.23    0.23
  -2   4   7    0.06    0.22
   1  -4  -7    1.76    0.19
   1  -4  -7    1.58    0.22
   1  -4  -7    1.89    0.25
  -1   4   7    2.16    0.24
  -1   4   7    1.87    0.25
  -1   4   7    1.52    0.26
  -1   4   7    2.18    0.19
   0  -4  -7   37.66    1.13
   0  -4  -7   31.35    1.14
   0  -4  -7   31.20    1.13
   0   4   7   31.84    1.14
   0   4   7   31.80    1.12
   0   4   7   32.69    0.96
   0   4   7   32.06    1.12
  -1  -4  -7   20.95    0.79
  -1  -4  -7   20.65    0.79
  -1  -4  -7   22.11    0.81
   1   4   7   21.71    0.81
   1   4   7   21.16    0.79
   1   4   7   22.32    0.80
   1   4   7   20.78    0.67
  -2  -4  -7    1.89    0.20
  -2  -4  -7    1.51    0.25
   2   4   7    1.95    0.19
   2   4   7    1.37    0.18
   2   4   7    1.58    0.26
   2   4   7    1.84    0.27
   2   4   7    1.54    0.26
   2   4   7    1.53    0.20
  -3  -4  -7   13.18    0.60
  -3  -4  -7   12.46    0.58
   3   4   7   13.48    0.57
   3   4   7   12.67    0.47
   3   4   7   12.28    0.45
   3   4   7   12.99    0.59
   3   4   7   12.74    0.54
   3   4   7   12.04    0.58
  -4  -4  -7   18.48    0.76
  -4  -4  -7   19.83    0.79
   4   4   7   18.12    0.77
   4   4   7   18.65    0.75
   4   4   7   18.25    0.78
  -5  -4  -7   88.99    3.07
  -5  -4  -7   98.04    2.99
   5   4   7   89.60    2.96
   5   4   7   94.42    2.90
  -6  -4  -7   24.59    0.96
   6   4   7   22.87    0.93
   6   4   7   22.10    0.97
  -7  -4  -7    6.84    0.55
   7   4   7    6.79    0.49
   7   4   7    6.37    0.58
  -8  -4  -7   19.26    0.89
  -9  -4  -7    0.69    0.41
 -10  -4  -7    7.20    0.66
 -11  -4  -7    1.77    0.66
 -11   5   7    0.96    0.74
 -10   5   7   12.85    0.99
  -9   5   7   19.41    1.07
  -8   5   7   19.44    1.00
   7  -5  -7    7.42    0.54
  -7   5   7    4.90    0.51
   6  -5  -7    4.53    0.42
  -6   5   7    5.63    0.50
   5  -5  -7    0.49    0.32
   5  -5  -7   -0.11    0.24
  -5   5   7    0.12    0.33
  -5   5   7    0.04    0.24
   4  -5  -7    1.36    0.30
   4  -5  -7    1.39    0.34
   4  -5  -7    1.31    0.25
  -4   5   7    1.71    0.34
  -4   5   7    1.43    0.33
  -4   5   7    0.94    0.23
  -4   5   7    1.68    0.33
   3  -5  -7   14.65    0.66
   3  -5  -7   13.82    0.61
  -3   5   7   13.82    0.61
  -3   5   7   13.87    0.64
  -3   5   7   14.81    0.64
  -3   5   7   13.86    0.53
  -3   5   7   13.88    0.66
   2  -5  -7   26.40    1.00
   2  -5  -7   26.90    0.97
   2  -5  -7   25.72    0.97
  -2   5   7   27.41    0.93
  -2   5   7   26.68    0.97
  -2   5   7   28.62    0.83
  -2   5   7   25.66    1.02
  -2   5   7   28.06    0.98
   1  -5  -7    2.99    0.27
   1  -5  -7    2.52    0.22
  -1   5   7    2.84    0.23
  -1   5   7    2.84    0.28
  -1   5   7    2.34    0.27
  -1   5   7    2.10    0.19
  -1   5   7    2.58    0.30
   0  -5  -7    5.89    0.34
   0  -5  -7    6.11    0.38
   0   5   7    6.39    0.36
   0   5   7    6.04    0.40
   0   5   7    5.90    0.42
   0   5   7    6.10    0.39
   0   5   7    7.07    0.31
  -1  -5  -7    7.21    0.28
  -1  -5  -7    6.82    0.38
  -1  -5  -7    7.41    0.36
   1   5   7    6.99    0.44
   1   5   7    7.47    0.42
   1   5   7    6.39    0.32
   1   5   7    6.96    0.37
   1   5   7    7.29    0.42
  -2  -5  -7   49.83    1.67
   2   5   7   49.16    1.58
   2   5   7   50.20    1.63
   2   5   7   48.78    1.41
   2   5   7   49.83    1.62
   2   5   7   49.20    1.59
   2   5   7   50.22    1.67
  -3  -5  -7   18.63    0.77
   3   5   7   19.40    0.68
   3   5   7   19.41    0.74
   3   5   7   21.61    0.79
   3   5   7   19.37    0.74
   3   5   7   19.51    0.74
   3   5   7   19.77    0.79
   3   5   7   20.68    0.65
  -4  -5  -7   40.59    1.45
   4   5   7   41.21    1.43
   4   5   7   42.98    1.43
   4   5   7   41.25    1.38
   4   5   7   42.11    1.39
   4   5   7   43.41    1.44
  -5  -5  -7   18.71    0.82
   5   5   7   20.36    0.77
   5   5   7   21.59    0.83
   5   5   7   20.46    0.85
   5   5   7   20.68    0.85
  -6  -5  -7    1.83    0.29
   6   5   7    2.52    0.31
   6   5   7    2.15    0.39
   6   5   7    1.78    0.29
  -7  -5  -7    0.94    0.30
   7   5   7    0.59    0.29
   7   5   7    1.20    0.40
  -8  -5  -7    1.45    0.34
   8   5   7    1.10    0.41
  -9  -5  -7    0.81    0.41
 -10  -5  -7    1.38    0.50
 -11  -5  -7    2.99    0.65
 -11   6   7    2.05    0.77
 -10   6   7    1.27    0.64
  -9   6   7   -0.24    0.51
  -8   6   7    0.24    0.47
   7  -6  -7    6.64    0.58
  -7   6   7    6.47    0.58
  -7   6   7    5.10    0.52
   6  -6  -7   27.78    1.08
  -6   6   7   23.11    1.13
  -6   6   7   27.46    1.08
   5  -6  -7   32.62    1.26
   5  -6  -7   32.81    1.31
  -5   6   7   35.26    1.26
  -5   6   7   35.15    1.09
   4  -6  -7   50.14    1.79
  -4   6   7   55.17    1.53
  -4   6   7   50.66    1.86
  -4   6   7   52.89    1.77
  -4   6   7   50.63    1.75
   3  -6  -7   44.59    1.54
   3  -6  -7   42.79    1.57
  -3   6   7   44.73    1.31
  -3   6   7   43.71    1.59
  -3   6   7   43.80    1.50
  -3   6   7   46.31    1.51
   2  -6  -7   25.92    0.98
   2  -6  -7   25.89    0.96
  -2   6   7   26.85    0.96
  -2   6   7   25.53    1.01
  -2   6   7   26.33    0.95
  -2   6   7   26.16    0.80
  -2   6   7   25.49    0.92
   1  -6  -7   80.73    2.73
   1  -6  -7   78.76    2.68
  -1   6   7   83.02    2.60
  -1   6   7   80.86    2.58
  -1   6   7   81.02    2.75
  -1   6   7   83.00    2.28
  -1   6   7   87.98    2.54
   0  -6  -7   14.14    0.56
   0  -6  -7   12.94    0.56
   0   6   7   13.42    0.57
   0   6   7   13.32    0.56
   0   6   7   13.19    0.57
   0   6   7   13.02    0.47
   0   6   7   13.99    0.58
  -1  -6  -7   -0.04    0.14
  -1  -6  -7    0.25    0.16
  -1  -6  -7    0.06    0.14
   1   6   7   -0.34    0.15
   1   6   7    0.24    0.21
   1   6   7   -0.11    0.14
   1   6   7    0.16    0.17
   1   6   7    0.01    0.20
  -2  -6  -7   26.57    0.89
  -2  -6  -7   26.38    0.95
  -2  -6  -7   25.84    0.95
   2   6   7   26.80    0.92
   2   6   7   27.00    0.82
   2   6   7   26.19    0.96
   2   6   7   27.56    0.95
   2   6   7   27.00    0.95
  -3  -6  -7   32.46    1.17
   3   6   7   32.34    1.14
   3   6   7   33.33    1.12
   3   6   7   32.37    0.98
   3   6   7   33.41    1.10
   3   6   7   32.30    1.15
   3   6   7   33.80    1.12
   3   6   7   34.07    1.15
  -4  -6  -7   -0.05    0.19
   4   6   7    0.07    0.17
   4   6   7    0.23    0.20
   4   6   7    0.00    0.17
   4   6   7   -0.16    0.25
   4   6   7    0.12    0.27
   4   6   7    0.09    0.16
   4   6   7    0.19    0.19
  -5  -6  -7    4.44    0.34
   5   6   7    4.68    0.42
   5   6   7    4.52    0.33
   5   6   7    4.30    0.40
   5   6   7    4.23    0.32
   5   6   7    4.33    0.36
   5   6   7    4.24    0.33
  -6  -6  -7    5.86    0.50
   6   6   7    5.49    0.49
   6   6   7    5.36    0.38
   6   6   7    4.97    0.41
   6   6   7    5.36    0.41
  -7  -6  -7   14.44    0.70
   7   6   7   12.48    0.66
   7   6   7   14.41    0.74
  -8  -6  -7   27.72    1.14
   8   6   7   27.85    1.16
  -9  -6  -7   24.07    1.07
   9   6   7   23.38    1.08
 -10  -6  -7    8.00    0.67
 -11  -6  -7    2.21    0.57
 -10   7   7    9.11    0.84
  -9   7   7   11.44    0.90
  -8   7   7   11.52    0.83
  -7   7   7   25.35    1.13
  -7   7   7   24.73    1.06
   6  -7  -7   35.07    1.34
  -6   7   7   35.64    1.38
  -6   7   7   35.67    1.34
   5  -7  -7   13.82    0.70
  -5   7   7   13.64    0.70
  -5   7   7   13.03    0.59
   4  -7  -7   20.29    0.84
  -4   7   7   21.12    0.74
  -4   7   7   20.95    0.90
  -4   7   7   20.67    0.86
   3  -7  -7   13.46    0.67
   3  -7  -7   14.22    0.65
  -3   7   7   14.20    0.71
  -3   7   7   13.69    0.55
  -3   7   7   14.91    0.65
  -3   7   7   14.30    0.64
  -3   7   7   14.48    0.69
   2  -7  -7    6.21    0.41
   2  -7  -7    6.17    0.43
  -2   7   7    6.68    0.44
  -2   7   7    6.31    0.47
  -2   7   7    6.38    0.45
  -2   7   7    6.93    0.36
  -2   7   7    6.25    0.43
   1  -7  -7    0.51    0.22
   1  -7  -7    0.33    0.16
  -1   7   7    1.02    0.23
  -1   7   7    0.20    0.24
  -1   7   7    0.11    0.17
  -1   7   7    0.30    0.24
  -1   7   7    0.16    0.17
   0  -7  -7    5.64    0.36
   0  -7  -7    5.94    0.37
   0   7   7    6.17    0.43
   0   7   7    5.84    0.31
   0   7   7    7.40    0.43
   0   7   7    5.87    0.37
   0   7   7    6.06    0.39
  -1  -7  -7    3.60    0.26
  -1  -7  -7    3.72    0.33
  -1  -7  -7    3.65    0.28
   1   7   7    3.55    0.32
   1   7   7    3.91    0.33
   1   7   7    4.41    0.31
   1   7   7    3.71    0.25
   1   7   7    3.27    0.28
   1   7   7    3.62    0.26
  -2  -7  -7   43.43    1.46
  -2  -7  -7   41.53    1.47
  -2  -7  -7   42.91    1.41
   2   7   7   42.77    1.47
   2   7   7   43.54    1.39
   2   7   7   42.85    1.24
   2   7   7   43.62    1.42
   2   7   7   44.36    1.42
  -3  -7  -7    7.52    0.44
   3   7   7    7.13    0.46
   3   7   7    7.99    0.36
   3   7   7    7.49    0.38
   3   7   7    7.21    0.46
   3   7   7    8.25    0.45
   3   7   7    8.15    0.38
   3   7   7    7.35    0.47
  -4  -7  -7   14.87    0.65
   4   7   7   14.51    0.67
   4   7   7   14.84    0.65
   4   7   7   15.46    0.61
   4   7   7   15.19    0.54
   4   7   7   16.00    0.70
   4   7   7   15.33    0.60
   4   7   7   15.40    0.68
  -5  -7  -7    1.63    0.25
   5   7   7    1.49    0.20
   5   7   7    1.24    0.32
   5   7   7    1.53    0.24
   5   7   7    1.15    0.25
   5   7   7    1.27    0.26
   5   7   7    1.14    0.32
  -6  -7  -7    9.85    0.55
   6   7   7    9.35    0.60
   6   7   7   10.01    0.52
   6   7   7    9.93    0.65
  -7  -7  -7   27.59    1.06
   7   7   7   27.90    1.06
   7   7   7   23.81    1.05
  -8  -7  -7   12.62    0.69
   8   7   7   11.08    0.71
  -9  -7  -7    2.62    0.39
   9   7   7    1.98    0.43
 -10  -7  -7   -0.10    0.40
  10   7   7    0.10    0.40
 -11  -7  -7    0.24    0.50
 -10   8   7   11.46    1.04
  -9   8   7   13.45    0.98
  -8   8   7    1.70    0.49
  -8   8   7    1.40    0.42
  -7   8   7    9.01    0.71
  -7   8   7   10.89    0.66
   6  -8  -7   12.74    0.68
  -6   8   7   13.55    0.75
  -6   8   7   14.32    0.75
   5  -8  -7    0.53    0.26
  -5   8   7    0.92    0.27
  -5   8   7    1.27    0.40
  -5   8   7    0.24    0.35
   4  -8  -7    2.37    0.38
   4  -8  -7    2.58    0.31
  -4   8   7    2.16    0.36
  -4   8   7    2.47    0.36
  -4   8   7    2.76    0.29
   3  -8  -7   20.72    0.91
   3  -8  -7   20.34    0.83
  -3   8   7   20.90    0.84
  -3   8   7   22.59    0.87
  -3   8   7   20.51    0.86
  -3   8   7   22.39    0.74
   2  -8  -7   27.98    1.08
   2  -8  -7   26.93    1.02
  -2   8   7   28.77    1.11
  -2   8   7   27.98    0.87
  -2   8   7   26.66    1.00
  -2   8   7   28.30    0.98
  -2   8   7   29.41    1.04
   1  -8  -7   43.22    1.57
   1  -8  -7   43.66    1.52
  -1   8   7   46.10    1.60
  -1   8   7   44.33    1.29
  -1   8   7   46.28    1.45
  -1   8   7   44.69    1.48
   0  -8  -7   21.26    0.84
   0  -8  -7   21.77    0.81
   0   8   7   21.49    0.80
   0   8   7   22.19    0.69
   0   8   7   23.11    0.80
   0   8   7   22.31    0.87
  -1  -8  -7   51.03    1.75
  -1  -8  -7   52.10    1.77
   1   8   7   53.06    1.69
   1   8   7   53.27    1.80
   1   8   7   53.19    1.67
   1   8   7   52.10    1.68
   1   8   7   52.58    1.48
  -2  -8  -7   61.72    2.03
  -2  -8  -7   55.91    2.02
   2   8   7   61.33    1.92
   2   8   7   62.55    1.72
   2   8   7   63.29    1.95
   2   8   7   62.12    2.05
  -3  -8  -7    6.66    0.41
   3   8   7    6.33    0.37
   3   8   7    6.35    0.35
   3   8   7    6.79    0.44
   3   8   7    6.44    0.46
   3   8   7    7.69    0.46
  -4  -8  -7    5.51    0.40
   4   8   7    6.10    0.39
   4   8   7    5.92    0.34
   4   8   7    6.35    0.48
   4   8   7    5.52    0.47
   4   8   7    5.47    0.44
   4   8   7    5.54    0.33
  -5  -8  -7    5.58    0.44
   5   8   7    5.06    0.45
   5   8   7    3.59    0.38
   5   8   7    4.87    0.34
   5   8   7    5.52    0.32
   5   8   7    5.41    0.42
   5   8   7    5.31    0.35
  -6  -8  -7    5.47    0.47
   6   8   7    4.32    0.36
   6   8   7    5.30    0.43
   6   8   7    3.85    0.42
  -7  -8  -7    2.33    0.30
   7   8   7    2.40    0.39
   7   8   7    2.07    0.31
  -8  -8  -7    0.30    0.29
   8   8   7    0.40    0.36
  -9  -8  -7   10.38    0.68
   9   8   7    8.55    0.66
 -10  -8  -7    5.10    0.53
  10   8   7    5.71    0.59
 -11  -8  -7    7.72    0.69
  11   8   7    6.62    0.67
 -10   9   7    0.97    0.71
  -9   9   7    0.01    0.58
  -8   9   7   -0.04    0.39
  -8   9   7    0.08    0.51
  -7   9   7   16.72    0.84
  -7   9   7   18.92    0.97
  -6   9   7   25.23    1.03
  -6   9   7   23.63    1.06
   5  -9  -7   10.57    0.57
  -5   9   7   11.04    0.53
  -5   9   7    9.70    0.58
  -5   9   7    7.91    0.61
   4  -9  -7   30.60    1.15
  -4   9   7   30.96    1.13
  -4   9   7   31.28    0.98
  -4   9   7   27.68    1.13
   3  -9  -7    8.79    0.51
   3  -9  -7    8.65    0.59
  -3   9   7    9.42    0.56
  -3   9   7    9.77    0.47
  -3   9   7    8.68    0.56
  -3   9   7    9.77    0.55
   2  -9  -7   37.59    1.42
   2  -9  -7   36.99    1.35
  -2   9   7   38.74    1.29
  -2   9   7   38.92    1.15
  -2   9   7   37.20    1.44
  -2   9   7   38.11    1.32
  -2   9   7   42.06    1.33
   1  -9  -7   18.59    0.81
   1  -9  -7   19.76    0.76
  -1   9   7   19.84    0.75
  -1   9   7   19.44    0.76
  -1   9   7   19.33    0.65
  -1   9   7   19.63    0.76
  -1   9   7   19.97    0.85
   0  -9  -7    1.07    0.25
   0  -9  -7    1.18    0.19
   0   9   7    1.10    0.19
   0   9   7    1.10    0.24
   0   9   7    1.59    0.28
   0   9   7    0.83    0.20
   0   9   7    0.81    0.23
  -1  -9  -7    6.91    0.40
  -1  -9  -7    6.70    0.40
  -1  -9  -7    7.05    0.42
   1   9   7    6.69    0.39
   1   9   7    6.81    0.39
   1   9   7    7.23    0.44
   1   9   7    7.03    0.46
   1   9   7    6.87    0.34
  -2  -9  -7   18.58    0.71
  -2  -9  -7   18.42    0.72
  -2  -9  -7   17.75    0.71
   2   9   7   18.70    0.72
   2   9   7   19.34    0.75
   2   9   7   18.49    0.61
   2   9   7   17.89    0.69
   2   9   7   18.61    0.69
  -3  -9  -7    0.01    0.17
  -3  -9  -7   -0.21    0.17
  -3  -9  -7   -0.04    0.21
   3   9   7    0.11    0.22
   3   9   7    0.00    0.18
   3   9   7   -0.01    0.19
   3   9   7    0.06    0.22
   3   9   7    0.23    0.20
   3   9   7    0.10    0.20
  -4  -9  -7    9.41    0.53
   4   9   7   10.19    0.56
   4   9   7    9.87    0.45
   4   9   7   10.28    0.57
   4   9   7   10.62    0.43
   4   9   7   10.32    0.57
   4   9   7    9.83    0.50
   4   9   7    9.53    0.51
  -5  -9  -7    3.95    0.30
   5   9   7    3.96    0.34
   5   9   7    3.61    0.36
   5   9   7    3.78    0.37
   5   9   7    3.12    0.30
   5   9   7    3.08    0.30
  -6  -9  -7   16.84    0.74
   6   9   7   16.52    0.76
   6   9   7   15.99    0.75
   6   9   7   15.70    0.72
   6   9   7   15.35    0.74
  -7  -9  -7   -0.02    0.24
   7   9   7   -0.07    0.26
   7   9   7    0.09    0.31
  -8  -9  -7    0.57    0.27
   8   9   7    0.68    0.35
  -9  -9  -7    6.01    0.58
   9   9   7    7.41    0.62
 -10  -9  -7    9.14    0.72
  10   9   7    8.63    0.68
 -11  -9  -7    8.91    0.82
  11   9   7    6.69    0.68
  -9  10   7    2.83    0.54
  -9  10   7    2.36    0.69
  -8  10   7    8.85    0.69
  -8  10   7    9.07    0.76
  -7  10   7   23.09    1.07
  -7  10   7   22.51    1.01
  -6  10   7   28.62    1.15
  -6  10   7   25.33    1.08
   5 -10  -7   27.24    1.07
  -5  10   7   25.50    1.09
  -5  10   7   27.14    0.91
  -5  10   7   26.22    1.05
   4 -10  -7   27.43    1.09
  -4  10   7   25.90    1.06
  -4  10   7   27.35    0.93
  -4  10   7   28.79    1.09
  -4  10   7   31.05    1.15
   3 -10  -7   11.63    0.60
   3 -10  -7   11.36    0.67
  -3  10   7   10.94    0.50
  -3  10   7   11.34    0.61
  -3  10   7   11.55    0.60
  -3  10   7   11.29    0.60
   2 -10  -7    5.74    0.50
   2 -10  -7    5.29    0.41
  -2  10   7    5.71    0.37
  -2  10   7    5.67    0.42
  -2  10   7    6.01    0.44
  -2  10   7    5.33    0.46
   1 -10  -7   -0.20    0.27
   1 -10  -7    0.15    0.18
  -1  10   7    0.00    0.23
  -1  10   7    0.07    0.19
  -1  10   7    0.02    0.28
  -1  10   7    0.19    0.20
  -1  10   7    0.02    0.23
   0 -10  -7    1.84    0.29
   0 -10  -7    2.10    0.22
   0  10   7    2.10    0.25
   0  10   7    2.19    0.32
   0  10   7    2.20    0.21
   0  10   7    2.09    0.23
  -1 -10  -7    4.60    0.33
  -1 -10  -7    4.40    0.40
  -1 -10  -7    4.73    0.38
   1  10   7    4.97    0.31
   1  10   7    4.52    0.30
   1  10   7    5.75    0.42
   1  10   7    4.99    0.34
  -2 -10  -7   18.30    0.73
  -2 -10  -7   19.37    0.77
  -2 -10  -7   18.84    0.73
   2  10   7   20.56    0.77
   2  10   7   19.11    0.63
   2  10   7   19.05    0.69
   2  10   7   18.12    0.74
  -3 -10  -7   38.40    1.30
  -3 -10  -7   36.87    1.27
  -3 -10  -7   35.81    1.29
   3  10   7   36.44    1.25
   3  10   7   36.94    1.22
   3  10   7   36.18    1.10
   3  10   7   37.92    1.25
   3  10   7   38.94    1.30
  -4 -10  -7   16.71    0.70
  -4 -10  -7   16.76    0.71
   4  10   7   17.04    0.68
   4  10   7   17.21    0.60
   4  10   7   18.56    0.74
   4  10   7   17.38    0.68
   4  10   7   17.00    0.72
  -5 -10  -7   30.05    1.11
   5  10   7   29.83    1.07
   5  10   7   30.30    1.12
   5  10   7   31.25    1.09
   5  10   7   29.73    1.06
   5  10   7   28.71    1.08
  -6 -10  -7    0.62    0.22
   6  10   7    1.10    0.30
   6  10   7    0.33    0.30
   6  10   7    0.98    0.25
  -7 -10  -7    1.13    0.27
   7  10   7    0.56    0.28
   7  10   7    0.83    0.32
  -8 -10  -7   12.28    0.67
   8  10   7   13.66    0.74
   8  10   7   12.76    0.70
  -9 -10  -7    0.88    0.31
   9  10   7    0.32    0.37
  10  10   7    2.17    0.45
  11  10   7    1.27    0.53
  -9  11   7    2.34    0.56
  -9  11   7    2.80    0.71
  -8  11   7    0.54    0.57
  -8  11   7    1.09    0.48
  -7  11   7    0.06    0.46
  -7  11   7    0.12    0.39
  -6  11   7    2.04    0.39
  -6  11   7    1.95    0.40
  -5  11   7    2.92    0.39
  -5  11   7    2.97    0.40
  -5  11   7    2.77    0.31
   4 -11  -7    0.45    0.26
  -4  11   7    0.47    0.29
  -4  11   7    0.62    0.24
  -4  11   7    0.21    0.31
  -4  11   7    0.99    0.34
   3 -11  -7    4.96    0.42
  -3  11   7    4.75    0.38
  -3  11   7    4.69    0.43
  -3  11   7    4.47    0.37
  -3  11   7    4.39    0.34
  -3  11   7    4.35    0.40
   2 -11  -7   11.57    0.54
   2 -11  -7   10.73    0.64
  -2  11   7   10.02    0.47
  -2  11   7   10.91    0.59
  -2  11   7   10.98    0.53
  -2  11   7   11.01    0.54
   1 -11  -7   18.89    0.72
   1 -11  -7   18.40    0.82
  -1  11   7   18.24    0.62
  -1  11   7   16.75    0.67
  -1  11   7   17.87    0.73
  -1  11   7   18.35    0.68
  -1  11   7   18.21    0.84
   0 -11  -7   15.18    0.70
   0 -11  -7   14.14    0.59
   0  11   7   14.66    0.54
   0  11   7   15.56    0.72
   0  11   7   14.96    0.53
   0  11   7   14.57    0.64
  -1 -11  -7    4.10    0.31
  -1 -11  -7    4.69    0.39
  -1 -11  -7    4.38    0.39
   1  11   7    4.41    0.37
   1  11   7    3.86    0.28
   1  11   7    4.14    0.22
   1  11   7    3.93    0.29
  -2 -11  -7   27.00    1.05
  -2 -11  -7   28.13    1.01
   2  11   7   27.28    0.85
   2  11   7   28.12    1.05
   2  11   7   28.16    0.98
  -3 -11  -7    9.25    0.51
   3  11   7    8.53    0.37
   3  11   7    8.11    0.39
   3  11   7    8.16    0.50
   3  11   7    8.75    0.53
   3  11   7    8.74    0.37
  -4 -11  -7    9.23    0.52
   4  11   7    8.67    0.42
   4  11   7    9.95    0.55
   4  11   7    9.07    0.42
   4  11   7    8.78    0.40
   4  11   7    8.38    0.53
   5  11   7    3.95    0.31
   5  11   7    4.26    0.32
   5  11   7    4.32    0.35
   5  11   7    3.97    0.31
   5  11   7    3.82    0.27
   6  11   7    2.36    0.32
   6  11   7    2.37    0.31
   6  11   7    2.46    0.28
   7  11   7    3.00    0.37
   7  11   7    2.60    0.32
   7  11   7    2.56    0.35
   8  11   7    1.13    0.34
   8  11   7    0.92    0.31
   9  11   7    1.27    0.39
  10  11   7    0.40    0.41
  11  11   7    0.15    0.50
  -8  12   7    0.54    0.47
  -8  12   7    0.22    0.58
  -7  12   7   -0.14    0.42
  -7  12   7    0.86    0.49
  -6  12   7    4.91    0.50
  -6  12   7    4.42    0.47
  -5  12   7   21.31    0.90
  -4  12   7   75.35    2.54
  -4  12   7   79.01    2.68
  -4  12   7   81.37    2.27
  -4  12   7   81.17    2.54
   3 -12  -7   30.19    1.11
  -3  12   7   27.89    1.13
  -3  12   7   29.96    1.06
  -3  12   7   29.75    1.08
  -3  12   7   31.14    1.05
  -3  12   7   29.26    0.95
  -2  12   7    0.24    0.20
  -2  12   7    0.13    0.20
  -2  12   7    0.13    0.20
  -2  12   7   -0.07    0.21
   1 -12  -7   24.23    1.01
  -1  12   7   24.50    0.80
  -1  12   7   24.85    0.90
  -1  12   7   24.18    0.78
   0 -12  -7   23.27    0.96
   0 -12  -7   22.63    0.94
   0  12   7   22.75    0.85
   0  12   7   23.48    0.99
   0  12   7   23.09    0.74
  -1 -12  -7   22.04    0.87
  -1 -12  -7   21.54    0.90
   1  12   7   23.15    0.93
   1  12   7   21.61    0.69
   1  12   7   21.30    0.82
  -2 -12  -7   19.74    0.84
   2  12   7   18.61    0.76
   2  12   7   19.51    0.63
  -3 -12  -7    1.88    0.34
   3  12   7    1.68    0.22
   3  12   7    1.62    0.21
   3  12   7    2.05    0.24
  -4 -12  -7    0.41    0.29
   4  12   7    0.50    0.21
   4  12   7    0.28    0.20
   4  12   7    0.31    0.17
   5  12   7    3.52    0.29
   5  12   7    3.55    0.30
   5  12   7    3.86    0.29
   5  12   7    3.71    0.27
   6  12   7    4.08    0.35
   6  12   7    3.68    0.33
   6  12   7    3.96    0.33
   6  12   7    3.48    0.31
   7  12   7    6.83    0.58
   7  12   7    6.42    0.45
   7  12   7    5.94    0.42
   8  12   7   10.24    0.71
   8  12   7    9.35    0.53
   8  12   7    9.01    0.59
   9  12   7    4.04    0.43
  10  12   7    0.23    0.41
  -7  13   7    4.02    0.54
  -6  13   7    4.06    0.47
  -5  13   7    3.44    0.41
  -4  13   7   17.19    0.75
  -4  13   7   17.87    0.72
  -4  13   7   18.32    0.69
  -3  13   7    7.77    0.43
  -3  13   7    8.27    0.41
  -3  13   7    6.96    0.41
  -2  13   7    6.21    0.37
  -2  13   7    5.86    0.47
   1 -13  -7   -0.30    0.29
  -1  13   7    0.07    0.18
  -1  13   7    0.03    0.21
   0 -13  -7    8.55    0.58
   0 -13  -7    8.63    0.54
   0  13   7    8.52    0.48
   0  13   7    8.00    0.38
  -1 -13  -7    0.39    0.32
   1  13   7    0.39    0.20
   1  13   7    0.01    0.16
  -2 -13  -7    1.00    0.30
   2  13   7    0.37    0.20
   2  13   7    0.05    0.16
  -3 -13  -7    4.46    0.42
   3  13   7    4.71    0.40
   3  13   7    4.70    0.30
   3  13   7    3.85    0.30
  -4 -13  -7   14.99    0.70
   4  13   7   15.33    0.66
   4  13   7   13.88    0.52
   4  13   7   14.65    0.63
   5  13   7   10.23    0.56
   5  13   7   10.31    0.43
   5  13   7   11.15    0.59
   6  13   7   15.57    0.71
   6  13   7   14.19    0.70
   7  13   7    5.49    0.42
   7  13   7    5.82    0.33
   8  13   7    7.88    0.47
   8  13   7    8.40    0.71
   8  13   7    7.62    0.44
   9  13   7    0.95    0.32
   9  13   7    0.51    0.27
  10  13   7    0.44    0.38
  -7  14   7    1.17    0.52
  -6  14   7   -0.27    0.39
  -5  14   7    0.27    0.26
  -5  14   7    0.08    0.31
  -4  14   7   -0.10    0.25
  -4  14   7    0.06    0.21
  -4  14   7   -0.03    0.23
  -3  14   7    8.14    0.46
  -2  14   7    3.05    0.30
  -2  14   7    2.82    0.27
  -1  14   7   11.45    0.47
  -1  14   7   11.16    0.57
   0  14   7   19.99    0.75
   0  14   7   19.26    0.65
   1  14   7   13.28    0.59
   1  14   7   13.21    0.48
  -2 -14  -7   17.62    0.82
   2  14   7   17.25    0.69
   2  14   7   16.73    0.58
  -3 -14  -7    7.49    0.52
   3  14   7    7.21    0.37
   3  14   7    7.65    0.47
   3  14   7    7.82    0.49
   4  14   7    7.54    0.49
   4  14   7    7.09    0.36
   4  14   7    6.81    0.48
   5  14   7    9.42    0.56
   5  14   7    8.67    0.41
   5  14   7    9.57    0.56
   6  14   7    0.93    0.28
   6  14   7    0.95    0.27
   7  14   7   -0.14    0.30
   8  14   7   -0.09    0.36
   9  14   7    0.36    0.41
   9  14   7    0.33    0.21
  -6  15   7    0.11    0.32
  -6  15   7    0.18    0.26
  -5  15   7    1.48    0.29
  -4  15   7    8.31    0.52
  -3  15   7   10.77    0.54
  -2  15   7   13.27    0.65
  -2  15   7   12.31    0.54
  -1  15   7   10.20    0.46
  -1  15   7   10.13    0.55
   0  15   7    2.72    0.25
   0  15   7    2.97    0.27
   1  15   7    0.30    0.21
   1  15   7    0.33    0.19
   2  15   7    0.39    0.19
   2  15   7    0.43    0.21
   3  15   7    1.47    0.25
   3  15   7    2.16    0.25
   3  15   7    1.40    0.22
   4  15   7    2.37    0.23
   4  15   7    2.22    0.27
   4  15   7    2.48    0.27
   5  15   7    0.09    0.24
   5  15   7   -0.06    0.25
   6  15   7   13.55    0.70
   6  15   7   13.65    0.72
   7  15   7    2.39    0.37
   8  15   7    4.14    0.47
   9  15   7    6.25    0.56
  -4  16   7    6.61    0.45
  -3  16   7    2.23    0.33
  -2  16   7    0.46    0.26
  -2  16   7   -0.02    0.26
  -1  16   7    0.32    0.24
  -1  16   7    0.59    0.26
   0  16   7    1.28    0.25
   0  16   7    1.46    0.24
   1  16   7    0.32    0.21
   1  16   7    0.53    0.22
   2  16   7    2.29    0.24
   2  16   7    2.67    0.27
   3  16   7    5.24    0.43
   3  16   7    5.16    0.35
   3  16   7    5.69    0.36
   4  16   7    1.82    0.29
   4  16   7    1.67    0.23
   4  16   7    1.92    0.28
   5  16   7    3.49    0.33
   5  16   7    2.98    0.32
   6  16   7    7.11    0.61
   6  16   7    6.66    0.60
   7  16   7    5.18    0.45
   8  16   7    7.00    0.55
  -4  17   7    1.63    0.37
  -3  17   7    0.22    0.31
  -2  17   7    2.66    0.35
  -2  17   7    2.58    0.32
  -1  17   7    2.35    0.32
  -1  17   7    1.87    0.29
   0  17   7   12.73    0.55
   0  17   7   14.52    0.66
   1  17   7   10.20    0.56
   1  17   7    9.52    0.46
   2  17   7    0.73    0.23
   2  17   7    1.06    0.26
   2  17   7    1.14    0.26
   3  17   7    0.96    0.25
   3  17   7    0.71    0.27
   3  17   7    1.08    0.24
   4  17   7    1.15    0.26
   4  17   7    1.37    0.23
   4  17   7    1.75    0.31
   5  17   7    3.70    0.35
   5  17   7    4.24    0.38
   6  17   7    0.27    0.32
   6  17   7    0.58    0.34
   7  17   7    0.87    0.37
  -2  18   7    4.88    0.40
  -2  18   7    5.74    0.45
  -1  18   7   10.25    0.65
  -1  18   7    9.47    0.52
   0  18   7    5.12    0.38
   0  18   7    5.65    0.42
   1  18   7    2.66    0.30
   1  18   7    2.00    0.27
   2  18   7    6.85    0.42
   2  18   7    7.93    0.53
   3  18   7    0.22    0.23
   3  18   7    0.16    0.27
   3  18   7    0.01    0.24
   4  18   7    1.23    0.25
   4  18   7    0.93    0.27
   4  18   7    1.44    0.32
   5  18   7   -0.36    0.32
   5  18   7   -0.25    0.29
   4  13  -8    4.79    0.46
   4  13  -8    4.53    0.37
   3  13  -8    2.75    0.41
   3  13  -8    3.51    0.33
   2  13  -8    2.16    0.30
   2  13  -8    2.79    0.40
   1  13  -8    5.54    0.48
   1  13  -8    5.81    0.43
   0  13  -8    5.39    0.50
  -1  13  -8   13.36    0.85
   6  12  -8    1.56    0.46
   5  12  -8    4.48    0.48
   4  12  -8    6.29    0.45
   4  12  -8    5.02    0.46
   3  12  -8    5.25    0.41
   3  12  -8    5.18    0.44
   2  12  -8    5.99    0.40
   2  12  -8    5.62    0.45
   1  12  -8    4.09    0.43
   1  12  -8    4.06    0.31
   0  12  -8   -0.28    0.24
   0  12  -8    0.08    0.38
  -1  12  -8    1.48    0.42
  -2  12  -8    0.11    0.43
  -3  12  -8    1.56    0.50
   7  11  -8    3.49    0.50
   6  11  -8    0.70    0.42
   5  11  -8    1.19    0.40
   4  11  -8    0.94    0.25
   4  11  -8    0.55    0.36
   3  11  -8    0.32    0.22
   3  11  -8    0.05    0.33
   2  11  -8    1.07    0.23
   2  11  -8    1.13    0.35
   1  11  -8    4.76    0.41
   1  11  -8    4.21    0.30
   0  11  -8    2.38    0.26
   0  11  -8    2.57    0.39
  -1  11  -8    2.83    0.42
  -2  11  -8    6.05    0.51
  -3  11  -8   11.79    0.85
  -4  11  -8    9.92    0.69
  -5  11  -8   13.30    1.01
   8  10  -8   -0.40    0.46
   7  10  -8    0.49    0.43
   6  10  -8    0.54    0.38
   5  10  -8    0.32    0.35
   4  10  -8    0.14    0.33
   4  10  -8   -0.01    0.22
   3  10  -8    9.53    0.62
   3  10  -8    8.74    0.44
   2  10  -8   12.44    0.66
   2  10  -8   12.12    0.50
   1  10  -8   21.91    0.74
   1  10  -8   22.60    0.91
   0  10  -8    8.56    0.62
   0  10  -8    7.92    0.41
  -1  10  -8    9.23    0.44
  -1  10  -8    9.72    0.67
  -2  10  -8    8.92    0.71
  -3  10  -8    0.97    0.41
  -4  10  -8    1.83    0.47
  -5  10  -8    0.60    0.30
  -5  10  -8    0.49    0.29
  -5  10  -8    1.70    0.49
  -6  10  -8    1.91    0.38
   9   9  -8    1.45    0.29
   9   9  -8    1.32    0.33
   8   9  -8    0.62    0.45
   8   9  -8    0.60    0.23
   7   9  -8    2.97    0.45
   6   9  -8    2.30    0.39
   5   9  -8    0.49    0.33
   4   9  -8    5.40    0.39
   4   9  -8    4.65    0.39
   3   9  -8    3.91    0.29
   3   9  -8    4.09    0.36
   2   9  -8    3.66    0.34
   2   9  -8    3.37    0.27
   1   9  -8    2.75    0.25
   1   9  -8    3.51    0.33
   0   9  -8    0.70    0.29
   0   9  -8    0.65    0.21
  -1   9  -8    3.59    0.37
  -1   9  -8    4.32    0.33
  -2   9  -8    0.63    0.33
  -3   9  -8    1.29    0.24
  -3   9  -8    1.42    0.38
  -3   9  -8    1.25    0.25
  -4   9  -8    1.52    0.31
  -4   9  -8    1.39    0.42
  -4   9  -8    1.55    0.30
  -5   9  -8    7.83    0.55
  -5   9  -8    7.61    0.59
  -6   9  -8    4.71    0.54
  -7   9  -8    6.40    0.65
   9   8  -8    6.98    0.58
   8   8  -8    1.96    0.32
   8   8  -8    1.16    0.43
   8   8  -8    1.43    0.36
   7   8  -8    7.25    0.45
   7   8  -8    8.32    0.67
   7   8  -8    7.45    0.49
   6   8  -8    5.43    0.44
   6   8  -8    6.31    0.40
   6   8  -8    5.84    0.37
   5   8  -8    0.93    0.31
   4   8  -8    3.29    0.29
   4   8  -8    3.13    0.33
   3   8  -8   -0.16    0.25
   3   8  -8    0.06    0.20
   2   8  -8    4.20    0.33
   2   8  -8    3.92    0.32
   1   8  -8    1.20    0.21
   1   8  -8    0.63    0.26
  -1  -8   8    1.04    0.32
   0   8  -8   18.10    0.77
   0   8  -8   18.38    0.64
  -1   8  -8   17.85    0.79
  -1   8  -8   19.18    0.65
  -2   8  -8   10.57    0.49
  -2   8  -8   11.06    0.60
  -2   8  -8   11.09    0.50
  -2   8  -8   10.90    0.47
  -2   8  -8   10.35    0.66
  -3   8  -8    8.76    0.64
  -3   8  -8    8.01    0.49
  -3   8  -8    9.41    0.50
  -4   8  -8   12.93    0.76
  -4   8  -8   11.85    0.62
  -4   8  -8   11.87    0.62
  -4   8  -8   13.07    0.69
  -5   8  -8    8.63    0.60
  -5   8  -8   10.91    0.78
  -5   8  -8   11.08    0.73
  -6   8  -8    6.22    0.59
  -6   8  -8    6.70    0.59
  -7   8  -8    6.77    0.67
  -7   8  -8    4.43    0.60
  10   7  -8    7.68    0.69
   9   7  -8    2.35    0.43
   8   7  -8    1.70    0.37
   7   7  -8   -0.33    0.32
   7   7  -8    0.27    0.34
   7   7  -8    0.23    0.29
   6   7  -8    0.72    0.27
   6   7  -8    0.72    0.32
   6   7  -8    1.26    0.32
   5   7  -8    0.25    0.22
   5   7  -8    0.50    0.24
   5   7  -8    0.30    0.27
   5   7  -8    0.66    0.28
   4   7  -8    4.07    0.34
   4   7  -8    3.64    0.31
   4   7  -8    3.75    0.33
   4   7  -8    3.63    0.30
   3   7  -8    3.56    0.29
   3   7  -8    3.78    0.28
   3   7  -8    3.45    0.32
  -3  -7   8    3.54    0.36
   2   7  -8    2.37    0.20
   2   7  -8    2.51    0.30
   2   7  -8    2.75    0.25
  -2  -7   8    2.80    0.40
   1   7  -8    7.81    0.39
   1   7  -8    7.81    0.49
   1   7  -8    7.66    0.36
   1   7  -8    8.27    0.53
  -1  -7   8    8.17    0.54
   0   7  -8   -0.08    0.20
   0   7  -8   -0.12    0.19
   0   7  -8    0.26    0.26
   0   7  -8    0.00    0.19
   0   7  -8    0.32    0.22
   0  -7   8    0.53    0.31
   0  -7   8   -0.35    0.28
  -1   7  -8   21.91    0.79
  -1   7  -8   21.46    0.80
  -1   7  -8   22.61    0.88
  -1   7  -8   22.72    0.90
  -1   7  -8   22.46    0.73
   1  -7   8   21.05    0.92
  -2   7  -8   13.48    0.68
  -2   7  -8   14.00    0.66
  -2   7  -8   13.43    0.60
  -2   7  -8   13.05    0.60
  -2   7  -8   13.36    0.53
  -2   7  -8   14.31    0.70
   2  -7   8   13.50    0.69
  -3   7  -8   12.74    0.61
  -3   7  -8   12.99    0.71
  -3   7  -8   12.77    0.69
  -3   7  -8   12.38    0.64
  -4   7  -8    2.02    0.38
  -4   7  -8    2.30    0.36
  -4   7  -8    2.00    0.34
  -4   7  -8    2.57    0.38
  -5   7  -8    0.52    0.35
  -5   7  -8    0.52    0.34
  -5   7  -8    0.66    0.34
  -6   7  -8    0.23    0.34
  -6   7  -8    0.32    0.41
  -7   7  -8    0.45    0.50
  -7   7  -8    0.46    0.44
  -8   7  -8    0.72    0.63
  -8   7  -8   -0.13    0.52
  10   6  -8    1.37    0.50
   9   6  -8    1.80    0.43
   8   6  -8   12.96    0.73
   8   6  -8   11.46    0.66
  -8  -6   8   11.71    0.73
   7   6  -8   12.28    0.69
   7   6  -8   15.26    0.74
   7   6  -8   14.03    0.70
   6   6  -8    4.33    0.43
   6   6  -8    4.76    0.39
   6   6  -8    4.89    0.44
   6   6  -8    4.30    0.38
   5   6  -8    8.62    0.51
   5   6  -8    8.40    0.55
   5   6  -8    8.41    0.53
   5   6  -8   10.54    0.49
   5   6  -8    9.55    0.53
   4   6  -8   11.49    0.61
   4   6  -8   12.16    0.61
   4   6  -8   11.59    0.55
   4   6  -8   12.64    0.59
   4   6  -8   12.09    0.53
  -4  -6   8   12.19    0.61
   3   6  -8    5.35    0.42
   3   6  -8    6.27    0.40
   3   6  -8    6.22    0.40
   3   6  -8    6.21    0.50
   3   6  -8    6.75    0.48
  -3  -6   8    6.02    0.50
  -3  -6   8    6.52    0.48
   2   6  -8   42.50    1.48
   2   6  -8   42.41    1.39
   2   6  -8   44.13    1.26
   2   6  -8   40.91    1.38
   2   6  -8   42.78    1.42
  -2  -6   8   40.75    1.52
  -2  -6   8   43.67    1.54
   1   6  -8    9.11    0.47
   1   6  -8    9.27    0.43
   1   6  -8    9.85    0.56
   1   6  -8    9.08    0.46
   1   6  -8   10.28    0.54
  -1  -6   8    9.00    0.55
   0   6  -8    1.37    0.26
   0   6  -8    1.37    0.22
   0   6  -8    1.17    0.28
   0   6  -8    1.11    0.25
   0   6  -8    1.26    0.26
   0  -6   8    1.20    0.32
  -1   6  -8    1.21    0.28
  -1   6  -8    1.54    0.30
  -1   6  -8    1.31    0.26
  -1   6  -8    1.44    0.29
  -1   6  -8    1.32    0.23
   1  -6   8    1.51    0.34
   1  -6   8    1.38    0.36
  -2   6  -8    0.52    0.22
  -2   6  -8    0.43    0.27
  -2   6  -8    0.09    0.24
  -2   6  -8    0.24    0.27
  -2   6  -8    0.40    0.29
  -2   6  -8   -0.17    0.29
   2  -6   8    0.55    0.32
  -3   6  -8    9.56    0.54
  -3   6  -8    9.65    0.57
  -3   6  -8    8.59    0.61
  -3   6  -8    9.34    0.59
  -4   6  -8   15.13    0.74
  -4   6  -8   14.52    0.71
  -4   6  -8   14.60    0.77
  -5   6  -8   10.64    0.74
  -5   6  -8   12.68    0.70
  -5   6  -8   11.39    0.64
  -6   6  -8    8.78    0.71
  -6   6  -8    7.32    0.58
  -7   6  -8    2.86    0.49
  -7   6  -8    3.26    0.55
  -8   6  -8    8.03    0.76
  -8   6  -8    6.98    0.65
  -9   6  -8    7.26    0.83
  -9   6  -8    7.93    0.75
 -11  -5   8    3.86    0.64
  10   5  -8    6.83    0.64
   9   5  -8   10.82    0.73
  -9  -5   8   11.88    0.78
   8   5  -8   16.62    0.84
   8   5  -8   17.26    0.84
   7   5  -8   15.54    0.75
   7   5  -8   14.32    0.74
   7   5  -8   14.68    0.76
   6   5  -8    1.26    0.32
   6   5  -8    1.52    0.34
   6   5  -8    1.42    0.30
   5   5  -8    2.03    0.32
   5   5  -8    2.44    0.28
   5   5  -8    2.28    0.33
   5   5  -8    1.85    0.36
   5   5  -8    2.04    0.30
   4   5  -8    0.37    0.25
   4   5  -8    0.59    0.28
   4   5  -8    0.83    0.31
   4   5  -8    0.47    0.24
   4   5  -8    0.43    0.27
  -4  -5   8    0.65    0.29
   3   5  -8    3.53    0.33
   3   5  -8    3.19    0.31
   3   5  -8    3.65    0.35
   3   5  -8    2.82    0.27
   3   5  -8    3.29    0.30
  -3  -5   8    3.19    0.38
  -3  -5   8    3.52    0.35
   2   5  -8    0.93    0.23
   2   5  -8    1.16    0.28
   2   5  -8    0.80    0.21
   2   5  -8    1.39    0.27
   2   5  -8    0.80    0.25
  -2  -5   8    1.09    0.31
  -2  -5   8    0.99    0.29
   1   5  -8   15.69    0.56
   1   5  -8   14.52    0.64
   1   5  -8   15.46    0.68
   1   5  -8   16.43    0.69
   1   5  -8   14.78    0.65
  -1  -5   8   15.78    0.71
   0   5  -8    1.65    0.29
   0   5  -8    1.98    0.23
   0   5  -8    2.07    0.26
   0   5  -8    1.92    0.30
   0   5  -8    1.80    0.28
   0  -5   8    1.81    0.32
  -1   5  -8    4.58    0.34
  -1   5  -8    3.96    0.33
  -1   5  -8    4.11    0.37
  -1   5  -8    4.27    0.36
  -1   5  -8    3.70    0.35
   1  -5   8    4.08    0.40
  -2   5  -8    2.70    0.34
  -2   5  -8    3.03    0.32
  -2   5  -8    3.28    0.35
  -2   5  -8    2.49    0.29
  -2   5  -8    3.04    0.36
  -2   5  -8    3.34    0.27
   2  -5   8    2.05    0.40
   2  -5   8    2.95    0.38
  -3   5  -8   28.89    1.13
  -3   5  -8   28.71    1.09
  -3   5  -8   28.59    0.93
  -3   5  -8   29.83    1.12
  -3   5  -8   29.81    1.12
  -4   5  -8   18.18    0.82
  -4   5  -8   18.04    0.84
  -4   5  -8   16.48    0.77
  -5   5  -8   15.80    0.80
  -5   5  -8   16.79    0.78
  -5   5  -8   15.34    0.75
  -6   5  -8    7.81    0.64
  -6   5  -8    8.69    0.61
  -7   5  -8    7.81    0.62
  -7   5  -8    7.40    0.70
  -8   5  -8    2.46    0.48
  -8   5  -8    3.31    0.62
  -9   5  -8    0.43    0.49
  -9   5  -8    0.27    0.63
  11   4  -8    2.82    0.59
 -11  -4   8    2.76    0.64
  10   4  -8    6.65    0.63
 -10  -4   8    6.34    0.66
   9   4  -8    7.13    0.62
  -9  -4   8    6.10    0.59
   8   4  -8    4.35    0.43
   8   4  -8    4.11    0.48
  -8  -4   8    3.14    0.50
   7   4  -8    0.98    0.32
   7   4  -8    1.64    0.38
   7   4  -8    1.21    0.33
   6   4  -8    0.29    0.33
   6   4  -8    0.21    0.28
   6   4  -8    0.26    0.29
   5   4  -8    4.10    0.42
   5   4  -8    3.90    0.42
   5   4  -8    3.82    0.36
   5   4  -8    3.98    0.32
   5   4  -8    4.04    0.37
  -5  -4   8    4.16    0.38
   4   4  -8   29.06    1.07
   4   4  -8   27.95    1.03
   4   4  -8   27.45    0.92
   4   4  -8   27.75    1.05
   4   4  -8   29.43    1.07
  -4  -4   8   27.36    1.08
   3   4  -8   25.64    0.95
   3   4  -8   25.61    0.95
   3   4  -8   25.59    0.97
   3   4  -8   25.27    0.83
   3   4  -8   25.09    0.95
  -3  -4   8   24.67    0.99
   2   4  -8    5.26    0.42
   2   4  -8    5.92    0.43
   2   4  -8    4.86    0.42
   2   4  -8    5.15    0.46
   2   4  -8    5.27    0.35
   2   4  -8    5.28    0.43
  -2  -4   8    4.96    0.43
  -2  -4   8    5.71    0.45
   1   4  -8    5.47    0.42
   1   4  -8    5.11    0.35
   1   4  -8    6.12    0.43
   1   4  -8    4.83    0.44
   1   4  -8    5.66    0.35
  -1  -4   8    5.66    0.43
  -1  -4   8    6.22    0.45
   0   4  -8   49.36    1.70
   0   4  -8   49.81    1.63
   0   4  -8   49.18    1.62
   0   4  -8   49.80    1.63
   0   4  -8   51.08    1.44
   0  -4   8   47.71    1.69
  -1   4  -8   23.34    0.94
  -1   4  -8   25.37    0.91
  -1   4  -8   24.97    0.92
  -1   4  -8   22.71    0.92
  -1   4  -8   24.10    0.78
   1  -4   8   24.44    0.93
  -2   4  -8   19.00    0.83
  -2   4  -8   19.49    0.67
  -2   4  -8   18.20    0.79
  -2   4  -8   20.20    0.81
  -2   4  -8   19.11    0.81
  -2   4  -8   18.58    0.78
   2  -4   8   18.78    0.78
  -3   4  -8    4.15    0.40
  -3   4  -8    3.71    0.29
  -3   4  -8    4.22    0.41
  -3   4  -8    4.08    0.37
  -3   4  -8    4.42    0.39
  -4   4  -8    2.02    0.34
  -4   4  -8    1.88    0.35
  -4   4  -8    2.01    0.36
  -5   4  -8    9.87    0.69
  -5   4  -8   10.19    0.61
  -5   4  -8    9.02    0.57
  -6   4  -8    3.74    0.43
  -6   4  -8    3.18    0.42
  -7   4  -8    1.87    0.45
  -7   4  -8    1.75    0.41
  -8   4  -8    7.27    0.65
  -8   4  -8    6.16    0.67
  -9   4  -8    0.85    0.64
 -10   4  -8    1.51    0.71
 -11  -3   8   -0.17    0.60
  10   3  -8    3.21    0.53
 -10  -3   8    2.33    0.59
   9   3  -8    1.56    0.45
   9   3  -8    1.17    0.45
  -9  -3   8    2.51    0.48
   8   3  -8    3.71    0.43
   8   3  -8    3.23    0.48
  -8  -3   8    3.14    0.50
   7   3  -8   14.64    0.72
   7   3  -8   14.49    0.76
   6   3  -8    2.61    0.41
   6   3  -8    3.30    0.32
   6   3  -8    3.16    0.36
   6   3  -8    2.66    0.34
  -6  -3   8    2.83    0.38
   5   3  -8   29.06    0.94
   5   3  -8   28.32    1.06
   5   3  -8   29.20    1.09
   5   3  -8   25.37    1.05
  -5  -3   8   29.26    1.09
   4   3  -8   35.70    1.33
   4   3  -8   38.71    1.37
   4   3  -8   37.70    1.16
   4   3  -8   39.48    1.30
  -4  -3   8   37.15    1.36
   3   3  -8    0.40    0.24
   3   3  -8    0.74    0.30
   3   3  -8    0.71    0.23
   3   3  -8    0.84    0.27
   3   3  -8    0.18    0.12
   3   3  -8    0.54    0.23
  -3  -3   8    0.28    0.26
   2   3  -8    0.42    0.24
   2   3  -8    0.33    0.20
   2   3  -8   -0.05    0.12
   2   3  -8    0.08    0.25
   2   3  -8    0.30    0.24
   2   3  -8    0.17    0.21
  -2  -3   8    0.35    0.26
  -2  -3   8    0.18    0.24
   1   3  -8   23.52    0.89
   1   3  -8   22.72    0.86
   1   3  -8   23.53    0.74
   1   3  -8   23.80    0.90
   1   3  -8   23.36    0.86
  -1  -3   8   22.34    0.91
  -1  -3   8   22.91    0.87
   0   3  -8    3.81    0.31
   0   3  -8    3.78    0.32
   0   3  -8    3.18    0.32
   0   3  -8    3.71    0.30
   0   3  -8    3.45    0.26
   0  -3   8    3.94    0.36
  -1   3  -8    5.07    0.35
  -1   3  -8    4.97    0.42
  -1   3  -8    4.69    0.35
  -1   3  -8    4.73    0.43
  -1   3  -8    5.06    0.35
   1  -3   8    5.06    0.39
  -2   3  -8    0.32    0.21
  -2   3  -8   -0.13    0.21
  -2   3  -8    0.21    0.22
  -2   3  -8    0.16    0.28
  -2   3  -8   -0.02    0.27
  -2   3  -8   -0.27    0.26
   2  -3   8    0.04    0.25
  -3   3  -8   14.18    0.72
  -3   3  -8   13.32    0.68
  -3   3  -8   13.77    0.69
  -3   3  -8   13.51    0.67
  -3   3  -8   12.83    0.64
  -3   3  -8   13.01    0.54
  -4   3  -8    1.31    0.35
  -4   3  -8    0.98    0.32
  -4   3  -8    0.68    0.28
  -5   3  -8   17.67    0.84
  -5   3  -8   17.83    0.86
  -6   3  -8    4.07    0.42
  -6   3  -8    4.04    0.47
  -7   3  -8   14.61    0.78
  -7   3  -8   14.81    0.82
  -8   3  -8    6.54    0.63
  -9   3  -8    1.01    0.60
 -10   3  -8    2.71    0.72
 -11  -2   8    1.81    0.64
 -10  -2   8    6.24    0.69
   9   2  -8    7.74    0.61
   9   2  -8    7.02    0.67
  -9  -2   8    5.79    0.60
   8   2  -8   13.08    0.75
   8   2  -8   14.43    0.80
  -8  -2   8   15.39    0.85
   7   2  -8   34.85    1.33
   7   2  -8   33.83    1.32
   7   2  -8   34.53    1.28
   6   2  -8    4.99    0.42
   6   2  -8    5.31    0.40
   6   2  -8    4.72    0.41
   6   2  -8    4.38    0.46
  -6  -2   8    4.79    0.45
   5   2  -8    3.67    0.41
   5   2  -8    2.90    0.34
   5   2  -8    2.80    0.33
   5   2  -8    3.63    0.33
  -5  -2   8    2.60    0.36
   4   2  -8   27.35    1.00
   4   2  -8   27.15    1.04
   4   2  -8   27.65    0.90
   4   2  -8   28.29    1.04
   4   2  -8   27.20    1.04
   4   2  -8   26.71    1.03
  -4  -2   8   27.00    1.04
   3   2  -8    4.19    0.38
   3   2  -8    3.99    0.33
   3   2  -8    4.19    0.32
   3   2  -8    4.87    0.38
   3   2  -8    3.88    0.36
   3   2  -8    4.87    0.36
  -3  -2   8    4.66    0.40
   2   2  -8    0.20    0.21
   2   2  -8    0.08    0.25
   2   2  -8   -0.13    0.18
   2   2  -8    0.34    0.24
   2   2  -8   -0.20    0.21
   2   2  -8   -0.08    0.19
  -2  -2   8   -0.08    0.24
   1   2  -8   -0.18    0.17
   1   2  -8   -0.19    0.23
   1   2  -8   -0.01    0.18
   1   2  -8    0.03    0.24
   1   2  -8    0.21    0.21
   1   2  -8   -0.05    0.19
  -1  -2   8   -0.08    0.21
  -1  -2   8    0.23    0.23
   0   2  -8   11.12    0.54
   0   2  -8   12.02    0.56
   0   2  -8   10.41    0.54
   0   2  -8   11.64    0.56
   0   2  -8   11.03    0.45
   0  -2   8   10.72    0.49
  -1   2  -8   10.32    0.54
  -1   2  -8   10.15    0.56
  -1   2  -8    9.75    0.54
  -1   2  -8    9.59    0.51
  -1   2  -8   10.17    0.43
   1  -2   8    9.92    0.47
  -2   2  -8   46.58    1.34
  -2   2  -8   46.77    1.51
  -2   2  -8   46.30    1.52
  -2   2  -8   46.78    1.60
  -2   2  -8   43.86    1.54
  -2   2  -8   46.57    1.56
   2  -2   8   44.24    1.54
  -3   2  -8    3.92    0.31
  -3   2  -8    4.03    0.38
  -3   2  -8    3.82    0.35
  -3   2  -8    4.01    0.28
  -3   2  -8    4.08    0.41
  -3   2  -8    3.88    0.35
  -4   2  -8    9.37    0.57
  -4   2  -8    8.48    0.62
  -4   2  -8    9.58    0.57
   4  -2   8    9.12    0.63
  -5   2  -8    0.52    0.30
  -5   2  -8    1.08    0.34
  -6   2  -8    1.21    0.36
  -6   2  -8    1.29    0.33
  -7   2  -8   21.00    0.96
  -7   2  -8   21.64    0.99
  -8   2  -8    2.04    0.53
  -9   2  -8   -0.40    0.53
 -10   2  -8    1.08    0.67
 -11  -1   8    2.24    0.68
 -10  -1   8    6.86    0.72
   9   1  -8    0.38    0.44
  -9  -1   8    1.14    0.49
   8   1  -8    3.95    0.46
   8   1  -8    3.68    0.48
  -8  -1   8    4.22    0.53
   7   1  -8    1.46    0.41
   7   1  -8    2.34    0.35
   7   1  -8    2.24    0.32
   6   1  -8    2.96    0.35
   6   1  -8    2.71    0.37
   6   1  -8    3.65    0.44
  -6  -1   8    3.75    0.42
   5   1  -8    2.25    0.30
   5   1  -8    2.43    0.39
   5   1  -8    2.18    0.30
   5   1  -8    1.83    0.30
  -5  -1   8    1.91    0.34
   4   1  -8   12.13    0.66
   4   1  -8   13.31    0.53
   4   1  -8   12.64    0.63
   4   1  -8   11.49    0.58
   4   1  -8   11.63    0.57
   4   1  -8   11.00    0.61
   4   1  -8   11.75    0.62
  -4  -1   8   11.85    0.61
   3   1  -8   24.84    0.91
   3   1  -8   24.05    0.94
   3   1  -8   23.82    0.93
   3   1  -8   24.52    0.91
   3   1  -8   24.36    0.93
   3   1  -8   25.56    0.79
   3   1  -8   24.53    0.93
  -3  -1   8   24.69    0.94
   2   1  -8   27.66    0.97
   2   1  -8   27.21    1.01
   2   1  -8   26.67    1.03
   2   1  -8   27.81    0.98
   2   1  -8   28.68    1.01
   2   1  -8   28.38    0.86
  -2  -1   8   27.11    1.03
   1   1  -8  120.77    3.63
   1   1  -8  115.60    3.80
   1   1  -8  115.72    3.73
   1   1  -8  119.50    3.22
   1   1  -8  116.63    3.63
   1   1  -8  116.63    3.57
  -1  -1   8  113.52    3.72
  -1  -1   8  116.72    3.83
   0   1  -8    4.32    0.34
   0   1  -8    3.69    0.32
   0   1  -8    3.90    0.29
   0   1  -8    3.47    0.28
   0   1  -8    3.82    0.25
   0  -1   8    3.97    0.34
   0  -1   8    3.75    0.28
  -1   1  -8    0.29    0.23
  -1   1  -8    0.17    0.19
  -1   1  -8    0.36    0.17
  -1   1  -8    0.20    0.21
  -1   1  -8    0.83    0.24
   1  -1   8    0.18    0.18
  -2   1  -8    5.79    0.46
  -2   1  -8    4.87    0.40
  -2   1  -8    4.88    0.39
  -2   1  -8    4.83    0.33
  -2   1  -8    4.47    0.38
  -3   1  -8   26.90    1.05
  -3   1  -8   26.42    1.05
  -3   1  -8   28.05    1.06
  -3   1  -8   30.38    1.05
  -3   1  -8   28.69    0.88
  -3   1  -8   28.55    1.02
  -4   1  -8   13.86    0.71
  -4   1  -8   12.87    0.67
  -4   1  -8   13.79    0.71
   4  -1   8   12.97    0.72
  -5   1  -8    0.05    0.31
  -5   1  -8    0.48    0.32
   5  -1   8    0.05    0.35
  -6   1  -8   -0.30    0.32
  -6   1  -8    0.27    0.34
  -7   1  -8   -0.10    0.34
  -7   1  -8   -0.03    0.34
  -8   1  -8    0.07    0.44
  -9   1  -8    6.20    0.70
 -10   1  -8    1.98    0.72
 -11   1  -8    3.54    0.81
 -11   0   8    1.75    0.68
 -10   0   8    0.41    0.56
   9   0  -8    5.36    0.57
  -9   0   8    4.06    0.57
   8   0  -8    0.11    0.34
   8   0  -8    0.04    0.37
  -8   0   8    0.41    0.43
   7   0  -8   23.68    0.98
   7   0  -8   23.66    1.04
   7   0  -8   24.08    1.01
   6   0  -8   13.17    0.65
   6   0  -8   14.22    0.72
   6   0  -8   13.71    0.69
  -6   0   8   12.15    0.70
   5   0  -8   18.37    0.79
   5   0  -8   17.67    0.80
   5   0  -8   19.06    0.79
   5   0  -8   18.77    0.86
  -5   0   8   18.52    0.81
   4   0  -8   40.24    1.40
   4   0  -8   42.52    1.23
   4   0  -8   40.82    1.44
   4   0  -8   39.33    1.42
   4   0  -8   38.07    1.41
   4   0  -8   41.61    1.36
   4   0  -8   40.39    1.44
  -4   0   8   39.65    1.44
   3   0  -8   -0.22    0.20
   3   0  -8    0.27    0.20
   3   0  -8    0.45    0.26
   3   0  -8   -0.06    0.18
   3   0  -8    0.16    0.21
   3   0  -8    0.25    0.22
   3   0  -8   -0.04    0.25
  -3   0   8    0.40    0.26
  -3   0   8    0.09    0.24
   2   0  -8   19.65    0.75
   2   0  -8   19.03    0.76
   2   0  -8   19.02    0.76
   2   0  -8   19.68    0.64
   2   0  -8   18.71    0.75
   2   0  -8   18.42    0.70
   2   0  -8   18.15    0.75
  -2   0   8   18.66    0.76
   1   0  -8   27.91    1.04
   1   0  -8   29.77    0.89
   1   0  -8   29.88    1.00
   1   0  -8   29.90    1.06
   1   0  -8   29.28    1.06
   1   0  -8   29.57    1.02
  -1   0   8   28.00    1.06
   0   0  -8   25.67    0.92
   0   0  -8   25.63    0.81
   0   0  -8   26.96    0.96
   0   0  -8   26.09    0.95
   0   0  -8   26.13    0.95
   0   0   8   26.50    0.97
   0   0   8   25.05    0.88
  -1   0  -8    8.32    0.49
  -1   0  -8    8.61    0.51
  -1   0  -8    8.23    0.46
  -1   0  -8    8.70    0.38
  -1   0  -8    8.48    0.48
   1   0   8    8.20    0.37
   1   0   8    8.26    0.49
  -2   0  -8    1.56    0.28
  -2   0  -8    1.99    0.24
  -2   0  -8    2.09    0.21
  -2   0  -8    1.53    0.24
  -2   0  -8    1.49    0.27
   2   0   8    1.43    0.29
   2   0   8    1.76    0.32
  -3   0  -8    1.51    0.25
  -3   0  -8    1.34    0.27
  -3   0  -8    1.48    0.29
  -3   0  -8    1.31    0.21
  -3   0  -8    1.46    0.29
   3   0   8    1.05    0.28
  -4   0  -8    0.38    0.20
  -4   0  -8    0.06    0.25
  -4   0  -8   -0.15    0.30
  -4   0  -8   -0.42    0.27
  -5   0  -8   13.93    0.72
  -5   0  -8   14.20    0.71
   5   0   8   12.99    0.72
  -6   0  -8   18.92    0.88
  -6   0  -8   18.45    0.86
   6   0   8   17.09    0.88
  -7   0  -8    1.83    0.37
  -8   0  -8    2.16    0.48
  -9   0  -8    0.97    0.60
 -10   0  -8    3.98    0.69
 -11   0  -8    9.20    0.91
 -11   1   8   -0.25    0.62
 -10   1   8    6.22    0.69
   9  -1  -8   13.68    0.84
  -9   1   8   10.88    0.85
   8  -1  -8   22.10    0.97
  -8   1   8   19.68    1.04
   7  -1  -8   42.96    1.58
   7  -1  -8   43.20    1.60
   7  -1  -8   43.45    1.59
   6  -1  -8   10.76    0.58
   6  -1  -8   10.30    0.66
   6  -1  -8    9.37    0.60
   5  -1  -8    2.35    0.32
   5  -1  -8    2.03    0.31
   5  -1  -8    2.34    0.30
   5  -1  -8    2.06    0.38
  -5   1   8    2.45    0.37
   4  -1  -8   -0.13    0.29
   4  -1  -8   -0.35    0.28
   4  -1  -8    0.32    0.23
   4  -1  -8    0.38    0.25
   4  -1  -8    0.16    0.21
   4  -1  -8    0.26    0.24
  -4   1   8   -0.55    0.27
  -4   1   8    0.16    0.20
  -4   1   8   -0.06    0.26
   3  -1  -8   16.79    0.70
   3  -1  -8   16.68    0.73
   3  -1  -8   16.98    0.71
   3  -1  -8   17.71    0.61
   3  -1  -8   16.14    0.68
   3  -1  -8   16.35    0.72
  -3   1   8   16.86    0.59
  -3   1   8   17.53    0.72
  -3   1   8   16.29    0.72
   2  -1  -8    8.05    0.51
   2  -1  -8    8.82    0.45
   2  -1  -8    8.80    0.50
   2  -1  -8    9.52    0.40
   2  -1  -8    9.15    0.47
   2  -1  -8    9.06    0.41
   2  -1  -8    8.60    0.48
  -2   1   8    8.83    0.50
  -2   1   8    9.37    0.39
  -2   1   8    8.82    0.47
   1  -1  -8    0.41    0.24
   1  -1  -8    0.35    0.15
   1  -1  -8    0.55    0.21
   1  -1  -8    0.39    0.17
   1  -1  -8    0.24    0.17
   1  -1  -8    0.61    0.24
   1  -1  -8    0.46    0.19
  -1   1   8    0.17    0.21
  -1   1   8    0.34    0.15
  -1   1   8    0.06    0.24
   0  -1  -8   11.92    0.45
   0  -1  -8   11.60    0.56
   0  -1  -8   11.41    0.55
   0  -1  -8   11.04    0.54
   0  -1  -8   11.83    0.44
   0  -1  -8   12.96    0.57
   0   1   8   11.37    0.54
   0   1   8   11.02    0.44
   0   1   8   12.24    0.58
  -1  -1  -8   92.75    3.12
  -1  -1  -8   91.13    2.98
  -1  -1  -8   99.17    2.63
  -1  -1  -8   95.57    2.99
  -1  -1  -8   94.89    2.93
   1   1   8   95.26    3.00
   1   1   8   96.12    2.62
   1   1   8   94.83    3.14
   1   1   8   95.68    2.99
  -2  -1  -8   54.21    1.48
  -2  -1  -8   51.17    1.69
  -2  -1  -8   52.05    1.65
  -2  -1  -8   52.81    1.75
  -2  -1  -8   49.69    1.69
   2   1   8   45.70    1.68
   2   1   8   49.31    1.46
   2   1   8   54.16    1.71
  -3  -1  -8   41.09    1.44
  -3  -1  -8   40.03    1.20
  -3  -1  -8   41.63    1.37
  -3  -1  -8   39.33    1.41
   3   1   8   40.50    1.41
  -4  -1  -8    0.43    0.27
  -4  -1  -8    0.50    0.30
  -4  -1  -8    0.49    0.25
  -4  -1  -8    0.15    0.20
   4   1   8   -0.04    0.32
  -5  -1  -8   22.29    0.96
  -5  -1  -8   25.09    0.99
   5   1   8   24.83    1.02
  -6  -1  -8   16.74    0.83
  -6  -1  -8   17.95    0.82
   6   1   8   17.02    0.83
  -7  -1  -8   11.92    0.70
  -8  -1  -8    1.39    0.43
  -9  -1  -8    0.30    0.49
 -10  -1  -8    1.88    0.66
 -11  -1  -8   -0.42    0.68
 -11   2   8   -1.37    0.62
 -10   2   8    0.03    0.61
   9  -2  -8    0.50    0.44
  -9   2   8    0.83    0.50
   8  -2  -8    0.75    0.38
  -8   2   8    1.68    0.51
   7  -2  -8    8.08    0.58
   6  -2  -8    0.87    0.30
   6  -2  -8    0.69    0.31
   6  -2  -8    1.06    0.40
   5  -2  -8   12.94    0.66
   5  -2  -8   14.25    0.72
   5  -2  -8   13.13    0.68
  -5   2   8   14.79    0.72
   4  -2  -8    0.08    0.23
   4  -2  -8    0.12    0.30
   4  -2  -8   -0.03    0.25
   4  -2  -8   -0.16    0.20
   4  -2  -8   -0.19    0.22
  -4   2   8   -0.18    0.27
  -4   2   8   -0.05    0.30
  -4   2   8    0.28    0.20
   3  -2  -8   43.94    1.48
   3  -2  -8   43.25    1.51
   3  -2  -8   43.55    1.27
   3  -2  -8   43.18    1.51
   3  -2  -8   42.56    1.41
  -3   2   8   43.71    1.27
  -3   2   8   43.14    1.52
  -3   2   8   42.29    1.47
   2  -2  -8    3.45    0.28
   2  -2  -8    4.54    0.33
   2  -2  -8    3.92    0.28
   2  -2  -8    3.90    0.35
   2  -2  -8    4.54    0.32
  -2   2   8    3.64    0.35
  -2   2   8    4.43    0.36
  -2   2   8    3.68    0.28
   1  -2  -8    1.65    0.21
   1  -2  -8    1.60    0.16
   1  -2  -8    1.50    0.19
   1  -2  -8    1.39    0.23
   1  -2  -8    1.72    0.27
   1  -2  -8    1.61    0.23
  -1   2   8    1.50    0.24
  -1   2   8    1.62    0.18
  -1   2   8    2.43    0.30
   0  -2  -8   42.58    1.24
   0  -2  -8   43.98    1.40
   0  -2  -8   42.75    1.44
   0  -2  -8   42.46    1.47
   0  -2  -8   43.06    1.37
   0   2   8   41.37    1.44
   0   2   8   42.65    1.48
   0   2   8   42.78    1.24
  -1  -2  -8   58.84    1.92
  -1  -2  -8   55.30    1.85
  -1  -2  -8   58.39    1.61
  -1  -2  -8   55.21    1.81
   1   2   8   56.63    1.93
   1   2   8   55.56    1.61
   1   2   8   57.03    1.86
  -2  -2  -8  151.25    4.57
  -2  -2  -8  153.27    4.49
  -2  -2  -8  151.54    4.04
  -2  -2  -8  145.59    4.78
   2   2   8  147.92    4.63
   2   2   8  141.78    4.55
   2   2   8  145.77    4.81
   2   2   8  144.59    4.56
   2   2   8  147.36    4.03
  -3  -2  -8   -0.22    0.24
  -3  -2  -8    0.16    0.17
  -3  -2  -8   -0.06    0.19
  -3  -2  -8    0.01    0.22
   3   2   8    0.35    0.24
  -4  -2  -8    4.42    0.35
  -4  -2  -8    4.60    0.44
  -4  -2  -8    4.51    0.41
  -4  -2  -8    4.40    0.33
   4   2   8    4.84    0.44
  -5  -2  -8    9.71    0.64
  -5  -2  -8   10.54    0.60
   5   2   8    9.43    0.65
   5   2   8    9.63    0.59
  -6  -2  -8   12.34    0.66
   6   2   8   11.58    0.67
  -7  -2  -8    0.30    0.32
   7   2   8   -0.53    0.32
  -8  -2  -8    7.07    0.64
  -9  -2  -8    4.15    0.56
 -10  -2  -8    0.45    0.56
 -11  -2  -8    0.55    0.68
 -11   3   8    0.01    0.65
 -10   3   8   -0.62    0.59
  -9   3   8    2.38    0.55
   8  -3  -8   -0.12    0.36
  -8   3   8    0.40    0.44
   7  -3  -8    3.70    0.41
   6  -3  -8   40.35    1.50
   6  -3  -8   40.18    1.50
   5  -3  -8   52.73    1.78
   5  -3  -8   50.37    1.80
   5  -3  -8   50.51    1.81
  -5   3   8   52.01    1.77
  -5   3   8   50.39    1.84
   4  -3  -8   38.43    1.36
   4  -3  -8   39.25    1.15
   4  -3  -8   35.78    1.32
   4  -3  -8   37.35    1.37
  -4   3   8   37.39    1.39
  -4   3   8   35.54    1.32
  -4   3   8   38.90    1.14
   3  -3  -8   47.18    1.63
   3  -3  -8   48.21    1.38
   3  -3  -8   46.15    1.59
   3  -3  -8   48.17    1.65
  -3   3   8   45.25    1.58
  -3   3   8   50.04    1.38
  -3   3   8   45.74    1.65
   2  -3  -8    0.48    0.18
   2  -3  -8    0.28    0.25
   2  -3  -8    0.16    0.21
   2  -3  -8    0.44    0.18
  -2   3   8    0.24    0.16
  -2   3   8    0.56    0.23
  -2   3   8    0.28    0.26
   1  -3  -8   10.13    0.53
   1  -3  -8   10.12    0.43
   1  -3  -8    9.29    0.49
  -1   3   8   10.77    0.50
  -1   3   8    9.56    0.54
  -1   3   8   10.93    0.41
   0  -3  -8   17.65    0.59
   0  -3  -8   16.64    0.70
   0  -3  -8   17.13    0.70
   0  -3  -8   17.73    0.72
   0  -3  -8   17.80    0.58
   0   3   8   17.68    0.70
   0   3   8   17.79    0.73
   0   3   8   18.29    0.58
  -1  -3  -8    0.95    0.18
  -1  -3  -8    0.74    0.19
  -1  -3  -8    1.10    0.26
   1   3   8    0.66    0.21
   1   3   8    0.54    0.17
   1   3   8    0.52    0.25
  -2  -3  -8    0.95    0.24
  -2  -3  -8    1.04    0.18
  -2  -3  -8    0.83    0.20
   2   3   8    0.92    0.17
   2   3   8    0.93    0.21
   2   3   8    0.33    0.26
   2   3   8    0.44    0.17
   2   3   8    0.88    0.27
  -3  -3  -8    2.76    0.30
  -3  -3  -8    2.91    0.27
   3   3   8    2.93    0.22
   3   3   8    3.48    0.35
   3   3   8    2.65    0.25
  -4  -3  -8   -0.04    0.22
  -4  -3  -8   -0.10    0.24
   4   3   8   -0.19    0.29
   4   3   8   -0.18    0.20
  -5  -3  -8   43.43    1.53
  -5  -3  -8   43.92    1.54
   5   3   8   40.26    1.50
  -6  -3  -8   19.68    0.90
   6   3   8   19.58    0.86
   6   3   8   18.67    0.90
  -7  -3  -8    4.97    0.44
   7   3   8    4.76    0.44
  -8  -3  -8    9.72    0.68
   8   3   8    8.92    0.60
  -9  -3  -8   25.92    1.19
 -10  -3  -8    0.66    0.59
 -11  -3  -8    2.42    0.69
 -11   4   8    0.37    0.70
 -10   4   8    0.43    0.59
  -9   4   8    0.44    0.54
   8  -4  -8    0.17    0.36
  -8   4   8    0.26    0.44
   7  -4  -8   19.59    0.86
  -7   4   8   15.77    0.92
   6  -4  -8   29.06    1.13
   6  -4  -8   27.67    1.14
   5  -4  -8    3.11    0.35
   5  -4  -8    2.07    0.35
  -5   4   8    2.93    0.41
   4  -4  -8    2.10    0.33
   4  -4  -8    2.22    0.28
   4  -4  -8    2.30    0.34
  -4   4   8    1.74    0.35
  -4   4   8    2.09    0.25
  -4   4   8    1.64    0.34
   3  -4  -8    6.86    0.44
   3  -4  -8    6.95    0.49
   3  -4  -8    6.92    0.45
  -3   4   8    7.30    0.49
  -3   4   8    7.07    0.39
  -3   4   8    7.87    0.49
   2  -4  -8   44.54    1.51
   2  -4  -8   44.58    1.49
  -2   4   8   42.38    1.48
  -2   4   8   42.96    1.54
  -2   4   8   44.82    1.28
   1  -4  -8    0.16    0.23
   1  -4  -8   -0.07    0.19
   1  -4  -8    0.08    0.17
  -1   4   8    0.01    0.25
  -1   4   8   -0.15    0.15
  -1   4   8   -0.09    0.22
  -1   4   8    0.06    0.20
   0  -4  -8    0.35    0.16
   0  -4  -8    0.15    0.19
   0  -4  -8   -0.04    0.23
   0   4   8    0.10    0.23
   0   4   8    0.26    0.25
   0   4   8    0.25    0.19
   0   4   8    0.23    0.15
  -1  -4  -8    5.55    0.35
  -1  -4  -8    6.27    0.38
  -1  -4  -8    6.51    0.44
   1   4   8    6.10    0.42
   1   4   8    5.84    0.35
   1   4   8    5.20    0.43
   1   4   8    5.75    0.32
  -2  -4  -8   43.32    1.42
  -2  -4  -8   41.45    1.44
   2   4   8   40.25    1.43
   2   4   8   39.78    1.36
   2   4   8   42.53    1.41
   2   4   8   41.17    1.21
   2   4   8   41.15    1.41
   2   4   8   42.63    1.42
  -3  -4  -8   37.45    1.33
  -3  -4  -8   39.20    1.32
   3   4   8   36.73    1.31
   3   4   8   37.19    1.27
   3   4   8   37.24    1.31
   3   4   8   37.86    1.12
   3   4   8   39.26    1.33
   3   4   8   37.21    1.21
  -4  -4  -8  107.78    3.52
  -4  -4  -8  113.57    3.41
   4   4   8  102.17    3.38
   4   4   8  105.93    3.32
   4   4   8  107.50    3.38
  -5  -4  -8   28.15    1.09
   5   4   8   28.86    1.06
   5   4   8   27.86    1.11
  -6  -4  -8    6.39    0.53
   6   4   8    6.29    0.49
   6   4   8    5.70    0.52
  -7  -4  -8    1.03    0.32
   7   4   8    0.68    0.38
   7   4   8    0.61    0.31
  -8  -4  -8    6.01    0.57
  -9  -4  -8    3.23    0.51
 -10  -4  -8    1.94    0.55
 -11  -4  -8    0.53    0.67
 -11   5   8    1.54    0.74
 -10   5   8    6.03    0.74
  -9   5   8    8.46    0.76
   8  -5  -8   10.44    0.75
  -8   5   8    8.05    0.78
   7  -5  -8   -0.12    0.29
  -7   5   8   -0.13    0.41
   6  -5  -8   -0.12    0.27
  -6   5   8    0.38    0.36
   5  -5  -8    0.08    0.25
   5  -5  -8   -0.27    0.30
  -5   5   8   -0.04    0.33
   4  -5  -8    6.37    0.47
   4  -5  -8    7.37    0.48
  -4   5   8    6.87    0.41
  -4   5   8    6.47    0.52
  -4   5   8    6.72    0.54
   3  -5  -8   15.67    0.71
   3  -5  -8   18.32    0.76
  -3   5   8   16.37    0.74
  -3   5   8   18.38    0.76
  -3   5   8   18.09    0.62
  -3   5   8   16.56    0.77
   2  -5  -8   43.68    1.52
   2  -5  -8   44.05    1.54
   2  -5  -8   44.22    1.49
  -2   5   8   44.30    1.55
  -2   5   8   44.06    1.48
  -2   5   8   42.64    1.49
  -2   5   8   44.73    1.29
   1  -5  -8  107.93    3.69
   1  -5  -8  113.39    3.51
   1  -5  -8  111.95    3.67
  -1   5   8  116.17    3.51
  -1   5   8  111.88    3.45
  -1   5   8  116.99    3.71
  -1   5   8  109.07    3.52
  -1   5   8  113.93    3.10
   0  -5  -8    4.57    0.35
   0  -5  -8    4.40    0.39
   0  -5  -8    4.39    0.32
   0   5   8    4.91    0.40
   0   5   8    4.78    0.40
   0   5   8    4.55    0.33
   0   5   8    4.86    0.30
   0   5   8    4.71    0.39
  -1  -5  -8    3.09    0.30
  -1  -5  -8    3.45    0.26
   1   5   8    3.36    0.23
   1   5   8    3.07    0.31
   1   5   8    3.66    0.32
   1   5   8    3.35    0.30
   1   5   8    3.18    0.25
  -2  -5  -8    0.54    0.18
  -2  -5  -8    0.96    0.25
   2   5   8    0.46    0.17
   2   5   8    0.74    0.24
   2   5   8    0.42    0.23
   2   5   8    0.58    0.18
   2   5   8    0.78    0.25
   2   5   8    0.43    0.17
   2   5   8    0.92    0.19
  -3  -5  -8   33.38    1.19
  -3  -5  -8   33.38    1.19
   3   5   8   31.99    1.18
   3   5   8   33.94    1.08
   3   5   8   33.46    1.19
   3   5   8   33.45    1.01
   3   5   8   32.35    1.18
   3   5   8   33.61    1.14
   3   5   8   34.58    1.16
  -4  -5  -8   18.24    0.79
  -4  -5  -8   17.66    0.77
   4   5   8   19.37    0.79
   4   5   8   17.94    0.72
   4   5   8   17.07    0.77
   4   5   8   16.98    0.62
   4   5   8   18.05    0.64
   4   5   8   17.81    0.77
   4   5   8   19.05    0.76
  -5  -5  -8    1.17    0.27
   5   5   8    1.74    0.24
   5   5   8    1.78    0.36
   5   5   8    1.65    0.27
  -6  -5  -8    0.02    0.28
   6   5   8   -0.12    0.27
   6   5   8   -0.01    0.35
  -7  -5  -8    0.39    0.29
   7   5   8    0.34    0.28
   7   5   8   -0.12    0.36
  -8  -5  -8    0.87    0.33
   8   5   8   -0.15    0.38
  -9  -5  -8    4.44    0.52
 -10  -5  -8    2.24    0.53
 -11  -5  -8   18.25    1.17
 -10   6   8   -0.49    0.66
  -9   6   8    0.56    0.55
   8  -6  -8   -0.10    0.40
  -8   6   8   -0.08    0.48
   7  -6  -8   -0.02    0.30
  -7   6   8   -0.20    0.40
   6  -6  -8    0.10    0.30
  -6   6   8   -0.54    0.34
   5  -6  -8   25.54    1.00
   5  -6  -8   24.11    1.04
  -5   6   8   24.77    1.02
   4  -6  -8   61.05    2.12
  -4   6   8   61.34    2.06
  -4   6   8   63.82    1.80
   3  -6  -8   15.58    0.69
   3  -6  -8   14.24    0.69
  -3   6   8   16.21    0.73
  -3   6   8   16.68    0.59
  -3   6   8   15.89    0.75
  -3   6   8   16.72    0.72
  -3   6   8   16.95    0.70
   2  -6  -8  120.30    4.05
   2  -6  -8  121.28    4.01
  -2   6   8  129.52    3.84
  -2   6   8  125.16    3.85
  -2   6   8  122.72    3.40
  -2   6   8  121.18    4.08
  -2   6   8  123.48    3.77
   1  -6  -8   19.83    0.76
   1  -6  -8   18.03    0.76
  -1   6   8   19.14    0.64
  -1   6   8   20.55    0.79
  -1   6   8   18.98    0.76
  -1   6   8   20.53    0.80
  -1   6   8   19.41    0.76
   0  -6  -8    4.34    0.33
   0  -6  -8    4.21    0.31
   0   6   8    4.33    0.39
   0   6   8    3.92    0.33
   0   6   8    3.92    0.34
   0   6   8    3.87    0.27
   0   6   8    4.36    0.28
  -1  -6  -8    1.56    0.15
  -1  -6  -8    1.55    0.21
  -1  -6  -8    1.51    0.19
   1   6   8    1.26    0.21
   1   6   8    0.95    0.25
   1   6   8    1.53    0.27
   1   6   8    1.53    0.20
   1   6   8    1.52    0.18
  -2  -6  -8    1.05    0.20
  -2  -6  -8    0.88    0.19
   2   6   8    0.93    0.19
   2   6   8    1.15    0.19
   2   6   8    1.23    0.25
   2   6   8    1.22    0.26
   2   6   8    1.09    0.18
  -3  -6  -8    0.05    0.19
   3   6   8   -0.02    0.24
   3   6   8    0.07    0.19
   3   6   8    0.23    0.18
   3   6   8    0.13    0.18
   3   6   8    0.14    0.17
   3   6   8    0.04    0.14
   3   6   8    0.36    0.25
  -4  -6  -8    0.93    0.22
   4   6   8    0.59    0.17
   4   6   8    1.35    0.30
   4   6   8    0.41    0.21
   4   6   8    0.64    0.22
   4   6   8    0.54    0.29
   4   6   8    0.67    0.20
   4   6   8    0.21    0.19
  -5  -6  -8    3.46    0.33
   5   6   8    3.58    0.34
   5   6   8    3.60    0.40
   5   6   8    3.44    0.32
   5   6   8    3.85    0.33
  -6  -6  -8   20.66    0.92
   6   6   8   21.46    0.83
   6   6   8   23.50    0.91
   6   6   8   21.87    0.87
   6   6   8   20.24    0.91
   6   6   8   20.41    0.83
  -7  -6  -8   10.23    0.65
   7   6   8    9.28    0.63
  -8  -6  -8   19.62    0.91
   8   6   8   18.17    0.92
  -9  -6  -8    6.00    0.53
 -10  -6  -8    3.09    0.54
 -11  -6  -8    2.61    0.62
 -10   7   8    9.25    0.89
  -9   7   8    8.17    0.77
  -8   7   8   13.64    0.90
   7  -7  -8   16.86    0.82
  -7   7   8   14.44    0.88
  -7   7   8   16.85    0.83
   6  -7  -8   12.44    0.66
  -6   7   8   11.27    0.68
  -6   7   8   11.21    0.81
   5  -7  -8   45.50    1.63
  -5   7   8   44.46    1.59
   4  -7  -8   22.33    0.92
  -4   7   8   23.80    0.80
  -4   7   8   23.18    0.94
   3  -7  -8    0.47    0.23
   3  -7  -8    0.44    0.29
  -3   7   8    0.37    0.31
  -3   7   8    0.46    0.32
  -3   7   8    0.33    0.23
  -3   7   8    0.41    0.22
  -3   7   8    0.31    0.30
   2  -7  -8    0.12    0.25
   2  -7  -8    0.18    0.19
  -2   7   8    0.24    0.30
  -2   7   8    0.25    0.21
  -2   7   8    0.32    0.28
  -2   7   8    0.30    0.26
  -2   7   8    0.41    0.20
   1  -7  -8    6.39    0.37
   1  -7  -8    5.87    0.40
  -1   7   8    5.57    0.43
  -1   7   8    5.91    0.34
  -1   7   8    5.97    0.45
  -1   7   8    6.83    0.47
  -1   7   8    6.03    0.44
   0  -7  -8    0.01    0.16
   0  -7  -8    0.13    0.19
   0   7   8   -0.05    0.17
   0   7   8    0.18    0.21
   0   7   8   -0.12    0.23
   0   7   8    0.03    0.23
   0   7   8   -0.28    0.16
  -1  -7  -8    1.05    0.19
  -1  -7  -8    0.74    0.19
  -1  -7  -8    1.18    0.17
   1   7   8    1.25    0.22
   1   7   8    1.31    0.25
   1   7   8    1.01    0.19
   1   7   8    1.07    0.18
   1   7   8    0.82    0.24
  -2  -7  -8    0.42    0.18
  -2  -7  -8    0.13    0.16
  -2  -7  -8    0.10    0.14
   2   7   8    0.17    0.23
   2   7   8    0.33    0.17
   2   7   8    0.06    0.24
   2   7   8    0.39    0.17
   2   7   8    0.13    0.17
  -3  -7  -8   74.89    2.48
   3   7   8   71.66    2.09
   3   7   8   75.15    2.38
   3   7   8   74.82    2.34
   3   7   8   75.58    2.34
   3   7   8   75.96    2.46
   3   7   8   73.06    2.39
  -4  -7  -8    2.98    0.27
   4   7   8    2.50    0.24
   4   7   8    3.36    0.29
   4   7   8    2.84    0.25
   4   7   8    2.75    0.28
   4   7   8    2.94    0.35
   4   7   8    2.59    0.36
   4   7   8    2.49    0.27
  -5  -7  -8   19.10    0.83
   5   7   8   19.86    0.76
   5   7   8   19.29    0.84
   5   7   8   19.75    0.85
   5   7   8   21.01    0.85
   5   7   8   19.32    0.76
  -6  -7  -8   27.56    1.11
   6   7   8   25.65    1.08
   6   7   8   28.64    1.03
   6   7   8   28.18    1.05
   6   7   8   30.26    1.10
  -7  -7  -8   13.88    0.69
   7   7   8   13.62    0.75
  -8  -7  -8    6.65    0.50
   8   7   8    6.45    0.57
  -9  -7  -8    0.29    0.37
   9   7   8    0.15    0.37
 -10  -7  -8    1.28    0.45
 -11  -7  -8    0.06    0.56
 -10   8   8   14.47    1.12
  -9   8   8    3.80    0.66
  -8   8   8    6.97    0.66
   7  -8  -8    1.85    0.37
  -7   8   8    1.76    0.43
  -7   8   8    2.29    0.47
   6  -8  -8    1.05    0.31
  -6   8   8    1.16    0.42
  -6   8   8    1.61    0.40
   5  -8  -8    2.22    0.32
  -5   8   8    3.06    0.42
   4  -8  -8    3.55    0.42
   4  -8  -8    4.75    0.42
  -4   8   8    4.12    0.42
  -4   8   8    3.92    0.32
   3  -8  -8   26.41    1.03
   3  -8  -8   26.52    1.08
  -3   8   8   27.22    1.01
  -3   8   8   27.10    1.04
  -3   8   8   26.83    0.88
  -3   8   8   27.65    1.03
   2  -8  -8    5.09    0.44
   2  -8  -8    6.17    0.40
  -2   8   8    5.88    0.44
  -2   8   8    6.61    0.51
  -2   8   8    6.54    0.49
  -2   8   8    6.14    0.38
  -2   8   8    5.57    0.49
   1  -8  -8   27.66    1.03
   1  -8  -8   27.54    1.06
  -1   8   8   29.95    1.02
  -1   8   8   27.04    1.00
  -1   8   8   28.31    0.88
  -1   8   8   29.05    1.09
  -1   8   8   27.94    1.03
   0  -8  -8   93.46    3.09
   0  -8  -8   92.72    3.05
   0   8   8   93.02    2.58
   0   8   8   91.87    2.88
   0   8   8   96.25    2.92
   0   8   8   94.08    3.11
   0   8   8   91.51    2.92
  -1  -8  -8   39.26    1.37
  -1  -8  -8   36.39    1.33
  -1  -8  -8   40.36    1.38
   1   8   8   42.12    1.34
   1   8   8   39.39    1.34
   1   8   8   40.72    1.32
   1   8   8   38.84    1.17
   1   8   8   41.97    1.41
   1   8   8   40.07    1.33
  -2  -8  -8   38.37    1.28
  -2  -8  -8   35.61    1.29
  -2  -8  -8   37.99    1.24
   2   8   8   37.86    1.26
   2   8   8   38.84    1.25
   2   8   8   31.93    1.24
   2   8   8   36.93    1.30
   2   8   8   37.64    1.10
  -3  -8  -8    0.33    0.20
   3   8   8    0.30    0.20
   3   8   8    0.15    0.19
   3   8   8    0.22    0.18
   3   8   8    0.03    0.19
   3   8   8    0.00    0.25
   3   8   8    0.41    0.21
  -4  -8  -8    1.11    0.24
   4   8   8    1.24    0.24
   4   8   8    0.89    0.19
   4   8   8    0.95    0.22
   4   8   8    0.74    0.31
   4   8   8    0.88    0.21
   4   8   8    0.62    0.21
   4   8   8    1.04    0.23
  -5  -8  -8    9.66    0.56
   5   8   8    9.65    0.46
   5   8   8    9.47    0.57
   5   8   8   10.94    0.62
   5   8   8   10.64    0.52
  -6  -8  -8    1.44    0.27
   6   8   8    1.24    0.29
   6   8   8    0.91    0.33
  -7  -8  -8    2.36    0.33
   7   8   8    1.34    0.37
  -8  -8  -8    2.41    0.35
   8   8   8    2.59    0.42
  -9  -8  -8    5.69    0.50
   9   8   8    4.70    0.51
 -10  -8  -8    4.09    0.51
  10   8   8    2.74    0.51
 -11  -8  -8    7.57    0.72
  -9   9   8   -0.08    0.59
  -8   9   8    0.57    0.42
  -8   9   8    0.54    0.52
  -7   9   8   16.19    0.85
  -7   9   8   15.97    0.95
   6  -9  -8    4.93    0.44
  -6   9   8    4.96    0.51
  -6   9   8    5.23    0.51
   5  -9  -8   12.95    0.68
  -5   9   8   12.47    0.70
  -5   9   8   13.84    0.80
   4  -9  -8   30.85    1.16
  -4   9   8   30.26    0.99
  -4   9   8   29.31    1.13
   3  -9  -8   69.70    2.46
   3  -9  -8   72.26    2.40
  -3   9   8   71.54    2.03
  -3   9   8   69.63    2.31
  -3   9   8   71.99    2.26
   2  -9  -8   72.62    2.46
   2  -9  -8   72.41    2.39
  -2   9   8   70.45    2.32
  -2   9   8   72.06    2.49
  -2   9   8   70.76    2.26
  -2   9   8   71.70    2.03
   1  -9  -8   80.62    2.68
   1  -9  -8   81.02    2.63
  -1   9   8   78.69    2.23
  -1   9   8   77.77    2.51
  -1   9   8   76.65    2.53
  -1   9   8   81.16    2.49
  -1   9   8   80.90    2.71
   0  -9  -8    0.32    0.24
   0  -9  -8    0.30    0.18
   0   9   8    0.25    0.25
   0   9   8    0.44    0.21
   0   9   8    0.00    0.26
   0   9   8    0.39    0.19
   0   9   8    0.25    0.24
  -1  -9  -8    3.29    0.26
  -1  -9  -8    3.44    0.33
  -1  -9  -8    3.64    0.31
   1   9   8    3.64    0.33
   1   9   8    3.88    0.29
   1   9   8    3.44    0.32
   1   9   8    3.58    0.32
   1   9   8    3.73    0.24
   1   9   8    3.70    0.32
  -2  -9  -8   12.32    0.58
  -2  -9  -8   12.16    0.54
  -2  -9  -8   10.25    0.50
   2   9   8   12.98    0.61
   2   9   8   12.50    0.58
   2   9   8   13.06    0.57
   2   9   8   12.69    0.48
   2   9   8   13.31    0.57
  -3  -9  -8    3.37    0.30
  -3  -9  -8    3.02    0.27
  -3  -9  -8    3.04    0.27
   3   9   8    3.14    0.27
   3   9   8    3.22    0.33
   3   9   8    3.51    0.33
   3   9   8    2.85    0.27
   3   9   8    3.38    0.28
   3   9   8    3.46    0.26
  -4  -9  -8    4.30    0.32
   4   9   8    3.45    0.32
   4   9   8    3.70    0.27
   4   9   8    4.04    0.37
   4   9   8    4.14    0.38
   4   9   8    3.56    0.30
   4   9   8    3.90    0.31
  -5  -9  -8   22.70    0.92
   5   9   8   22.15    0.87
   5   9   8   22.85    0.92
   5   9   8   21.02    0.89
   5   9   8   23.40    0.91
   5   9   8   23.61    0.91
  -6  -9  -8    9.73    0.58
   6   9   8    9.64    0.62
   6   9   8    8.36    0.56
  -7  -9  -8    1.10    0.28
   7   9   8    1.42    0.29
   7   9   8    1.01    0.36
  -8  -9  -8   13.63    0.72
   8   9   8   12.87    0.72
  -9  -9  -8   12.49    0.74
   9   9   8   11.35    0.72
 -10  -9  -8   11.52    0.80
  10   9   8    8.71    0.71
 -11  -9  -8    5.62    0.64
  11   9   8    4.74    0.63
  -9  10   8    2.01    0.71
  -8  10   8   10.70    0.87
  -8  10   8   11.37    0.75
  -7  10   8   17.97    0.95
  -7  10   8   17.28    0.86
   6 -10  -8    6.10    0.48
  -6  10   8    5.34    0.52
  -6  10   8    5.48    0.52
   5 -10  -8    3.20    0.36
  -5  10   8    3.45    0.43
  -5  10   8    4.93    0.48
   4 -10  -8   64.54    2.20
  -4  10   8   65.38    1.87
  -4  10   8   61.94    2.13
   3 -10  -8    3.93    0.34
  -3  10   8    3.64    0.40
  -3  10   8    4.74    0.44
  -3  10   8    4.27    0.32
   2 -10  -8    3.97    0.32
   2 -10  -8    4.18    0.42
  -2  10   8    4.47    0.40
  -2  10   8    4.88    0.37
  -2  10   8    4.00    0.32
  -2  10   8    4.74    0.39
   1 -10  -8    1.85    0.32
   1 -10  -8    1.60    0.24
  -1  10   8    1.42    0.29
  -1  10   8    2.20    0.34
  -1  10   8    1.89    0.23
  -1  10   8    2.21    0.31
  -1  10   8    1.54    0.25
   0 -10  -8   27.59    0.99
   0 -10  -8   26.11    1.04
   0  10   8   27.56    0.99
   0  10   8   27.27    0.96
   0  10   8   27.84    1.07
   0  10   8   26.83    0.85
   0  10   8   27.67    0.97
  -1 -10  -8    8.96    0.46
  -1 -10  -8    9.05    0.47
  -1 -10  -8    8.89    0.48
   1  10   8    8.66    0.55
   1  10   8    8.25    0.39
   1  10   8    8.51    0.47
   1  10   8    8.44    0.46
   1  10   8    9.27    0.52
  -2 -10  -8   20.67    0.82
  -2 -10  -8   21.68    0.82
  -2 -10  -8   22.62    0.83
   2  10   8   21.62    0.80
   2  10   8   21.56    0.83
   2  10   8   21.70    0.86
   2  10   8   21.08    0.70
   2  10   8   20.71    0.80
  -3 -10  -8   13.98    0.64
  -3 -10  -8   13.93    0.59
  -3 -10  -8   14.90    0.59
   3  10   8   13.16    0.53
   3  10   8   14.08    0.60
   3  10   8   13.59    0.65
   3  10   8   13.23    0.66
   3  10   8   14.92    0.62
   3  10   8   13.43    0.61
  -4 -10  -8   30.37    1.09
   4  10   8   29.51    1.05
   4  10   8   28.81    1.05
   4  10   8   28.49    1.07
   4  10   8   29.27    0.92
   4  10   8   29.26    1.05
  -5 -10  -8   19.66    0.80
   5  10   8   18.51    0.80
   5  10   8   20.82    0.83
   5  10   8   20.38    0.84
   5  10   8   18.78    0.68
   5  10   8   19.76    0.84
  -6 -10  -8    0.69    0.24
   6  10   8    0.28    0.31
   6  10   8    0.17    0.29
   6  10   8    0.55    0.25
  -7 -10  -8    9.11    0.56
   7  10   8    8.73    0.55
   7  10   8    9.13    0.63
  -8 -10  -8    2.23    0.33
   8  10   8    2.27    0.40
  -9 -10  -8    1.22    0.35
   9  10   8    1.90    0.40
 -10 -10  -8    0.38    0.40
  10  10   8   -0.11    0.40
  11  10   8    1.45    0.53
  -9  11   8    1.22    0.55
  -9  11   8    0.82    0.66
  -8  11   8    1.52    0.57
  -8  11   8    1.50    0.47
  -7  11   8    8.30    0.79
  -7  11   8    8.11    0.62
  -6  11   8    1.19    0.42
  -6  11   8    0.54    0.37
   5 -11  -8    0.45    0.28
  -5  11   8   -0.02    0.34
  -5  11   8    0.54    0.35
   4 -11  -8    1.91    0.29
  -4  11   8    1.64    0.40
  -4  11   8    1.88    0.28
  -4  11   8    2.00    0.38
   3 -11  -8   48.82    1.71
  -3  11   8   48.52    1.67
  -3  11   8   50.29    1.66
  -3  11   8   48.90    1.46
   2 -11  -8    6.01    0.54
   2 -11  -8    7.30    0.46
  -2  11   8    7.17    0.47
  -2  11   8    7.36    0.40
  -2  11   8    6.96    0.51
  -2  11   8    7.24    0.48
   1 -11  -8   18.85    0.79
   1 -11  -8   22.61    0.89
  -1  11   8   20.04    0.78
  -1  11   8   19.68    0.69
  -1  11   8   20.34    0.78
  -1  11   8   20.48    0.80
   0 -11  -8   14.86    0.70
   0 -11  -8   14.81    0.64
   0  11   8   15.82    0.69
   0  11   8   15.16    0.63
   0  11   8   15.96    0.62
   0  11   8   15.15    0.61
   0  11   8   16.74    0.75
   0  11   8   14.75    0.56
  -1 -11  -8   35.33    1.27
  -1 -11  -8   34.53    1.27
  -1 -11  -8   34.80    1.23
   1  11   8   35.10    1.05
   1  11   8   36.70    1.32
   1  11   8   35.35    1.16
   1  11   8   35.38    1.22
  -2 -11  -8   33.87    1.20
  -2 -11  -8   35.89    1.22
  -2 -11  -8   36.32    1.24
   2  11   8   29.59    1.12
   2  11   8   33.54    1.18
   2  11   8   34.87    1.14
   2  11   8   36.19    1.26
   2  11   8   34.84    1.03
  -3 -11  -8   12.60    0.57
  -3 -11  -8   12.18    0.58
   3  11   8   11.53    0.50
   3  11   8   12.27    0.62
   3  11   8   12.66    0.54
   3  11   8   12.69    0.61
   3  11   8   12.43    0.53
  -4 -11  -8    3.94    0.35
  -4 -11  -8    4.18    0.31
   4  11   8    4.51    0.38
   4  11   8    4.49    0.32
   4  11   8    4.31    0.39
   4  11   8    4.44    0.32
   4  11   8    4.36    0.32
   5  11   8   -0.17    0.25
   5  11   8    0.11    0.19
   5  11   8   -0.08    0.23
   5  11   8   -0.02    0.25
   5  11   8    0.19    0.22
   6  11   8    0.16    0.27
   6  11   8   -0.32    0.23
   6  11   8   -0.01    0.28
   7  11   8    0.63    0.27
   7  11   8    0.12    0.28
   8  11   8   -0.21    0.31
   9  11   8    3.00    0.45
  10  11   8    0.28    0.44
  -8  12   8    1.86    0.63
  -8  12   8    0.10    0.51
  -7  12   8    0.11    0.40
  -7  12   8    1.06    0.51
  -6  12   8    1.32    0.44
  -6  12   8    1.37    0.39
  -5  12   8    1.67    0.40
  -5  12   8    1.35    0.38
   4 -12  -8   35.95    1.30
  -4  12   8   34.82    1.27
  -4  12   8   35.69    1.26
  -4  12   8   35.75    1.12
  -4  12   8   31.99    1.32
   3 -12  -8   25.77    0.99
  -3  12   8   26.73    0.96
  -3  12   8   24.74    0.85
  -3  12   8   24.15    0.96
   2 -12  -8   49.83    1.72
  -2  12   8   50.29    1.63
  -2  12   8   51.23    1.64
  -2  12   8   50.65    1.64
  -2  12   8   47.91    1.47
   1 -12  -8   36.24    1.37
  -1  12   8   35.90    1.20
  -1  12   8   36.99    1.24
  -1  12   8   36.01    1.10
  -1  12   8   36.28    1.20
   0 -12  -8   26.53    1.04
   0 -12  -8   26.22    1.03
   0  12   8   26.16    0.87
   0  12   8   25.41    0.83
   0  12   8   26.74    0.96
   0  12   8   25.50    0.87
   0  12   8   27.22    1.09
  -1 -12  -8   22.64    0.89
  -1 -12  -8   22.19    0.91
   1  12   8   21.61    0.72
   1  12   8   23.02    0.94
   1  12   8   21.93    0.73
   1  12   8   22.59    0.87
  -2 -12  -8    0.50    0.29
  -2 -12  -8    0.18    0.21
   2  12   8   -0.26    0.21
   2  12   8    0.07    0.18
  -3 -12  -8    8.11    0.48
   3  12   8    7.67    0.50
   3  12   8    7.41    0.52
   3  12   8    7.21    0.33
   3  12   8    7.17    0.38
  -4 -12  -8    2.95    0.33
   4  12   8    3.15    0.25
   4  12   8    2.41    0.27
   4  12   8    2.28    0.27
   4  12   8    3.05    0.25
   4  12   8    2.67    0.24
   5  12   8    1.48    0.24
   5  12   8    1.40    0.25
   5  12   8    1.41    0.21
   5  12   8    1.26    0.24
   5  12   8    1.49    0.26
   6  12   8    3.75    0.33
   6  12   8    3.98    0.34
   6  12   8    3.90    0.34
   7  12   8    7.61    0.54
   7  12   8    7.83    0.59
   7  12   8    7.24    0.49
   8  12   8   10.73    0.73
   8  12   8    9.95    0.60
   9  12   8    3.89    0.46
  10  12   8    0.68    0.44
  -7  13   8    4.48    0.57
  -6  13   8    5.77    0.55
  -5  13   8    0.84    0.36
  -4  13   8    8.19    0.51
  -4  13   8    7.07    0.51
  -4  13   8    7.99    0.47
  -3  13   8   14.62    0.59
  -3  13   8   15.42    0.65
  -3  13   8   14.83    0.63
  -2  13   8    1.06    0.25
  -2  13   8    1.55    0.23
  -2  13   8    1.26    0.23
  -2  13   8    1.42    0.24
  -1  13   8    1.00    0.23
  -1  13   8    1.10    0.21
   0 -13  -8    0.58    0.32
   0 -13  -8    0.77    0.28
   0  13   8    0.53    0.22
   0  13   8    0.75    0.20
  -1 -13  -8   12.30    0.61
  -1 -13  -8   12.74    0.66
   1  13   8   12.50    0.59
   1  13   8   12.00    0.47
  -2 -13  -8    3.12    0.37
   2  13   8    2.37    0.27
   2  13   8    2.52    0.23
  -3 -13  -8   11.25    0.59
   3  13   8   10.90    0.58
   3  13   8   10.80    0.55
   3  13   8   10.28    0.45
  -4 -13  -8    4.31    0.39
   4  13   8    4.17    0.32
   4  13   8    4.15    0.31
   4  13   8    4.33    0.31
   5  13   8   12.55    0.64
   5  13   8   12.55    0.64
   5  13   8   12.28    0.49
   6  13   8    9.81    0.44
   6  13   8    9.64    0.44
   6  13   8   10.45    0.62
   7  13   8    2.59    0.34
   7  13   8    2.68    0.29
   7  13   8    2.67    0.28
   8  13   8    2.51    0.35
   8  13   8    2.32    0.32
   8  13   8    2.58    0.38
   9  13   8    0.60    0.35
  10  13   8    0.24    0.42
  -7  14   8    3.80    0.59
  -6  14   8    0.91    0.43
  -5  14   8    0.03    0.35
  -4  14   8   -0.31    0.26
  -4  14   8    0.50    0.25
  -4  14   8    0.10    0.26
  -3  14   8    5.63    0.35
  -3  14   8    5.54    0.36
  -3  14   8    5.69    0.41
  -2  14   8   10.88    0.50
  -2  14   8   11.56    0.61
  -1  14   8   12.78    0.63
  -1  14   8   12.50    0.52
   0  14   8   23.68    0.85
   0  14   8   21.54    0.74
  -1 -14  -8   30.97    1.20
   1  14   8   31.06    1.07
   1  14   8   30.26    0.94
  -2 -14  -8   43.85    1.54
   2  14   8   40.73    1.23
   2  14   8   41.31    1.40
  -3 -14  -8   13.82    0.69
   3  14   8   13.24    0.65
   3  14   8   13.56    0.63
   3  14   8   13.12    0.51
  -4 -14  -8   11.60    0.61
   4  14   8   10.73    0.46
   4  14   8   10.63    0.59
   4  14   8   10.93    0.59
   5  14   8    9.71    0.59
   5  14   8   10.84    0.61
   5  14   8    9.46    0.44
   6  14   8   -0.36    0.27
   7  14   8    2.46    0.37
   8  14   8    0.58    0.38
   8  14   8    0.71    0.22
   9  14   8    0.96    0.28
   9  14   8    0.49    0.25
  -6  15   8    1.54    0.42
  -5  15   8    3.95    0.34
  -5  15   8    4.08    0.37
  -4  15   8    2.93    0.35
  -4  15   8    3.16    0.27
  -3  15   8    2.95    0.32
  -2  15   8   14.36    0.68
  -2  15   8   13.93    0.59
  -1  15   8   30.94    1.08
  -1  15   8   29.59    0.96
   0  15   8    7.59    0.48
   0  15   8    7.05    0.40
   1  15   8    3.24    0.28
   1  15   8    3.06    0.26
   2  15   8    0.06    0.22
   2  15   8    0.43    0.20
   3  15   8    0.24    0.24
   3  15   8    0.72    0.24
   3  15   8    0.70    0.21
   4  15   8    4.20    0.33
   4  15   8    4.09    0.33
   4  15   8    3.63    0.28
   5  15   8    0.49    0.21
   5  15   8    0.72    0.26
   5  15   8    0.81    0.28
   6  15   8    4.14    0.39
   7  15   8    1.33    0.36
   8  15   8    7.20    0.54
   9  15   8    5.59    0.56
  -4  16   8    3.39    0.38
  -3  16   8    2.08    0.33
  -2  16   8    8.21    0.48
  -1  16   8    0.25    0.24
  -1  16   8   -0.32    0.25
   0  16   8    0.15    0.24
   0  16   8   -0.12    0.22
   1  16   8    0.95    0.23
   1  16   8    0.53    0.23
   2  16   8   15.10    0.58
   2  16   8   16.70    0.70
   3  16   8   17.50    0.64
   3  16   8   17.87    0.75
   3  16   8   18.01    0.77
   4  16   8    9.91    0.64
   4  16   8   11.53    0.48
   4  16   8   10.89    0.62
   5  16   8    7.61    0.60
   5  16   8    6.97    0.41
   5  16   8    6.99    0.57
   6  16   8    5.21    0.42
   7  16   8    5.10    0.46
   8  16   8    5.21    0.51
  -3  17   8    1.61    0.34
  -2  17   8    0.15    0.29
  -1  17   8    5.08    0.37
  -1  17   8    5.54    0.40
   0  17   8   13.02    0.66
   0  17   8   12.91    0.56
   1  17   8    5.86    0.51
   1  17   8    6.14    0.40
   2  17   8    4.18    0.31
   2  17   8    4.84    0.35
   3  17   8    5.44    0.40
   3  17   8    5.89    0.49
   3  17   8    6.83    0.55
   4  17   8    3.30    0.29
   4  17   8    3.36    0.36
   4  17   8    2.72    0.33
   5  17   8    4.25    0.38
   5  17   8    4.82    0.40
   6  17   8    0.54    0.33
   6  17   8    0.52    0.34
   7  17   8    0.36    0.38
  -2  18   8    1.93    0.35
  -1  18   8    4.32    0.37
  -1  18   8    5.45    0.42
   0  18   8    5.52    0.40
   0  18   8    4.97    0.36
   1  18   8    5.64    0.39
   1  18   8    5.22    0.41
   2  18   8    8.55    0.57
   2  18   8    7.88    0.46
   2  18   8    9.36    0.63
   3  18   8    0.49    0.25
   3  18   8    0.12    0.29
   3  18   8    0.36    0.28
   4  18   8   -0.30    0.31
   4  18   8    0.19    0.24
   4  18   8   -0.04    0.28
   5  18   8    1.64    0.37
   5  18   8    1.90    0.34
   1  19   8    1.74    0.33
   2  19   8    2.37    0.32
   2  19   8    2.69    0.34
   3  19   8    4.74    0.37
   3  19   8    3.49    0.34
   2  13  -9    4.28    0.47
   1  13  -9    2.09    0.45
   5  12  -9    4.23    0.50
   4  12  -9    1.35    0.43
   3  12  -9    0.92    0.41
   2  12  -9    2.09    0.42
   1  12  -9    2.36    0.45
   0  12  -9    0.21    0.43
  -1  12  -9    0.70    0.45
  -2  12  -9    1.42    0.50
   6  11  -9    0.02    0.46
   5  11  -9   -0.35    0.42
   4  11  -9    0.87    0.40
   3  11  -9   -0.45    0.36
   2  11  -9    1.95    0.27
   2  11  -9    1.31    0.38
   1  11  -9    2.91    0.30
   1  11  -9    3.68    0.42
   0  11  -9    3.14    0.45
  -1  11  -9    3.72    0.47
  -2  11  -9    8.26    0.60
  -3  11  -9    9.33    0.66
  -4  11  -9    4.59    0.61
   7  10  -9    2.81    0.50
   6  10  -9    1.60    0.45
   5  10  -9    0.40    0.40
   4  10  -9    3.29    0.43
   3  10  -9    3.60    0.41
   3  10  -9    3.96    0.31
   2  10  -9   13.37    0.75
   2  10  -9   14.90    0.57
   1  10  -9   19.61    0.88
   1  10  -9   18.64    0.68
   0  10  -9    4.28    0.44
  -1  10  -9    5.31    0.48
  -2  10  -9    2.16    0.44
  -3  10  -9    2.31    0.48
  -4  10  -9    2.06    0.51
  -5  10  -9   -0.11    0.27
  -5  10  -9    0.10    0.30
   8   9  -9    2.24    0.50
   7   9  -9    9.72    0.83
   6   9  -9    4.77    0.48
   5   9  -9   10.70    0.72
   4   9  -9    1.09    0.36
   3   9  -9    0.83    0.33
   3   9  -9    1.10    0.24
   2   9  -9    4.07    0.30
   2   9  -9    4.17    0.38
   1   9  -9    0.79    0.32
   1   9  -9    0.81    0.22
   0   9  -9    0.77    0.33
   0   9  -9    0.83    0.23
  -1   9  -9    0.44    0.35
  -2   9  -9   -0.23    0.35
  -3   9  -9    0.93    0.40
  -3   9  -9    0.95    0.26
  -3   9  -9    1.19    0.24
  -4   9  -9    4.70    0.51
  -4   9  -9    4.18    0.39
  -4   9  -9    4.71    0.42
  -5   9  -9   15.30    0.77
  -6   9  -9    3.65    0.55
   9   8  -9    1.86    0.40
   8   8  -9    3.06    0.40
   8   8  -9    2.96    0.36
   7   8  -9    7.11    0.53
   7   8  -9    6.83    0.48
   7   8  -9    6.47    0.42
   6   8  -9    4.83    0.45
   6   8  -9    4.50    0.34
   6   8  -9    4.61    0.38
   5   8  -9    3.65    0.40
   4   8  -9    1.97    0.34
   3   8  -9    0.57    0.22
   3   8  -9    0.61    0.29
   2   8  -9    0.15    0.21
   2   8  -9   -0.10    0.27
   1   8  -9    0.50    0.28
   1   8  -9    0.65    0.21
   0   8  -9   20.64    0.72
   0   8  -9   20.75    0.87
  -1   8  -9   20.32    0.72
  -1   8  -9   21.08    0.88
  -1   8  -9   20.30    0.72
  -2   8  -9   18.81    0.72
  -2   8  -9   18.33    0.72
  -2   8  -9   19.35    0.89
  -3   8  -9    7.82    0.48
  -3   8  -9    8.06    0.49
  -3   8  -9    8.43    0.68
  -4   8  -9    4.79    0.43
  -4   8  -9    4.54    0.47
  -4   8  -9    3.92    0.41
  -5   8  -9    4.29    0.46
  -6   8  -9    5.25    0.57
  -6   8  -9    6.78    0.63
  -7   8  -9    1.65    0.60
  -7   8  -9    1.49    0.54
   9   7  -9    2.42    0.47
   8   7  -9    2.45    0.39
   7   7  -9    0.23    0.30
   7   7  -9    0.20    0.36
   7   7  -9    0.86    0.36
   6   7  -9    0.31    0.33
   6   7  -9   -0.22    0.25
   6   7  -9    0.13    0.31
   5   7  -9    0.09    0.27
   5   7  -9    0.19    0.24
   5   7  -9    0.10    0.30
   4   7  -9    3.14    0.30
   4   7  -9    3.56    0.35
   4   7  -9    3.64    0.30
   4   7  -9    2.85    0.27
   3   7  -9    8.80    0.43
   3   7  -9    9.93    0.58
   3   7  -9    9.55    0.46
   3   7  -9    9.61    0.47
   2   7  -9    0.95    0.28
   2   7  -9    1.07    0.23
   2   7  -9    1.02    0.22
   2   7  -9    1.06    0.21
   1   7  -9    4.20    0.31
   1   7  -9    4.12    0.33
   1   7  -9    4.17    0.35
   1   7  -9    4.33    0.34
   0   7  -9    5.89    0.37
   0   7  -9    6.25    0.38
   0   7  -9    5.91    0.38
   0   7  -9    5.30    0.47
   0   7  -9    5.80    0.52
   0  -7   9    6.17    0.48
  -1   7  -9   10.76    0.64
  -1   7  -9   11.17    0.54
  -1   7  -9   11.20    0.53
  -1   7  -9   11.29    0.49
  -1   7  -9   11.72    0.59
  -2   7  -9   20.73    0.82
  -2   7  -9   20.80    0.82
  -2   7  -9   22.69    0.92
  -2   7  -9   20.77    0.90
  -3   7  -9    2.47    0.34
  -3   7  -9    2.10    0.35
  -3   7  -9    1.59    0.33
  -3   7  -9    1.69    0.35
  -4   7  -9    0.62    0.32
  -4   7  -9   -0.07    0.34
  -4   7  -9    0.43    0.33
  -5   7  -9    0.35    0.37
  -5   7  -9    0.04    0.33
  -6   7  -9   -0.11    0.44
  -6   7  -9    0.02    0.38
  -7   7  -9    1.80    0.50
  -7   7  -9    2.36    0.60
  10   6  -9   -0.23    0.49
   9   6  -9    0.49    0.43
   8   6  -9    3.60    0.46
   7   6  -9   14.66    0.73
   7   6  -9   17.89    0.84
   6   6  -9    9.15    0.62
   6   6  -9    7.48    0.52
   6   6  -9    8.91    0.57
   6   6  -9    7.16    0.56
   5   6  -9   10.23    0.56
   5   6  -9   10.76    0.61
   5   6  -9   10.72    0.63
   5   6  -9   10.63    0.61
   4   6  -9   26.80    1.07
   4   6  -9   27.85    1.03
   4   6  -9   28.31    1.02
   4   6  -9   27.64    1.00
   4   6  -9   27.97    0.92
   3   6  -9   17.04    0.73
   3   6  -9   16.18    0.66
   3   6  -9   16.82    0.63
   3   6  -9   16.88    0.70
   3   6  -9   17.31    0.74
  -3  -6   9   14.72    0.76
   2   6  -9    8.02    0.43
   2   6  -9    8.19    0.51
   2   6  -9    7.98    0.48
   2   6  -9    7.97    0.46
   2   6  -9    7.58    0.56
  -2  -6   9    8.91    0.54
   1   6  -9    0.38    0.24
   1   6  -9    0.26    0.21
   1   6  -9    0.14    0.24
   1   6  -9   -0.06    0.26
   1   6  -9    0.29    0.26
  -1  -6   9    0.27    0.30
   0   6  -9    3.22    0.33
   0   6  -9    2.91    0.27
   0   6  -9    2.72    0.31
   0   6  -9    3.01    0.33
   0   6  -9    3.44    0.33
   0  -6   9    3.85    0.39
  -1   6  -9    6.29    0.44
  -1   6  -9    7.37    0.47
  -1   6  -9    7.37    0.50
  -1   6  -9    7.34    0.41
  -1   6  -9    6.45    0.56
   1  -6   9    7.32    0.52
  -2   6  -9    5.60    0.49
  -2   6  -9    6.80    0.45
  -2   6  -9    5.93    0.43
  -2   6  -9    5.68    0.47
   2  -6   9    5.68    0.48
  -3   6  -9    3.72    0.39
  -3   6  -9    3.97    0.39
  -3   6  -9    3.16    0.36
  -3   6  -9    3.26    0.40
   3  -6   9    3.65    0.41
  -4   6  -9    7.54    0.51
  -4   6  -9    7.28    0.51
  -4   6  -9    8.21    0.60
  -5   6  -9   14.94    0.81
  -5   6  -9   14.59    0.76
  -6   6  -9    8.79    0.76
  -6   6  -9    7.74    0.59
  -7   6  -9   12.20    0.93
  -7   6  -9   10.09    0.72
  -8   6  -9   10.53    0.83
  -8   6  -9   10.55    0.87
  10   5  -9    2.02    0.56
 -10  -5   9    2.10    0.57
   9   5  -9    1.92    0.49
   9   5  -9    2.17    0.45
  -9  -5   9    2.30    0.51
   8   5  -9    9.48    0.64
   8   5  -9   11.39    0.70
   7   5  -9   23.82    0.98
   7   5  -9   24.25    1.02
   7   5  -9   21.53    0.97
   6   5  -9    3.40    0.37
   6   5  -9    2.74    0.35
   6   5  -9    3.31    0.39
   5   5  -9    4.38    0.40
   5   5  -9    4.99    0.39
   5   5  -9    5.59    0.46
   5   5  -9    5.03    0.45
   4   5  -9   10.51    0.51
   4   5  -9   11.05    0.61
   4   5  -9   11.54    0.61
   4   5  -9   11.06    0.59
   4   5  -9   10.55    0.58
  -4  -5   9   10.39    0.60
   3   5  -9    0.07    0.27
   3   5  -9    0.31    0.23
   3   5  -9    0.10    0.30
   3   5  -9    0.46    0.24
   3   5  -9    0.10    0.27
  -3  -5   9    0.01    0.29
   2   5  -9   -0.04    0.25
   2   5  -9    0.05    0.27
   2   5  -9    0.07    0.22
   2   5  -9    0.32    0.23
   2   5  -9    0.11    0.28
  -2  -5   9    0.13    0.33
   1   5  -9    7.40    0.47
   1   5  -9    7.01    0.48
   1   5  -9    7.41    0.52
   1   5  -9    7.40    0.55
   1   5  -9    6.70    0.41
  -1  -5   9    6.96    0.48
   0   5  -9    1.22    0.24
   0   5  -9    1.77    0.27
   0   5  -9    1.07    0.31
   0   5  -9    0.70    0.29
   0   5  -9    1.31    0.29
   0  -5   9    1.44    0.32
  -1   5  -9    0.21    0.29
  -1   5  -9    0.46    0.25
  -1   5  -9    0.24    0.22
  -1   5  -9    0.38    0.28
  -1   5  -9    0.02    0.29
   1  -5   9    0.37    0.30
  -2   5  -9    6.25    0.38
  -2   5  -9    5.84    0.51
  -2   5  -9    5.83    0.50
  -2   5  -9    6.31    0.47
  -2   5  -9    5.29    0.42
   2  -5   9    5.33    0.45
  -3   5  -9   31.46    1.17
  -3   5  -9   30.89    1.17
  -3   5  -9   29.43    1.15
  -3   5  -9   30.82    1.19
   3  -5   9   31.13    1.18
  -4   5  -9   36.54    1.37
  -4   5  -9   39.68    1.39
  -4   5  -9   37.31    1.42
  -5   5  -9    8.25    0.60
  -5   5  -9    9.02    0.65
  -6   5  -9    1.67    0.42
  -6   5  -9    2.15    0.41
  -7   5  -9    2.73    0.47
  -7   5  -9    3.26    0.58
  -8   5  -9    3.53    0.68
  -8   5  -9    2.41    0.52
  -9   5  -9    1.28    0.69
  -9   5  -9   -0.26    0.51
  10   4  -9    9.72    0.76
 -10  -4   9    7.16    0.73
   9   4  -9    3.20    0.52
   9   4  -9    2.54    0.48
  -9  -4   9    3.22    0.55
   8   4  -9    4.34    0.48
   8   4  -9    3.58    0.48
   7   4  -9    3.50    0.40
   7   4  -9    3.72    0.46
   6   4  -9    7.48    0.54
   6   4  -9    7.81    0.59
   6   4  -9    6.64    0.57
   5   4  -9    1.00    0.29
   5   4  -9    0.97    0.31
   5   4  -9    1.17    0.35
   5   4  -9    1.55    0.31
  -5  -4   9    0.88    0.30
   4   4  -9   24.94    0.94
   4   4  -9   24.07    0.96
   4   4  -9   24.47    0.97
   4   4  -9   23.86    0.97
   4   4  -9   24.80    0.83
  -4  -4   9   22.43    0.96
   3   4  -9   21.96    0.76
   3   4  -9   21.43    0.87
   3   4  -9   21.83    0.87
   3   4  -9   21.68    0.88
   3   4  -9   21.61    0.88
  -3  -4   9   22.04    0.91
   2   4  -9    6.04    0.52
   2   4  -9    5.58    0.39
   2   4  -9    5.18    0.46
   2   4  -9    5.95    0.45
   2   4  -9    5.78    0.47
  -2  -4   9    4.96    0.44
  -2  -4   9    5.97    0.47
   1   4  -9   31.46    0.96
   1   4  -9   29.08    1.09
   1   4  -9   30.86    1.09
   1   4  -9   30.53    1.14
   1   4  -9   31.33    1.10
  -1  -4   9   30.47    1.12
  -1  -4   9   29.61    1.17
   0   4  -9   46.85    1.60
   0   4  -9   45.95    1.34
   0   4  -9   45.44    1.53
   0   4  -9   43.47    1.52
   0   4  -9   45.18    1.53
   0  -4   9   45.40    1.57
  -1   4  -9   52.85    1.75
  -1   4  -9   52.55    1.83
  -1   4  -9   52.19    1.75
  -1   4  -9   55.09    1.55
  -1   4  -9   51.85    1.75
   1  -4   9   52.42    1.81
  -2   4  -9    0.32    0.31
  -2   4  -9    0.30    0.26
  -2   4  -9    0.23    0.30
  -2   4  -9    0.40    0.23
  -2   4  -9    0.25    0.31
   2  -4   9    0.42    0.30
  -3   4  -9   -0.09    0.28
  -3   4  -9    0.18    0.30
  -3   4  -9    0.13    0.32
  -4   4  -9    3.98    0.42
  -4   4  -9    4.06    0.41
  -4   4  -9    4.32    0.41
  -5   4  -9    0.90    0.35
  -5   4  -9    1.02    0.34
  -6   4  -9    2.44    0.43
  -6   4  -9    2.89    0.44
  -7   4  -9    6.10    0.61
  -7   4  -9    6.94    0.61
  -8   4  -9    9.81    0.70
  -8   4  -9    8.51    0.75
  -9   4  -9    4.19    0.75
 -11  -3   9   -0.75    0.60
  10   3  -9    0.42    0.48
 -10  -3   9    0.96    0.59
   9   3  -9   10.03    0.71
   9   3  -9    9.92    0.80
  -9  -3   9    7.50    0.70
   8   3  -9    0.15    0.36
   8   3  -9    0.22    0.36
  -8  -3   9    0.11    0.42
   7   3  -9    2.16    0.37
   7   3  -9    2.68    0.43
   6   3  -9   10.38    0.63
   6   3  -9   10.74    0.62
   6   3  -9   10.44    0.63
   6   3  -9    9.60    0.55
   5   3  -9   31.57    1.23
   5   3  -9   33.31    1.26
   5   3  -9   35.28    1.20
  -5  -3   9   32.74    1.26
   4   3  -9   34.47    1.37
   4   3  -9   40.65    1.43
   4   3  -9   41.59    1.36
   4   3  -9   36.84    1.37
   4   3  -9   41.35    1.21
  -4  -3   9   39.53    1.43
   3   3  -9   12.22    0.62
   3   3  -9   11.42    0.51
   3   3  -9   10.51    0.59
   3   3  -9   11.04    0.59
  -3  -3   9    9.64    0.57
   2   3  -9   15.22    0.70
   2   3  -9   15.37    0.58
   2   3  -9   14.70    0.67
   2   3  -9   13.91    0.66
   2   3  -9   15.31    0.70
  -2  -3   9   14.80    0.67
  -2  -3   9   15.55    0.71
   1   3  -9    6.85    0.40
   1   3  -9    7.61    0.53
   1   3  -9    6.27    0.50
   1   3  -9    6.95    0.50
  -1  -3   9    7.23    0.45
  -1  -3   9    7.04    0.50
   0   3  -9    3.10    0.34
   0   3  -9    3.09    0.30
   0   3  -9    3.70    0.33
   0   3  -9    3.07    0.27
   0  -3   9    3.19    0.33
  -1   3  -9    0.23    0.28
  -1   3  -9   -0.03    0.22
  -1   3  -9    0.11    0.27
  -1   3  -9    0.44    0.22
  -1   3  -9   -0.16    0.15
   1  -3   9    0.20    0.27
  -2   3  -9    2.37    0.35
  -2   3  -9    1.96    0.26
  -2   3  -9    0.81    0.32
  -2   3  -9    1.85    0.30
  -2   3  -9    1.53    0.29
   2  -3   9    2.10    0.31
  -3   3  -9    0.81    0.30
  -3   3  -9    1.39    0.34
  -3   3  -9    0.83    0.32
  -4   3  -9   -0.17    0.29
  -4   3  -9    0.26    0.32
  -4   3  -9    0.07    0.29
  -5   3  -9    4.30    0.44
  -5   3  -9    3.36    0.40
  -6   3  -9   18.33    0.87
  -6   3  -9   19.04    0.91
  -7   3  -9   16.29    0.83
  -7   3  -9   16.51    0.97
  -8   3  -9   23.43    1.22
  -9   3  -9    4.27    0.70
 -10   3  -9    1.29    0.78
 -11  -2   9    0.82    0.65
 -10  -2   9    5.83    0.71
   9   2  -9    9.94    0.81
   9   2  -9    9.38    0.71
  -9  -2   9    6.67    0.70
   8   2  -9   11.39    0.74
   8   2  -9   10.25    0.70
   7   2  -9   55.03    1.93
   7   2  -9   53.56    1.94
   7   2  -9   57.96    1.99
   6   2  -9    9.99    0.63
   6   2  -9    9.40    0.61
   6   2  -9    9.90    0.55
   5   2  -9   38.96    1.35
   5   2  -9   40.40    1.44
   5   2  -9   37.47    1.41
   5   2  -9   38.89    1.41
  -5  -2   9   38.22    1.43
   4   2  -9    2.92    0.39
   4   2  -9    3.49    0.34
   4   2  -9    2.99    0.32
   4   2  -9    3.02    0.39
   4   2  -9    3.08    0.29
  -4  -2   9    2.75    0.35
   3   2  -9    2.62    0.35
   3   2  -9    2.39    0.31
   3   2  -9    2.82    0.33
   3   2  -9    2.55    0.29
   3   2  -9    2.50    0.27
   3   2  -9    2.26    0.36
  -3  -2   9    2.33    0.33
   2   2  -9   19.45    0.81
   2   2  -9   19.57    0.81
   2   2  -9   19.25    0.80
   2   2  -9   20.39    0.78
   2   2  -9   19.45    0.69
   2   2  -9   18.49    0.79
  -2  -2   9   19.94    0.83
   1   2  -9    6.23    0.51
   1   2  -9    5.59    0.46
   1   2  -9    5.73    0.48
   1   2  -9    5.77    0.36
   1   2  -9    5.54    0.38
   1   2  -9    5.63    0.44
  -1  -2   9    5.81    0.45
  -1  -2   9    5.97    0.40
   0   2  -9    3.50    0.31
   0   2  -9    2.99    0.30
   0   2  -9    2.59    0.34
   0   2  -9    3.24    0.36
   0   2  -9    3.03    0.26
   0  -2   9    3.25    0.30
   0  -2   9    2.98    0.33
  -1   2  -9   11.52    0.61
  -1   2  -9   14.01    0.68
  -1   2  -9   13.04    0.63
  -1   2  -9   13.31    0.66
  -1   2  -9   13.70    0.53
   1  -2   9   13.25    0.57
  -2   2  -9   41.83    1.47
  -2   2  -9   41.73    1.52
  -2   2  -9   43.74    1.47
  -2   2  -9   43.08    1.28
  -2   2  -9   42.64    1.50
   2  -2   9   43.55    1.47
  -3   2  -9   61.98    1.75
  -3   2  -9   60.07    1.98
  -3   2  -9   59.32    2.08
  -3   2  -9   60.87    2.03
  -4   2  -9    2.82    0.36
  -4   2  -9    2.67    0.37
  -4   2  -9    2.43    0.41
  -5   2  -9    2.57    0.37
  -5   2  -9    2.40    0.41
  -6   2  -9    5.51    0.51
  -6   2  -9    5.53    0.49
  -7   2  -9   12.72    0.85
  -7   2  -9   11.83    0.72
  -8   2  -9    0.61    0.49
  -9   2  -9    3.38    0.65
 -10   2  -9    1.28    0.75
 -11  -1   9    1.42    0.71
 -10  -1   9    1.78    0.59
   9   1  -9    2.24    0.53
  -9  -1   9    0.83    0.55
   8   1  -9    0.24    0.39
   8   1  -9    0.22    0.37
   7   1  -9    0.89    0.39
   7   1  -9    0.74    0.29
   7   1  -9    0.94    0.34
   6   1  -9    2.01    0.32
   6   1  -9    2.16    0.40
   6   1  -9    1.67    0.35
   5   1  -9    2.44    0.33
   5   1  -9    2.47    0.41
   5   1  -9    2.98    0.34
   5   1  -9    2.61    0.33
  -5  -1   9    2.65    0.37
   4   1  -9    2.61    0.32
   4   1  -9    2.77    0.31
   4   1  -9    2.47    0.31
   4   1  -9    2.51    0.28
   4   1  -9    2.84    0.33
   4   1  -9    2.51    0.38
  -4  -1   9    2.72    0.35
   3   1  -9    6.86    0.54
   3   1  -9    7.14    0.44
   3   1  -9    7.09    0.51
   3   1  -9    7.34    0.43
   3   1  -9    6.68    0.50
   3   1  -9    8.35    0.56
  -3  -1   9    6.41    0.47
   2   1  -9   45.46    1.60
   2   1  -9   46.66    1.60
   2   1  -9   48.96    1.39
   2   1  -9   47.16    1.60
   2   1  -9   47.41    1.55
   2   1  -9   48.61    1.65
  -2  -1   9   45.94    1.66
   1   1  -9   21.62    0.86
   1   1  -9   21.00    0.69
   1   1  -9   21.05    0.78
   1   1  -9   19.64    0.83
   1   1  -9   20.98    0.84
   1   1  -9   21.02    0.81
  -1  -1   9   20.40    0.84
   0   1  -9   23.88    0.90
   0   1  -9   23.37    0.76
   0   1  -9   22.52    0.89
   0   1  -9   23.04    0.89
   0   1  -9   23.90    0.92
   0  -1   9   23.25    0.84
   0  -1   9   23.44    0.93
  -1   1  -9    8.91    0.43
  -1   1  -9    7.90    0.54
  -1   1  -9    8.69    0.52
  -1   1  -9    8.40    0.50
  -1   1  -9    8.81    0.51
   1  -1   9    8.79    0.42
  -2   1  -9   39.61    1.16
  -2   1  -9   37.29    1.35
  -2   1  -9   38.46    1.40
  -2   1  -9   39.40    1.33
  -2   1  -9   37.63    1.35
   2  -1   9   38.60    1.31
  -3   1  -9    6.85    0.58
  -3   1  -9    5.95    0.54
  -3   1  -9    6.91    0.51
  -3   1  -9    6.41    0.40
  -4   1  -9    2.17    0.35
  -4   1  -9    3.37    0.41
  -4   1  -9    2.54    0.35
  -5   1  -9    0.35    0.31
  -5   1  -9    0.23    0.33
  -6   1  -9    7.33    0.63
  -6   1  -9    6.86    0.60
  -7   1  -9    1.55    0.42
  -8   1  -9    3.76    0.56
  -9   1  -9    4.05    0.68
 -10   1  -9    5.34    0.76
 -11   0   9    0.94    0.71
 -10   0   9    0.10    0.61
   9   0  -9    0.80    0.50
  -9   0   9   -0.44    0.51
   8   0  -9    5.95    0.54
   7   0  -9   24.62    0.98
   7   0  -9   23.56    1.02
   7   0  -9   21.30    1.00
   6   0  -9   27.86    1.08
   6   0  -9   26.95    1.11
   6   0  -9   26.92    1.10
   5   0  -9   79.84    2.59
   5   0  -9   80.12    2.50
   5   0  -9   78.51    2.67
   5   0  -9   79.05    2.66
  -5   0   9   74.91    2.67
   4   0  -9    4.09    0.35
   4   0  -9    3.57    0.31
   4   0  -9    4.05    0.42
   4   0  -9    3.72    0.34
   4   0  -9    4.03    0.36
   4   0  -9    4.07    0.35
  -4   0   9    3.61    0.38
   3   0  -9   42.06    1.44
   3   0  -9   41.59    1.46
   3   0  -9   39.47    1.45
   3   0  -9   39.42    1.42
   3   0  -9   41.02    1.22
   3   0  -9   40.96    1.40
   3   0  -9   39.90    1.38
  -3   0   9   40.02    1.46
   2   0  -9   49.86    1.63
   2   0  -9   49.36    1.72
   2   0  -9   50.47    1.66
   2   0  -9   49.94    1.67
   2   0  -9   51.81    1.46
   2   0  -9   48.62    1.67
  -2   0   9   49.20    1.74
   1   0  -9   45.50    1.55
   1   0  -9   48.07    1.53
   1   0  -9   46.51    1.62
   1   0  -9   48.60    1.37
   1   0  -9   45.69    1.57
   1   0  -9   49.17    1.59
  -1   0   9   44.48    1.63
   0   0  -9    2.45    0.31
   0   0  -9    2.59    0.26
   0   0  -9    1.91    0.26
   0   0  -9    2.41    0.31
   0   0  -9    1.81    0.22
   0   0   9    2.20    0.21
   0   0   9    2.50    0.29
  -1   0  -9    1.08    0.29
  -1   0  -9    1.46    0.24
  -1   0  -9    1.13    0.25
  -1   0  -9    1.11    0.21
  -1   0  -9    1.32    0.29
   1   0   9    0.88    0.24
   1   0   9    1.35    0.19
   1   0   9    1.55    0.30
  -2   0  -9    4.91    0.39
  -2   0  -9    4.47    0.35
  -2   0  -9    4.03    0.34
  -2   0  -9    3.92    0.34
  -2   0  -9    4.10    0.38
   2   0   9    4.42    0.30
   2   0   9    5.18    0.43
   2   0   9    3.69    0.39
  -3   0  -9    5.50    0.48
  -3   0  -9    5.70    0.37
  -3   0  -9    5.53    0.41
  -3   0  -9    6.17    0.48
  -4   0  -9    2.00    0.31
  -4   0  -9    1.64    0.37
  -4   0  -9    1.41    0.33
  -5   0  -9   19.40    0.91
  -5   0  -9   20.76    0.91
   5   0   9   21.66    0.96
  -6   0  -9    3.52    0.44
  -6   0  -9    3.91    0.41
  -7   0  -9    6.44    0.61
  -8   0  -9    3.63    0.53
  -9   0  -9    6.19    0.71
 -10   0  -9    6.87    0.78
 -11   1   9    1.83    0.67
 -10   1   9    0.58    0.59
   9  -1  -9    0.01    0.47
  -9   1   9    0.57    0.57
   8  -1  -9    1.50    0.42
  -8   1   9    1.58    0.52
   7  -1  -9    1.27    0.35
   7  -1  -9    1.13    0.40
   6  -1  -9   24.14    1.02
   6  -1  -9   24.29    0.99
   6  -1  -9   23.80    1.01
   5  -1  -9   31.83    1.19
   5  -1  -9   31.18    1.18
   5  -1  -9   30.39    1.19
  -5   1   9   29.96    1.20
   4  -1  -9   46.31    1.68
   4  -1  -9   47.65    1.68
   4  -1  -9   47.02    1.58
   4  -1  -9   48.69    1.65
   4  -1  -9   48.27    1.43
  -4   1   9   48.04    1.70
   3  -1  -9    0.81    0.22
   3  -1  -9    1.09    0.31
   3  -1  -9    0.64    0.22
   3  -1  -9    1.07    0.31
   3  -1  -9    1.14    0.26
   3  -1  -9    0.79    0.26
   3  -1  -9    0.72    0.25
  -3   1   9    0.90    0.28
  -3   1   9    0.87    0.31
   2  -1  -9    0.64    0.22
   2  -1  -9    0.69    0.23
   2  -1  -9    0.69    0.19
   2  -1  -9    0.56    0.23
   2  -1  -9    0.75    0.27
   2  -1  -9    0.71    0.20
   2  -1  -9    1.03    0.28
  -2   1   9    0.81    0.18
  -2   1   9    0.95    0.29
  -2   1   9    0.54    0.25
   1  -1  -9    6.94    0.35
   1  -1  -9    6.65    0.47
   1  -1  -9    7.42    0.46
   1  -1  -9    7.87    0.51
   1  -1  -9    6.73    0.48
   1  -1  -9    7.40    0.38
  -1   1   9    7.11    0.44
  -1   1   9    7.24    0.37
  -1   1   9    7.05    0.50
   0  -1  -9   38.56    1.37
   0  -1  -9   40.45    1.33
   0  -1  -9   39.04    1.40
   0  -1  -9   39.60    1.37
   0  -1  -9   41.78    1.18
   0   1   9   40.87    1.17
   0   1   9   38.93    1.41
   0   1   9   40.50    1.39
  -1  -1  -9    0.34    0.19
  -1  -1  -9    1.28    0.24
  -1  -1  -9    0.57    0.22
  -1  -1  -9    0.64    0.26
  -1  -1  -9    0.28    0.25
   1   1   9    0.90    0.28
   1   1   9    0.52    0.18
   1   1   9    0.54    0.23
   1   1   9    0.36    0.14
  -2  -1  -9   15.83    0.71
  -2  -1  -9   16.31    0.59
  -2  -1  -9   17.15    0.72
  -2  -1  -9   15.82    0.72
  -2  -1  -9   16.89    0.73
   2   1   9   16.03    0.58
   2   1   9   16.71    0.59
   2   1   9   17.40    0.75
   2   1   9   16.38    0.74
  -3  -1  -9    2.22    0.31
  -3  -1  -9    2.30    0.35
  -3  -1  -9    2.41    0.25
  -3  -1  -9    2.39    0.31
   3   1   9    2.31    0.38
  -4  -1  -9   18.56    0.85
  -4  -1  -9   19.27    0.82
  -5  -1  -9   45.28    1.63
  -5  -1  -9   45.27    1.65
   5   1   9   46.69    1.70
  -6  -1  -9   12.83    0.72
   6   1   9   12.73    0.73
  -7  -1  -9    1.40    0.37
  -8  -1  -9   -0.07    0.43
  -9  -1  -9    0.80    0.53
 -10  -1  -9    0.10    0.61
 -11  -1  -9   -0.58    0.70
 -11   2   9    4.42    0.78
 -10   2   9    2.49    0.64
   9  -2  -9    0.98    0.48
  -9   2   9    0.66    0.58
   8  -2  -9   -0.49    0.37
  -8   2   9   -0.06    0.53
   7  -2  -9    0.03    0.30
   6  -2  -9   -0.14    0.28
   6  -2  -9    0.20    0.31
   6  -2  -9   -0.03    0.35
   5  -2  -9    1.63    0.33
   5  -2  -9    1.71    0.39
   5  -2  -9    1.44    0.30
   4  -2  -9   38.06    1.39
   4  -2  -9   39.08    1.32
   4  -2  -9   37.83    1.40
   4  -2  -9   39.01    1.40
  -4   2   9   37.65    1.39
  -4   2   9   38.91    1.42
   3  -2  -9   40.20    1.38
   3  -2  -9   38.96    1.19
   3  -2  -9   40.21    1.41
   3  -2  -9   39.00    1.33
   3  -2  -9   38.23    1.40
  -3   2   9   39.54    1.38
  -3   2   9   37.60    1.41
  -3   2   9   39.65    1.18
   2  -2  -9    4.21    0.37
   2  -2  -9    3.66    0.30
   2  -2  -9    4.03    0.34
   2  -2  -9    4.14    0.32
   2  -2  -9    3.89    0.30
  -2   2   9    3.22    0.32
  -2   2   9    3.48    0.25
  -2   2   9    3.73    0.37
   1  -2  -9   88.22    2.64
   1  -2  -9   83.59    2.69
   1  -2  -9   83.64    2.36
   1  -2  -9   83.44    2.82
   1  -2  -9   83.76    2.69
   1  -2  -9   82.51    2.79
  -1   2   9   83.53    2.35
  -1   2   9   84.26    2.82
  -1   2   9   87.24    2.71
   0  -2  -9    4.98    0.44
   0  -2  -9    5.22    0.32
   0  -2  -9    5.49    0.33
   0  -2  -9    4.88    0.40
   0  -2  -9    5.61    0.25
   0   2   9    4.64    0.31
   0   2   9    4.65    0.36
   0   2   9    4.97    0.44
  -1  -2  -9  108.62    3.37
  -1  -2  -9  115.44    3.03
  -1  -2  -9  110.82    3.58
  -1  -2  -9  100.46    3.41
   1   2   9  110.98    3.02
   1   2   9  106.50    3.43
   1   2   9  112.24    3.60
  -2  -2  -9   37.89    1.33
  -2  -2  -9   37.18    1.12
  -2  -2  -9   36.31    1.27
  -2  -2  -9   37.00    1.31
   2   2   9   36.99    1.19
   2   2   9   38.05    1.32
   2   2   9   36.71    1.10
   2   2   9   36.71    1.31
   2   2   9   37.59    1.34
  -3  -2  -9    9.37    0.45
  -3  -2  -9    9.25    0.58
  -3  -2  -9    8.19    0.55
  -3  -2  -9    8.78    0.53
   3   2   9    9.56    0.59
  -4  -2  -9    3.05    0.39
  -4  -2  -9    2.87    0.32
   4   2   9    2.78    0.41
  -5  -2  -9    1.26    0.34
  -5  -2  -9    1.51    0.32
  -6  -2  -9    0.93    0.33
   6   2   9    0.32    0.34
  -7  -2  -9    0.84    0.35
  -8  -2  -9    3.05    0.50
  -9  -2  -9    2.51    0.58
 -10  -2  -9    0.02    0.59
 -11  -2  -9    1.44    0.72
 -11   3   9    1.18    0.69
 -10   3   9    2.39    0.64
   9  -3  -9   -0.51    0.53
  -9   3   9    0.82    0.56
   8  -3  -9   -0.05    0.37
  -8   3   9   -0.39    0.51
   7  -3  -9    4.53    0.44
   6  -3  -9    6.99    0.55
   5  -3  -9   30.68    1.19
   5  -3  -9   30.46    1.20
   5  -3  -9   31.96    1.21
   4  -3  -9   51.24    1.80
   4  -3  -9   51.40    1.79
   4  -3  -9   50.96    1.76
  -4   3   9   49.20    1.75
  -4   3   9   50.26    1.81
  -4   3   9   52.40    1.50
   3  -3  -9    6.43    0.47
   3  -3  -9    7.05    0.45
   3  -3  -9    7.30    0.51
   3  -3  -9    7.09    0.52
   3  -3  -9    7.73    0.44
  -3   3   9    7.68    0.41
  -3   3   9    8.11    0.49
  -3   3   9    7.13    0.52
   2  -3  -9   41.60    1.49
   2  -3  -9   43.01    1.47
   2  -3  -9   43.60    1.26
   2  -3  -9   43.06    1.50
  -2   3   9   42.51    1.51
  -2   3   9   41.43    1.25
  -2   3   9   43.12    1.47
   1  -3  -9   97.00    2.67
   1  -3  -9   93.55    3.15
   1  -3  -9   97.96    3.03
  -1   3   9   96.30    3.18
  -1   3   9   92.69    3.04
  -1   3   9   97.58    2.66
   0  -3  -9   23.07    0.89
   0  -3  -9   23.26    0.77
   0  -3  -9   22.77    0.88
   0  -3  -9   23.93    0.91
   0  -3  -9   23.31    0.75
   0   3   9   23.28    0.75
   0   3   9   23.51    0.91
   0   3   9   23.20    0.89
  -1  -3  -9    1.88    0.24
  -1  -3  -9    2.38    0.31
  -1  -3  -9    2.26    0.21
   1   3   9    1.86    0.20
   1   3   9    2.14    0.30
   1   3   9    1.88    0.25
  -2  -3  -9    9.98    0.43
  -2  -3  -9   10.23    0.54
  -2  -3  -9    9.83    0.54
   2   3   9   10.15    0.56
   2   3   9   10.91    0.44
   2   3   9   10.92    0.52
   2   3   9   10.28    0.54
   2   3   9    9.77    0.57
  -3  -3  -9    2.40    0.34
  -3  -3  -9    1.31    0.21
  -3  -3  -9    1.79    0.26
   3   3   9    1.56    0.25
   3   3   9    1.06    0.20
   3   3   9    1.81    0.34
   3   3   9    1.47    0.24
  -4  -3  -9    2.90    0.40
  -4  -3  -9    2.80    0.32
   4   3   9    3.35    0.41
  -5  -3  -9   11.33    0.65
   5   3   9   12.17    0.71
  -6  -3  -9    7.84    0.59
   6   3   9    7.28    0.56
  -7  -3  -9    6.94    0.58
   7   3   9    7.38    0.57
  -8  -3  -9   18.36    0.92
  -9  -3  -9    4.75    0.58
 -10  -3  -9    3.15    0.63
 -11  -3  -9    2.09    0.71
 -11   4   9    3.69    0.81
 -10   4   9    5.17    0.74
   9  -4  -9   -0.02    0.46
  -9   4   9   -0.67    0.55
   8  -4  -9    0.48    0.39
  -8   4   9    1.25    0.54
   7  -4  -9    4.04    0.43
   6  -4  -9    2.65    0.37
   5  -4  -9   12.88    0.66
   5  -4  -9   12.17    0.66
  -5   4   9   11.60    0.71
   4  -4  -9   15.73    0.71
   4  -4  -9   14.58    0.73
   4  -4  -9   15.90    0.75
  -4   4   9   14.65    0.59
  -4   4   9   14.81    0.74
  -4   4   9   13.72    0.74
   3  -4  -9    0.89    0.32
   3  -4  -9    0.73    0.25
   3  -4  -9    0.73    0.27
  -3   4   9    0.72    0.32
  -3   4   9    0.56    0.21
  -3   4   9    0.84    0.30
   2  -4  -9    4.34    0.38
   2  -4  -9    4.48    0.39
  -2   4   9    4.50    0.33
  -2   4   9    4.66    0.40
  -2   4   9    4.69    0.40
   1  -4  -9   21.09    0.82
   1  -4  -9   20.73    0.79
   1  -4  -9   19.24    0.79
  -1   4   9   18.97    0.79
  -1   4   9   19.67    0.80
  -1   4   9   20.04    0.65
   0  -4  -9   50.44    1.56
   0  -4  -9   46.67    1.59
   0  -4  -9   44.47    1.58
   0   4   9   40.48    1.53
   0   4   9   46.87    1.33
   0   4   9   46.91    1.60
  -1  -4  -9    5.46    0.40
  -1  -4  -9    5.14    0.43
   1   4   9    5.25    0.36
   1   4   9    4.68    0.31
   1   4   9    5.19    0.43
  -2  -4  -9    1.21    0.28
  -2  -4  -9    1.38    0.24
   2   4   9    1.59    0.29
   2   4   9    1.55    0.31
   2   4   9    1.44    0.20
   2   4   9    1.63    0.22
   2   4   9    1.54    0.24
  -3  -4  -9   27.36    1.05
  -3  -4  -9   27.87    1.06
   3   4   9   28.01    1.03
   3   4   9   26.92    1.05
   3   4   9   27.31    0.87
   3   4   9   28.72    1.01
  -4  -4  -9   20.72    0.87
  -4  -4  -9   20.69    0.88
   4   4   9   20.18    0.87
   4   4   9   22.88    0.89
   4   4   9   21.42    0.84
  -5  -4  -9   45.05    1.60
   5   4   9   43.64    1.58
  -6  -4  -9   18.33    0.83
   6   4   9   17.37    0.86
   6   4   9   16.79    0.81
  -7  -4  -9   10.53    0.69
   7   4   9    9.03    0.60
  -8  -4  -9    5.15    0.51
  -9  -4  -9    2.31    0.53
 -10  -4  -9    0.63    0.59
 -11  -4  -9    1.25    0.71
 -10   5   9    1.36    0.66
  -9   5   9    0.14    0.55
   8  -5  -9    4.61    0.52
  -8   5   9    3.00    0.58
   7  -5  -9    3.17    0.42
   6  -5  -9    4.42    0.41
   5  -5  -9    1.17    0.30
   5  -5  -9    0.37    0.33
  -5   5   9    0.99    0.37
   4  -5  -9    0.88    0.26
   4  -5  -9    0.44    0.30
  -4   5   9    0.53    0.24
  -4   5   9    0.59    0.35
   3  -5  -9   35.20    1.27
   3  -5  -9   35.24    1.27
  -3   5   9   33.88    1.31
  -3   5   9   33.93    1.26
  -3   5   9   34.85    1.07
   2  -5  -9   12.58    0.61
   2  -5  -9   12.25    0.62
   2  -5  -9   12.18    0.58
  -2   5   9   11.60    0.49
  -2   5   9   11.70    0.62
  -2   5   9   12.34    0.61
  -2   5   9   12.60    0.62
   1  -5  -9  150.52    4.54
   1  -5  -9  140.55    4.78
   1  -5  -9  148.47    4.75
  -1   5   9  145.57    4.53
  -1   5   9  143.50    4.01
  -1   5   9  144.34    4.79
  -1   5   9  153.42    4.55
   0  -5  -9   25.67    0.94
   0  -5  -9   23.75    0.92
   0  -5  -9   24.02    0.92
   0   5   9   23.51    0.93
   0   5   9   25.14    0.77
   0   5   9   24.64    0.93
   0   5   9   24.59    0.93
  -1  -5  -9    3.44    0.31
  -1  -5  -9    4.20    0.36
  -1  -5  -9    3.12    0.27
   1   5   9    3.49    0.25
   1   5   9    4.00    0.35
   1   5   9    3.21    0.33
   1   5   9    3.24    0.31
  -2  -5  -9   15.79    0.71
  -2  -5  -9   17.97    0.75
   2   5   9   17.35    0.60
   2   5   9   16.62    0.72
   2   5   9   16.93    0.71
   2   5   9   17.70    0.74
   2   5   9   16.44    0.73
   2   5   9   17.28    0.70
  -3  -5  -9   11.28    0.58
  -3  -5  -9   11.76    0.62
   3   5   9   11.49    0.48
   3   5   9   11.60    0.62
   3   5   9   10.79    0.53
   3   5   9   11.30    0.60
   3   5   9   11.87    0.63
  -4  -5  -9   21.08    0.88
   4   5   9   21.18    0.73
   4   5   9   21.27    0.91
   4   5   9   20.78    0.84
   4   5   9   22.03    0.87
   4   5   9   22.13    0.73
  -5  -5  -9    2.66    0.34
   5   5   9    2.85    0.29
   5   5   9    2.32    0.40
   5   5   9    2.37    0.25
  -6  -5  -9    3.65    0.38
   6   5   9    2.88    0.38
   6   5   9    2.78    0.43
  -7  -5  -9    0.59    0.30
   7   5   9   -0.16    0.29
   7   5   9   -0.03    0.35
  -8  -5  -9    1.47    0.38
  -9  -5  -9    1.54    0.46
 -10  -5  -9    3.52    0.63
 -11  -5  -9   16.00    1.06
 -10   6   9    1.07    0.66
  -9   6   9    2.83    0.62
   8  -6  -9    1.13    0.43
  -8   6   9    1.01    0.54
   7  -6  -9    3.93    0.43
  -7   6   9    2.29    0.53
   6  -6  -9    0.81    0.29
  -6   6   9    0.03    0.35
   5  -6  -9    0.46    0.28
  -5   6   9    0.03    0.35
   4  -6  -9    7.57    0.52
  -4   6   9    7.80    0.45
  -4   6   9    8.15    0.57
   3  -6  -9    7.85    0.52
  -3   6   9    7.45    0.54
  -3   6   9    8.12    0.44
  -3   6   9    6.11    0.52
   2  -6  -9   20.70    0.87
   2  -6  -9   21.70    0.88
   2  -6  -9   21.00    0.87
  -2   6   9   21.28    0.72
  -2   6   9   21.74    0.90
  -2   6   9   22.48    0.84
  -2   6   9   22.90    0.90
  -2   6   9   21.61    0.88
   1  -6  -9   14.43    0.63
   1  -6  -9   14.87    0.63
  -1   6   9   14.94    0.54
  -1   6   9   14.52    0.67
  -1   6   9   14.05    0.64
  -1   6   9   13.35    0.66
  -1   6   9   14.46    0.66
   0  -6  -9    9.51    0.52
   0  -6  -9    9.19    0.47
   0   6   9    9.08    0.54
   0   6   9    9.09    0.54
   0   6   9    9.69    0.42
   0   6   9    8.60    0.51
   0   6   9    9.47    0.48
  -1  -6  -9   29.16    1.06
  -1  -6  -9   27.83    1.06
  -1  -6  -9   29.12    0.94
   1   6   9   30.27    1.08
   1   6   9   29.37    1.07
   1   6   9   29.21    1.03
   1   6   9   29.25    1.07
   1   6   9   29.46    0.90
  -2  -6  -9   -0.16    0.18
   2   6   9    0.21    0.19
   2   6   9    0.21    0.19
   2   6   9    0.13    0.19
   2   6   9    0.36    0.28
   2   6   9    0.32    0.29
   2   6   9    0.21    0.19
   2   6   9    0.13    0.28
  -3  -6  -9    0.46    0.23
   3   6   9    0.26    0.21
   3   6   9   -0.06    0.27
   3   6   9    0.43    0.22
   3   6   9    0.42    0.21
   3   6   9    0.49    0.20
   3   6   9    0.48    0.28
  -4  -6  -9   14.18    0.67
   4   6   9   15.03    0.71
   4   6   9   14.80    0.55
   4   6   9   14.71    0.71
   4   6   9   14.59    0.56
   4   6   9   14.18    0.63
  -5  -6  -9   28.36    1.08
   5   6   9   29.37    1.07
   5   6   9   27.59    0.97
   5   6   9   26.69    1.04
   5   6   9   28.13    1.10
  -6  -6  -9    3.20    0.36
   6   6   9    3.98    0.36
   6   6   9    2.47    0.42
  -7  -6  -9    3.76    0.40
   7   6   9    3.20    0.45
  -8  -6  -9   18.45    0.89
   8   6   9   15.05    0.84
  -9  -6  -9   12.07    0.85
 -10  -6  -9    5.42    0.63
 -11  -6  -9    3.80    0.71
 -10   7   9    9.46    0.91
  -9   7   9   13.04    1.01
   8  -7  -9    4.69    0.56
  -8   7   9    4.29    0.61
   7  -7  -9   11.20    0.70
  -7   7   9   11.53    0.93
   6  -7  -9    0.47    0.31
  -6   7   9    0.71    0.37
   5  -7  -9    1.08    0.30
  -5   7   9    1.05    0.38
   4  -7  -9   12.08    0.66
  -4   7   9   12.67    0.56
  -4   7   9   11.92    0.67
   3  -7  -9   -0.22    0.24
   3  -7  -9   -0.03    0.24
  -3   7   9    0.23    0.23
  -3   7   9    0.14    0.34
   2  -7  -9    3.90    0.32
   2  -7  -9    4.26    0.41
  -2   7   9    4.73    0.32
  -2   7   9    4.16    0.42
  -2   7   9    3.89    0.29
  -2   7   9    4.06    0.38
  -2   7   9    4.20    0.40
   1  -7  -9   -0.02    0.18
   1  -7  -9    0.00    0.23
  -1   7   9    0.09    0.26
  -1   7   9   -0.05    0.20
  -1   7   9    0.18    0.30
  -1   7   9    0.07    0.19
  -1   7   9    0.19    0.27
   0  -7  -9    0.82    0.19
   0  -7  -9    0.46    0.22
   0   7   9    0.39    0.19
   0   7   9    0.84    0.27
   0   7   9    0.70    0.24
   0   7   9    0.54    0.21
   0   7   9    0.79    0.27
  -1  -7  -9   25.53    0.96
  -1  -7  -9   24.40    0.97
  -1  -7  -9   25.94    0.87
   1   7   9   24.87    0.97
   1   7   9   26.08    0.97
   1   7   9   26.94    0.96
   1   7   9   26.04    0.81
   1   7   9   25.88    0.93
  -2  -7  -9   15.43    0.54
  -2  -7  -9   15.45    0.64
  -2  -7  -9   15.29    0.68
   2   7   9   15.47    0.67
   2   7   9   15.47    0.57
   2   7   9   14.92    0.70
   2   7   9   15.14    0.65
   2   7   9   15.51    0.71
  -3  -7  -9   20.24    0.86
   3   7   9   21.55    0.86
   3   7   9   20.92    0.72
   3   7   9   21.96    0.82
   3   7   9   22.89    0.85
   3   7   9   21.26    0.87
   3   7   9   20.91    0.86
  -4  -7  -9   -0.22    0.23
   4   7   9   -0.04    0.31
   4   7   9    0.30    0.18
   4   7   9    0.31    0.31
   4   7   9    0.19    0.24
   4   7   9    0.23    0.21
   4   7   9    0.27    0.21
  -5  -7  -9   10.83    0.62
   5   7   9   10.78    0.64
   5   7   9   10.39    0.53
   5   7   9   11.88    0.67
  -6  -7  -9   20.08    0.85
   6   7   9   18.96    0.87
  -7  -7  -9   11.08    0.64
   7   7   9   10.97    0.67
  -8  -7  -9    6.52    0.57
   8   7   9    5.47    0.54
  -9  -7  -9    0.86    0.40
   9   7   9    0.92    0.44
 -10  -7  -9    1.26    0.49
 -11  -7  -9    0.61    0.61
 -10   8   9   13.27    1.11
  -9   8   9    1.56    0.68
  -8   8   9    0.66    0.52
   7  -8  -9    1.73    0.39
  -7   8   9    1.24    0.49
  -7   8   9    1.14    0.41
   6  -8  -9    2.19    0.35
  -6   8   9    2.76    0.43
   5  -8  -9    6.66    0.50
  -5   8   9    6.64    0.59
   4  -8  -9    0.15    0.26
  -4   8   9    0.25    0.25
  -4   8   9   -0.30    0.35
   3  -8  -9   20.02    0.88
   3  -8  -9   20.14    0.83
  -3   8   9   21.05    0.73
  -3   8   9   18.76    0.87
   2  -8  -9   16.19    0.72
   2  -8  -9   16.49    0.76
  -2   8   9   17.17    0.76
  -2   8   9   16.76    0.62
  -2   8   9   17.13    0.74
  -2   8   9   17.22    0.76
  -2   8   9   16.43    0.79
   1  -8  -9   14.47    0.67
   1  -8  -9   14.95    0.65
  -1   8   9   15.62    0.72
  -1   8   9   15.12    0.68
  -1   8   9   13.93    0.65
  -1   8   9   13.92    0.67
  -1   8   9   14.54    0.55
   0  -8  -9   33.94    1.23
   0  -8  -9   33.54    1.24
   0   8   9   34.42    1.27
   0   8   9   34.50    1.21
   0   8   9   34.41    1.18
   0   8   9   33.31    1.03
   0   8   9   35.67    1.20
  -1  -8  -9   21.18    0.73
  -1  -8  -9   19.61    0.79
  -1  -8  -9   21.07    0.82
   1   8   9   20.80    0.81
   1   8   9   19.53    0.81
   1   8   9   19.77    0.81
   1   8   9   20.31    0.81
   1   8   9   19.87    0.68
  -2  -8  -9    2.05    0.26
  -2  -8  -9    2.25    0.20
  -2  -8  -9    1.78    0.25
   2   8   9    1.77    0.25
   2   8   9    2.15    0.31
   2   8   9    2.25    0.24
   2   8   9    2.36    0.26
   2   8   9    2.26    0.32
  -3  -8  -9    9.31    0.55
   3   8   9    9.31    0.56
   3   8   9   10.16    0.45
   3   8   9    9.16    0.48
   3   8   9    9.63    0.59
   3   8   9    9.57    0.59
   3   8   9    9.72    0.59
  -4  -8  -9    1.79    0.27
   4   8   9    1.77    0.24
   4   8   9    2.28    0.24
   4   8   9    1.80    0.22
   4   8   9    1.34    0.25
   4   8   9    1.52    0.33
   4   8   9    1.67    0.34
   4   8   9    2.03    0.28
  -5  -8  -9   14.27    0.67
   5   8   9   13.01    0.67
   5   8   9   14.04    0.61
   5   8   9   14.83    0.71
  -6  -8  -9    0.54    0.26
   6   8   9    1.14    0.36
   6   8   9    0.67    0.28
  -7  -8  -9    0.27    0.26
   7   8   9    0.25    0.33
  -8  -8  -9    2.79    0.40
   8   8   9    2.21    0.44
  -9  -8  -9    3.69    0.45
   9   8   9    2.60    0.46
 -10  -8  -9    2.04    0.51
  10   8   9    0.59    0.45
 -11  -8  -9    6.40    0.69
  -9   9   9    1.74    0.68
  -8   9   9    0.15    0.54
   7  -9  -9   17.28    0.91
  -7   9   9   16.40    1.01
  -7   9   9   16.29    0.88
   6  -9  -9   29.90    1.16
  -6   9   9   30.01    1.17
  -6   9   9   25.83    1.28
   5  -9  -9    3.76    0.38
  -5   9   9    3.38    0.44
   4  -9  -9   -0.23    0.25
  -4   9   9   -0.25    0.34
  -4   9   9   -0.23    0.25
   3  -9  -9    6.13    0.51
   3  -9  -9    4.92    0.43
  -3   9   9    5.79    0.41
  -3   9   9    6.29    0.54
   2  -9  -9   35.00    1.33
   2  -9  -9   35.86    1.28
  -2   9   9   34.37    1.23
  -2   9   9   36.83    1.29
  -2   9   9   35.00    1.10
   1  -9  -9   23.93    0.97
   1  -9  -9   24.88    0.93
  -1   9   9   24.37    1.01
  -1   9   9   22.06    0.93
  -1   9   9   25.00    0.93
  -1   9   9   25.14    0.80
   0  -9  -9   15.61    0.67
   0  -9  -9   15.97    0.69
   0   9   9   15.20    0.74
   0   9   9   16.30    0.58
   0   9   9   16.46    0.69
   0   9   9   15.38    0.71
  -1  -9  -9   17.57    0.73
  -1  -9  -9   18.02    0.74
   1   9   9   17.43    0.61
   1   9   9   17.93    0.77
   1   9   9   16.92    0.76
   1   9   9   17.33    0.75
   1   9   9   17.70    0.74
  -2  -9  -9   13.03    0.57
  -2  -9  -9   12.86    0.63
   2   9   9   11.21    0.60
   2   9   9   13.75    0.60
   2   9   9   13.11    0.52
   2   9   9   13.35    0.63
   2   9   9   14.22    0.64
  -3  -9  -9    1.65    0.24
   3   9   9    1.85    0.32
   3   9   9    0.95    0.24
   3   9   9    1.19    0.22
   3   9   9    1.60    0.24
   3   9   9    1.09    0.29
   3   9   9    1.02    0.24
  -4  -9  -9    1.48    0.25
   4   9   9    1.18    0.25
   4   9   9    1.31    0.33
   4   9   9    1.76    0.27
   4   9   9    1.38    0.23
   4   9   9    1.25    0.31
   4   9   9    1.73    0.23
  -5  -9  -9   26.50    1.03
   5   9   9   24.87    1.01
   5   9   9   27.42    1.03
   5   9   9   26.26    0.86
  -6  -9  -9    7.51    0.52
   6   9   9    6.96    0.53
   6   9   9    6.68    0.43
  -7  -9  -9    1.24    0.29
   7   9   9    1.23    0.35
  -8  -9  -9   13.80    0.75
   8   9   9   13.33    0.75
  -9  -9  -9    6.48    0.54
   9   9   9    5.84    0.56
 -10  -9  -9    6.17    0.61
  10   9   9    4.99    0.58
 -11  -9  -9    9.60    0.90
  11   9   9    7.84    0.75
  -9  10   9   11.23    1.08
  -8  10   9   17.60    0.92
  -8  10   9   16.04    1.11
  -7  10   9   21.90    0.99
  -7  10   9   19.49    1.09
   6 -10  -9    6.87    0.59
  -6  10   9    6.11    0.59
  -6  10   9    6.66    0.59
   5 -10  -9   16.03    0.77
  -5  10   9   15.23    0.78
   4 -10  -9    0.46    0.26
  -4  10   9    0.20    0.34
  -4  10   9    0.22    0.25
   3 -10  -9   -0.07    0.23
  -3  10   9    0.15    0.23
  -3  10   9   -0.46    0.34
   2 -10  -9    0.00    0.23
   2 -10  -9    0.20    0.30
  -2  10   9    0.51    0.23
  -2  10   9    0.09    0.24
  -2  10   9    0.08    0.31
  -2  10   9    0.19    0.31
   1 -10  -9    2.30    0.27
   1 -10  -9    2.50    0.34
  -1  10   9    2.68    0.36
  -1  10   9    2.65    0.35
  -1  10   9    2.25    0.34
  -1  10   9    2.87    0.26
  -1  10   9    2.24    0.28
   0 -10  -9    0.31    0.21
   0 -10  -9    0.35    0.26
   0  10   9    0.60    0.21
   0  10   9    0.31    0.23
   0  10   9    0.28    0.27
   0  10   9    0.42    0.28
   0  10   9    0.48    0.27
  -1 -10  -9    2.92    0.27
  -1 -10  -9    2.97    0.31
  -1 -10  -9    3.32    0.30
   1  10   9    3.71    0.36
   1  10   9    2.99    0.32
   1  10   9    3.15    0.33
   1  10   9    3.24    0.25
   1  10   9    2.78    0.28
  -2 -10  -9   22.00    0.83
  -2 -10  -9   22.55    0.81
  -2 -10  -9   20.31    0.85
   2  10   9   20.90    0.82
   2  10   9   20.79    0.71
   2  10   9   20.96    0.82
   2  10   9   21.02    0.87
   2  10   9   21.84    0.85
  -3 -10  -9   25.92    1.02
  -3 -10  -9   28.22    1.00
  -3 -10  -9   27.59    0.96
   3  10   9   25.90    0.87
   3  10   9   26.99    0.99
   3  10   9   27.55    1.00
   3  10   9   27.15    1.01
   3  10   9   25.94    0.99
   3  10   9   26.90    1.01
  -4 -10  -9    3.64    0.33
   4  10   9    3.35    0.31
   4  10   9    3.72    0.37
   4  10   9    3.50    0.32
   4  10   9    3.33    0.36
   4  10   9    3.45    0.28
  -5 -10  -9    7.78    0.54
   5  10   9    7.33    0.56
   5  10   9    8.42    0.60
   5  10   9    7.77    0.41
   5  10   9    7.41    0.49
  -6 -10  -9    0.37    0.25
   6  10   9    0.42    0.26
   6  10   9    1.28    0.32
  -7 -10  -9    6.69    0.52
   7  10   9    6.84    0.52
   7  10   9    7.43    0.62
  -8 -10  -9    1.96    0.34
   8  10   9    2.46    0.40
  -9 -10  -9    2.40    0.41
   9  10   9    0.63    0.38
 -10 -10  -9    0.50    0.44
  10  10   9   -0.25    0.42
 -11 -10  -9   -0.73    0.51
  11  10   9    0.41    0.51
  -8  11   9    1.58    0.63
  -8  11   9    1.59    0.48
  -7  11   9    1.35    0.54
  -7  11   9    1.15    0.43
   6 -11  -9    1.42    0.36
  -6  11   9    1.24    0.39
  -6  11   9    0.76    0.45
   5 -11  -9    0.43    0.28
  -5  11   9    0.34    0.41
  -5  11   9    0.61    0.37
   4 -11  -9    0.82    0.28
  -4  11   9    1.31    0.35
  -4  11   9    0.72    0.26
   3 -11  -9    2.66    0.31
  -3  11   9    1.69    0.35
  -3  11   9    2.81    0.29
  -3  11   9    2.54    0.39
   2 -11  -9   14.69    0.66
  -2  11   9   14.46    0.68
  -2  11   9   14.82    0.69
  -2  11   9   14.39    0.58
  -2  11   9   14.23    0.70
   1 -11  -9   42.52    1.57
   1 -11  -9   43.24    1.50
  -1  11   9   43.47    1.45
  -1  11   9   42.12    1.29
  -1  11   9   44.70    1.46
  -1  11   9   43.66    1.47
   0 -11  -9   40.65    1.47
   0 -11  -9   40.41    1.42
   0  11   9   42.02    1.39
   0  11   9   40.44    1.21
   0  11   9   40.52    1.37
   0  11   9   41.68    1.38
   0  11   9   40.53    1.51
  -1 -11  -9   27.52    1.06
  -1 -11  -9   27.94    1.05
  -1 -11  -9   28.85    1.04
   1  11   9   28.08    0.88
   1  11   9   28.15    1.00
   1  11   9   28.47    1.11
   1  11   9   28.30    1.00
   1  11   9   28.57    1.04
  -2 -11  -9   31.97    1.15
  -2 -11  -9   31.89    1.15
  -2 -11  -9   32.12    1.15
   2  11   9   32.10    1.14
   2  11   9   32.20    1.10
   2  11   9   31.90    1.19
   2  11   9   31.84    1.10
   2  11   9   29.75    0.97
  -3 -11  -9    6.03    0.41
  -3 -11  -9    6.26    0.40
  -3 -11  -9    5.52    0.46
   3  11   9    5.81    0.41
   3  11   9    5.82    0.42
   3  11   9    6.18    0.52
   3  11   9    5.97    0.53
   3  11   9    5.71    0.38
  -4 -11  -9   12.39    0.62
   4  11   9   12.83    0.66
   4  11   9   13.18    0.62
   4  11   9   13.12    0.52
   4  11   9   12.88    0.60
   4  11   9   12.76    0.67
  -5 -11  -9    3.28    0.30
   5  11   9    2.90    0.34
   5  11   9    2.81    0.31
   5  11   9    3.28    0.36
   5  11   9    2.90    0.26
  -6 -11  -9    0.72    0.25
   6  11   9    0.36    0.30
   6  11   9    0.22    0.26
   6  11   9    0.35    0.30
  -7 -11  -9   -0.10    0.24
   7  11   9    0.63    0.31
   7  11   9   -0.04    0.27
   8  11   9    4.02    0.45
   9  11   9    4.01    0.49
  10  11   9    2.57    0.52
  -8  12   9    2.43    0.55
  -8  12   9    3.43    0.68
  -7  12   9    7.95    0.64
  -7  12   9    7.76    0.70
  -6  12   9    6.78    0.60
  -6  12   9    6.75    0.59
   5 -12  -9   34.77    1.29
  -5  12   9   28.40    1.29
  -5  12   9   33.89    1.26
   4 -12  -9   10.76    0.59
  -4  12   9    9.72    0.63
  -4  12   9    9.61    0.74
  -4  12   9   10.31    0.52
   3 -12  -9   11.79    0.63
  -3  12   9   13.08    0.65
  -3  12   9   12.46    0.54
  -3  12   9   12.24    0.65
   2 -12  -9   13.21    0.61
  -2  12   9   12.73    0.60
  -2  12   9   12.02    0.60
  -2  12   9   12.10    0.53
   1 -12  -9    0.66    0.21
   1 -12  -9    1.36    0.32
  -1  12   9    0.51    0.21
  -1  12   9    0.62    0.25
  -1  12   9    0.38    0.24
  -1  12   9    0.75    0.26
   0 -12  -9    0.14    0.26
   0 -12  -9    0.37    0.29
   0  12   9    0.43    0.20
   0  12   9    0.43    0.23
   0  12   9    0.22    0.22
   0  12   9   -0.04    0.23
  -1 -12  -9   21.34    0.85
  -1 -12  -9   20.69    0.83
   1  12   9   21.29    0.89
   1  12   9   19.69    0.74
   1  12   9   19.58    0.68
   1  12   9   20.05    0.75
   1  12   9   20.99    0.84
  -2 -12  -9    3.01    0.30
  -2 -12  -9    3.14    0.36
   2  12   9    2.85    0.27
   2  12   9    3.23    0.25
   2  12   9    3.51    0.31
   2  12   9    2.73    0.29
  -3 -12  -9    7.20    0.46
   3  12   9    7.68    0.52
   3  12   9    6.48    0.38
   3  12   9    6.42    0.39
   3  12   9    6.09    0.38
   3  12   9    6.20    0.53
   4  12   9    2.71    0.29
   4  12   9    3.48    0.30
   4  12   9    3.03    0.29
   4  12   9    2.90    0.26
   4  12   9    3.19    0.30
   5  12   9    5.66    0.38
   5  12   9    5.81    0.43
   5  12   9    4.98    0.35
   5  12   9    5.75    0.42
   6  12   9    0.41    0.26
   6  12   9    0.54    0.30
   6  12   9    0.33    0.28
   7  12   9    3.42    0.38
   7  12   9    3.32    0.35
   8  12   9    5.37    0.48
   9  12   9    4.56    0.50
  10  12   9    0.08    0.46
  -7  13   9    3.91    0.61
  -7  13   9    3.95    0.58
  -6  13   9   12.99    0.84
  -6  13   9   10.89    0.71
  -5  13   9   13.12    0.76
  -5  13   9   12.27    0.69
  -4  13   9    9.89    0.52
  -4  13   9    9.57    0.60
  -3  13   9   -0.04    0.26
  -3  13   9    0.34    0.24
  -3  13   9    0.15    0.28
  -2  13   9    1.88    0.25
  -2  13   9    1.93    0.28
  -2  13   9    2.14    0.29
  -1  13   9    0.20    0.20
  -1  13   9   -0.12    0.22
  -1  13   9    0.12    0.20
  -1  13   9   -0.23    0.21
  -1  13   9    0.30    0.20
   0 -13  -9   11.30    0.63
   0 -13  -9   11.91    0.63
   0  13   9   12.35    0.61
   0  13   9   12.46    0.47
   0  13   9   11.64    0.47
   0  13   9   11.58    0.49
  -1 -13  -9    1.35    0.28
  -1 -13  -9    1.87    0.33
   1  13   9    1.37    0.21
   1  13   9    1.09    0.25
  -2 -13  -9   17.98    0.78
   2  13   9   17.64    0.63
   2  13   9   18.39    0.78
  -3 -13  -9   19.43    0.79
   3  13   9   18.60    0.66
   3  13   9   19.02    0.79
   3  13   9   18.91    0.79
   4  13   9   14.05    0.67
   4  13   9   13.51    0.65
   4  13   9   12.96    0.50
   4  13   9   12.67    0.52
   4  13   9   12.94    0.50
   5  13   9   21.09    0.77
   5  13   9   21.16    0.77
   5  13   9   23.19    0.89
   5  13   9   21.02    0.73
   6  13   9    6.13    0.41
   6  13   9    6.40    0.58
   6  13   9    6.57    0.43
   7  13   9    2.94    0.37
   7  13   9    3.13    0.35
   7  13   9    2.92    0.33
   8  13   9    0.75    0.36
   8  13   9    0.61    0.32
   9  13   9   -0.10    0.36
  10  13   9   -0.09    0.46
  -7  14   9    1.49    0.55
  -6  14   9    0.37    0.46
  -5  14   9    0.13    0.37
  -4  14   9    3.94    0.40
  -4  14   9    3.56    0.36
  -3  14   9    9.26    0.49
  -3  14   9    8.44    0.47
  -3  14   9    9.73    0.49
  -2  14   9    0.21    0.19
  -2  14   9    0.11    0.19
  -2  14   9    0.59    0.23
  -1  14   9   20.74    0.81
  -1  14   9   18.72    0.69
   0 -14  -9   23.91    1.02
   0  14   9   25.81    0.93
   0  14   9   23.87    0.80
  -1 -14  -9   30.08    1.15
   1  14   9   28.76    1.05
   1  14   9   28.31    0.91
  -2 -14  -9   16.86    0.75
   2  14   9   15.82    0.71
   2  14   9   14.95    0.58
   3  14   9    0.20    0.20
   3  14   9   -0.09    0.23
   3  14   9    0.02    0.22
   4  14   9    1.68    0.27
   4  14   9    2.25    0.28
   4  14   9    1.48    0.23
   5  14   9    5.05    0.38
   5  14   9    5.33    0.36
   6  14   9    0.79    0.29
   7  14   9    0.14    0.20
   7  14   9    0.19    0.20
   7  14   9    0.14    0.32
   8  14   9    0.15    0.26
   8  14   9    0.44    0.24
   8  14   9    0.15    0.37
   9  14   9    1.79    0.32
  -6  15   9    2.59    0.53
  -5  15   9    1.76    0.37
  -4  15   9   17.27    0.69
  -4  15   9   16.66    0.68
  -3  15   9    4.81    0.37
  -3  15   9    4.80    0.29
  -2  15   9    9.54    0.50
  -1  15   9   32.74    1.14
  -1  15   9   30.71    1.01
   0  15   9    6.61    0.49
   0  15   9    6.64    0.40
   1  15   9    3.48    0.28
   1  15   9    3.90    0.32
   2  15   9    0.32    0.23
   2  15   9    0.18    0.21
   3  15   9    0.27    0.22
   3  15   9    0.40    0.25
   3  15   9    0.23    0.25
   4  15   9    0.44    0.25
   4  15   9    0.22    0.21
   4  15   9    0.11    0.26
   5  15   9    3.15    0.35
   5  15   9    3.31    0.29
   5  15   9    3.02    0.32
   6  15   9    4.96    0.42
   7  15   9    5.29    0.46
   8  15   9    6.07    0.51
  -5  16   9    3.10    0.29
  -5  16   9    3.51    0.34
  -3  16   9    0.18    0.30
  -2  16   9    0.06    0.28
  -1  16   9   -0.34    0.25
  -1  16   9   -0.07    0.25
   0  16   9    0.43    0.24
   0  16   9    0.44    0.24
   1  16   9    1.01    0.25
   1  16   9    0.86    0.24
   2  16   9    7.59    0.44
   2  16   9    9.15    0.55
   3  16   9   26.76    0.90
   3  16   9   27.99    1.04
   3  16   9   27.98    1.04
   4  16   9   15.47    0.61
   4  16   9   16.90    0.77
   4  16   9   15.33    0.76
   5  16   9    7.50    0.62
   5  16   9    7.23    0.45
   5  16   9    6.85    0.43
   6  16   9    2.33    0.37
   7  16   9    2.68    0.42
   8  16   9    4.14    0.49
  -3  17   9    2.89    0.38
  -2  17   9    0.21    0.30
  -1  17   9   10.57    0.55
  -1  17   9   10.89    0.66
   0  17   9   15.73    0.73
   0  17   9   13.34    0.59
   1  17   9    9.63    0.49
   1  17   9   10.41    0.61
   2  17   9   10.82    0.52
   2  17   9   12.24    0.64
   3  17   9   11.53    0.66
   3  17   9   10.62    0.63
   3  17   9    9.48    0.51
   4  17   9    7.52    0.44
   4  17   9    7.71    0.63
   4  17   9    7.19    0.58
   5  17   9    2.23    0.35
   5  17   9    1.73    0.35
   5  17   9    2.20    0.29
   6  17   9   -0.21    0.34
   7  17   9    0.01    0.38
  -2  18   9    1.72    0.34
  -1  18   9    1.65    0.32
   0  18   9    5.78    0.42
   0  18   9    5.02    0.37
   1  18   9    2.88    0.35
   1  18   9    3.06    0.32
   2  18   9    0.08    0.30
   2  18   9    0.25    0.31
   2  18   9    0.00    0.26
   3  18   9   -0.32    0.26
   3  18   9   -0.09    0.29
   3  18   9   -0.16    0.30
   4  18   9    2.09    0.34
   4  18   9    3.44    0.39
   4  18   9    2.35    0.30
   5  18   9    3.80    0.43
   5  18   9    4.47    0.41
   1  19   9    1.19    0.34
   2  19   9    3.92    0.38
   2  19   9    3.54    0.38
   3  19   9    4.44    0.39
   3  19   9    5.47    0.42
   3  12 -10   -0.23    0.43
   2  12 -10    1.61    0.46
   1  12 -10   -0.18    0.44
   0  12 -10   -0.37    0.46
   5  11 -10    2.64    0.51
   4  11 -10    0.18    0.43
   3  11 -10   -0.03    0.40
   2  11 -10    3.41    0.46
   1  11 -10    3.29    0.47
   0  11 -10    3.48    0.49
  -1  11 -10    3.05    0.50
  -2  11 -10    7.08    0.62
  -3  11 -10    0.74    0.52
   7  10 -10    4.35    0.57
   6  10 -10    1.06    0.48
   5  10 -10   -0.02    0.44
   4  10 -10    2.47    0.45
   3  10 -10    2.43    0.42
   2  10 -10   11.63    0.76
   1  10 -10    2.23    0.42
   0  10 -10    3.20    0.46
  -1  10 -10    2.99    0.47
  -2  10 -10    2.87    0.49
  -3  10 -10    2.74    0.53
  -4  10 -10    0.53    0.51
   7   9 -10   12.46    0.93
   6   9 -10   12.92    0.88
   5   9 -10    7.25    0.55
   4   9 -10    1.91    0.41
   3   9 -10    5.12    0.45
   2   9 -10    3.51    0.41
   1   9 -10    2.69    0.40
   0   9 -10    0.84    0.37
  -1   9 -10    0.13    0.38
  -2   9 -10    0.88    0.41
  -3   9 -10    2.96    0.49
  -3   9 -10    2.41    0.30
  -3   9 -10    2.15    0.27
  -4   9 -10    8.66    0.65
  -4   9 -10    9.03    0.52
  -4   9 -10    8.20    0.52
  -5   9 -10    3.92    0.47
   8   8 -10    1.72    0.31
   7   8 -10    2.95    0.36
   7   8 -10    3.23    0.48
   7   8 -10    2.57    0.30
   6   8 -10    1.29    0.24
   6   8 -10    1.82    0.42
   6   8 -10    1.27    0.27
   5   8 -10    0.35    0.18
   5   8 -10    0.67    0.38
   4   8 -10    0.80    0.36
   3   8 -10   -0.15    0.32
   2   8 -10   -0.26    0.30
   1   8 -10    2.32    0.36
   0   8 -10   13.24    0.75
  -1   8 -10   10.80    0.70
  -1   8 -10    9.90    0.46
  -1   8 -10    9.50    0.45
  -2   8 -10   13.93    0.79
  -2   8 -10   12.90    0.57
  -2   8 -10   12.02    0.58
  -3   8 -10    2.83    0.44
  -3   8 -10    2.68    0.35
  -3   8 -10    2.26    0.33
  -4   8 -10    4.35    0.45
  -4   8 -10    5.58    0.54
  -5   8 -10    5.18    0.52
  -6   8 -10    3.25    0.55
   9   7 -10   -0.14    0.42
   8   7 -10    0.30    0.37
   7   7 -10    1.79    0.42
   7   7 -10    1.43    0.34
   6   7 -10    1.89    0.31
   6   7 -10    2.55    0.40
   6   7 -10    1.97    0.36
   5   7 -10    7.94    0.51
   5   7 -10    7.67    0.46
   5   7 -10    8.58    0.64
   4   7 -10   24.95    0.97
   4   7 -10   23.25    0.88
   4   7 -10   23.10    0.85
   3   7 -10   12.54    0.68
   3   7 -10   11.65    0.54
   3   7 -10   11.21    0.51
   2   7 -10    0.91    0.23
   2   7 -10    1.24    0.31
   2   7 -10    1.08    0.26
   2   7 -10    0.76    0.23
   1   7 -10    2.93    0.34
   1   7 -10    2.76    0.27
   1   7 -10    2.57    0.29
   1   7 -10    2.62    0.27
   0   7 -10    2.47    0.29
   0   7 -10    2.67    0.35
   0   7 -10    2.89    0.30
  -1   7 -10   15.71    0.79
  -1   7 -10   14.51    0.65
  -1   7 -10   17.17    0.77
  -1   7 -10   14.96    0.66
  -2   7 -10   10.19    0.56
  -2   7 -10   10.38    0.57
  -2   7 -10   11.10    0.63
  -2   7 -10   10.92    0.70
  -3   7 -10    2.87    0.38
  -3   7 -10    1.69    0.36
  -3   7 -10    2.19    0.38
  -3   7 -10    1.86    0.34
  -4   7 -10    0.57    0.35
  -4   7 -10    0.33    0.37
  -4   7 -10   -0.09    0.33
  -5   7 -10    0.31    0.38
  -5   7 -10    0.68    0.44
  -6   7 -10    1.13    0.47
  -6   7 -10    1.84    0.54
  -7   7 -10    3.73    0.68
  -7   7 -10    3.61    0.59
   9   6 -10    1.61    0.48
   8   6 -10    0.75    0.39
   7   6 -10    2.45    0.39
   6   6 -10    1.68    0.36
   6   6 -10    2.06    0.35
   5   6 -10    5.39    0.51
   5   6 -10    5.51    0.43
   5   6 -10    4.95    0.41
   5   6 -10    4.77    0.44
   4   6 -10   19.14    0.78
   4   6 -10   19.32    0.82
   4   6 -10   20.48    0.86
   4   6 -10   20.19    0.86
   3   6 -10   19.70    0.79
   3   6 -10   19.47    0.84
   3   6 -10   20.85    0.84
   3   6 -10   17.97    0.77
   2   6 -10    1.68    0.27
   2   6 -10    1.27    0.30
   2   6 -10    1.71    0.28
   2   6 -10    1.86    0.25
   2   6 -10    1.39    0.31
  -2  -6  10    1.85    0.38
   1   6 -10   -0.11    0.27
   1   6 -10    0.08    0.24
   1   6 -10   -0.01    0.21
   1   6 -10    0.09    0.27
   1   6 -10   -0.11    0.24
  -1  -6  10    0.29    0.30
   0   6 -10    0.24    0.26
   0   6 -10    0.22    0.27
   0   6 -10    0.00    0.23
   0   6 -10   -0.13    0.28
   0   6 -10    0.21    0.21
   0  -6  10    0.47    0.30
  -1   6 -10    0.53    0.28
  -1   6 -10    0.68    0.29
  -1   6 -10    0.72    0.31
  -1   6 -10    0.98    0.31
   1  -6  10    1.24    0.34
  -2   6 -10    5.46    0.47
  -2   6 -10    6.06    0.50
  -2   6 -10    5.38    0.45
  -2   6 -10    6.40    0.53
   2  -6  10    6.80    0.52
  -3   6 -10    9.20    0.65
  -3   6 -10    9.28    0.58
  -3   6 -10    9.78    0.67
  -4   6 -10   14.33    0.80
  -4   6 -10   13.04    0.69
  -4   6 -10   14.45    0.78
  -5   6 -10    3.51    0.48
  -5   6 -10    3.89    0.44
  -6   6 -10    1.75    0.45
  -6   6 -10    1.70    0.51
  -7   6 -10    4.09    0.56
  -7   6 -10    3.95    0.65
  -8   6 -10   11.12    0.87
  -8   6 -10   11.57    1.08
  10   5 -10    2.79    0.59
 -10  -5  10    2.05    0.64
   9   5 -10    0.85    0.46
   9   5 -10    1.16    0.49
  -9  -5  10    0.72    0.56
   8   5 -10    2.25    0.45
   8   5 -10    1.86    0.43
   7   5 -10    4.36    0.47
   7   5 -10    5.25    0.48
   6   5 -10   -0.64    0.32
   6   5 -10   -0.03    0.29
   6   5 -10    0.18    0.32
   5   5 -10    2.74    0.36
   5   5 -10    2.72    0.36
   5   5 -10    3.35    0.41
   5   5 -10    2.26    0.37
   4   5 -10    2.07    0.33
   4   5 -10    2.66    0.32
   4   5 -10    1.96    0.33
   4   5 -10    2.43    0.37
   3   5 -10    1.65    0.34
   3   5 -10    0.82    0.28
   3   5 -10    0.83    0.25
   3   5 -10    0.77    0.26
   3   5 -10    1.19    0.30
   2   5 -10    0.75    0.24
   2   5 -10    0.04    0.28
   2   5 -10    0.43    0.31
   2   5 -10    0.37    0.25
   2   5 -10    0.68    0.27
  -2  -5  10    0.16    0.30
   1   5 -10   12.42    0.64
   1   5 -10   12.37    0.65
   1   5 -10   12.31    0.60
   1   5 -10   11.93    0.63
   1   5 -10   12.25    0.53
  -1  -5  10   12.78    0.65
   0   5 -10    4.73    0.40
   0   5 -10    5.11    0.39
   0   5 -10    4.39    0.32
   0   5 -10    4.39    0.41
   0   5 -10    4.82    0.40
   0  -5  10    5.80    0.47
  -1   5 -10    0.96    0.32
  -1   5 -10    0.59    0.29
  -1   5 -10    1.31    0.24
  -1   5 -10    0.99    0.28
  -1   5 -10    1.27    0.32
   1  -5  10    1.15    0.33
  -2   5 -10   15.35    0.73
  -2   5 -10   15.34    0.71
  -2   5 -10   14.89    0.75
  -2   5 -10   15.51    0.80
   2  -5  10   16.11    0.73
  -3   5 -10   16.22    0.81
  -3   5 -10   16.24    0.77
  -3   5 -10   17.13    0.84
   3  -5  10   17.74    0.77
  -4   5 -10   24.90    1.07
  -4   5 -10   23.47    1.02
  -4   5 -10   27.63    1.08
  -5   5 -10   13.83    0.75
  -5   5 -10   15.68    0.86
  -6   5 -10    1.77    0.49
  -6   5 -10    1.87    0.41
  -7   5 -10    1.22    0.44
  -7   5 -10    2.47    0.56
  -8   5 -10    0.89    0.67
  -8   5 -10    0.57    0.49
  10   4 -10    1.73    0.55
 -10  -4  10    1.71    0.58
   9   4 -10    1.59    0.54
   9   4 -10    1.40    0.48
  -9  -4  10    1.08    0.57
   8   4 -10   -0.19    0.40
   8   4 -10   -0.06    0.37
   7   4 -10    0.53    0.38
   7   4 -10   -0.10    0.33
   6   4 -10    0.86    0.36
   6   4 -10    0.85    0.33
   6   4 -10    0.45    0.31
   5   4 -10   -0.11    0.31
   5   4 -10   -0.24    0.27
   5   4 -10    0.22    0.29
   4   4 -10   10.61    0.61
   4   4 -10   11.73    0.64
   4   4 -10    9.97    0.61
   4   4 -10   10.24    0.61
   3   4 -10   19.30    0.82
   3   4 -10   20.66    0.85
   3   4 -10   19.58    0.85
   3   4 -10   19.81    0.85
   3   4 -10   19.49    0.72
   2   4 -10   26.34    1.03
   2   4 -10   26.74    1.00
   2   4 -10   26.73    0.99
   2   4 -10   24.47    0.99
   2   4 -10   26.45    0.87
  -2  -4  10   25.43    1.01
   1   4 -10   30.60    0.98
   1   4 -10   30.48    1.13
   1   4 -10   30.73    1.12
   1   4 -10   32.27    1.17
   1   4 -10   28.73    1.12
  -1  -4  10   31.30    1.15
   0   4 -10    6.91    0.52
   0   4 -10    7.69    0.53
   0   4 -10    6.34    0.41
   0   4 -10    6.41    0.50
   0   4 -10    6.39    0.58
   0  -4  10    6.72    0.45
  -1   4 -10    3.67    0.40
  -1   4 -10    3.80    0.37
  -1   4 -10    3.23    0.29
  -1   4 -10    3.28    0.38
  -1   4 -10    3.21    0.35
   1  -4  10    3.95    0.38
  -2   4 -10    1.36    0.36
  -2   4 -10    1.14    0.32
  -2   4 -10    1.61    0.34
  -2   4 -10    1.05    0.28
   2  -4  10    1.71    0.33
  -3   4 -10    3.16    0.39
  -3   4 -10    2.92    0.35
  -3   4 -10    3.22    0.39
   3  -4  10    3.27    0.37
  -4   4 -10    3.62    0.42
  -4   4 -10    3.48    0.41
  -4   4 -10    3.96    0.41
  -5   4 -10    0.15    0.32
  -5   4 -10    0.06    0.33
  -6   4 -10    0.25    0.40
  -6   4 -10   -0.23    0.35
  -7   4 -10    1.78    0.45
  -7   4 -10    1.35    0.52
  -8   4 -10    6.29    0.64
  -8   4 -10    6.63    0.73
  -9   4 -10    5.55    0.80
  10   3 -10    2.65    0.56
 -10  -3  10    2.26    0.65
   9   3 -10    9.65    0.84
   9   3 -10    9.63    0.74
  -9  -3  10   10.05    0.92
   8   3 -10    5.16    0.55
   8   3 -10    4.32    0.51
   7   3 -10    0.19    0.36
   7   3 -10   -0.13    0.33
   6   3 -10    7.37    0.58
   6   3 -10    6.94    0.58
   5   3 -10   18.50    0.86
   5   3 -10   20.72    0.86
   5   3 -10   19.27    0.87
   4   3 -10   16.97    0.80
   4   3 -10   17.51    0.82
   4   3 -10   20.25    0.83
   3   3 -10    9.67    0.52
   3   3 -10    9.92    0.59
   3   3 -10    9.95    0.63
   3   3 -10    8.63    0.63
   3   3 -10   10.65    0.60
   2   3 -10   14.18    0.71
   2   3 -10   14.95    0.73
   2   3 -10   14.60    0.69
   2   3 -10   14.95    0.68
   2   3 -10   14.31    0.58
   2   3 -10   14.88    0.69
   1   3 -10   14.40    0.70
   1   3 -10   14.24    0.70
   1   3 -10   11.90    0.66
   1   3 -10   13.50    0.66
   1   3 -10   15.46    0.56
  -1  -3  10   13.37    0.62
   0   3 -10    9.98    0.60
   0   3 -10    8.42    0.56
   0   3 -10    8.20    0.43
   0   3 -10    7.62    0.52
   0   3 -10    6.67    0.53
   0  -3  10    7.86    0.48
  -1   3 -10    2.33    0.28
  -1   3 -10    2.29    0.36
  -1   3 -10    3.41    0.34
  -1   3 -10    3.38    0.35
  -1   3 -10    1.43    0.29
   1  -3  10    2.56    0.33
  -2   3 -10    3.45    0.38
  -2   3 -10    3.48    0.36
  -2   3 -10    3.03    0.38
   2  -3  10    3.67    0.36
  -3   3 -10    0.28    0.32
  -3   3 -10    0.24    0.30
  -3   3 -10    0.58    0.30
   3  -3  10    0.18    0.26
  -4   3 -10   11.27    0.65
  -4   3 -10   10.53    0.64
  -5   3 -10   13.65    0.75
  -5   3 -10   14.93    0.77
  -6   3 -10   18.33    0.97
  -6   3 -10   17.21    0.88
  -7   3 -10   12.08    0.75
  -7   3 -10   11.65    0.84
  -8   3 -10   10.29    0.99
  -9   3 -10    5.11    0.81
  10   2 -10    9.78    0.83
 -10  -2  10    7.02    0.78
   9   2 -10   19.76    1.00
   9   2 -10   21.54    1.07
   8   2 -10   12.16    0.79
   8   2 -10   14.34    0.82
   7   2 -10    4.00    0.46
   7   2 -10    3.76    0.49
   6   2 -10    1.44    0.30
   6   2 -10    1.65    0.35
   6   2 -10    1.85    0.40
   5   2 -10   20.19    0.90
   5   2 -10   20.02    0.86
   5   2 -10   20.35    0.91
   4   2 -10    1.93    0.33
   4   2 -10    1.26    0.36
   4   2 -10    3.01    0.35
   3   2 -10    0.43    0.33
   3   2 -10    0.69    0.27
   3   2 -10    0.15    0.26
   3   2 -10    0.62    0.27
   3   2 -10    0.29    0.33
   3   2 -10    0.04    0.24
  -3  -2  10    0.21    0.30
   2   2 -10    0.22    0.26
   2   2 -10    0.02    0.30
   2   2 -10    0.34    0.31
   2   2 -10    0.19    0.23
   2   2 -10   -0.02    0.26
   2   2 -10    0.33    0.24
  -2  -2  10    0.46    0.30
   1   2 -10    5.43    0.49
   1   2 -10    6.07    0.51
   1   2 -10    5.68    0.39
   1   2 -10    5.94    0.51
   1   2 -10    5.79    0.51
   1   2 -10    5.87    0.39
  -1  -2  10    5.50    0.48
  -1  -2  10    5.28    0.40
   0   2 -10   16.12    0.73
   0   2 -10   15.09    0.71
   0   2 -10   15.24    0.74
   0   2 -10   15.69    0.72
   0   2 -10   15.67    0.60
   0  -2  10   15.81    0.65
  -1   2 -10   39.81    1.43
  -1   2 -10   39.34    1.19
  -1   2 -10   39.43    1.39
  -1   2 -10   38.99    1.37
  -1   2 -10   37.47    1.38
   1  -2  10   38.59    1.34
  -2   2 -10   46.79    1.62
  -2   2 -10   47.21    1.61
  -2   2 -10   46.13    1.67
   2  -2  10   47.44    1.60
  -3   2 -10   20.21    0.90
  -3   2 -10   20.30    0.92
  -3   2 -10   19.24    0.87
   3  -2  10   20.29    0.79
  -4   2 -10    4.01    0.43
  -4   2 -10    4.24    0.42
  -5   2 -10    1.31    0.34
  -5   2 -10    1.35    0.38
  -6   2 -10   18.21    0.93
  -6   2 -10   16.30    0.87
  -7   2 -10   10.28    0.69
  -7   2 -10   10.87    0.81
  -8   2 -10    1.90    0.58
  -9   2 -10    1.19    0.65
 -10   2 -10    1.33    0.75
 -11  -1  10    5.25    0.82
  10   1 -10    2.06    0.66
 -10  -1  10    1.84    0.68
   9   1 -10    0.18    0.51
  -9  -1  10   -0.04    0.61
   8   1 -10    0.17    0.44
   8   1 -10    0.89    0.44
   7   1 -10    1.33    0.41
   7   1 -10    0.59    0.35
   6   1 -10    4.98    0.45
   6   1 -10    5.77    0.52
   6   1 -10    5.84    0.52
   5   1 -10    1.06    0.33
   5   1 -10    0.83    0.39
   5   1 -10    0.68    0.32
   5   1 -10    0.92    0.30
   4   1 -10   19.03    0.85
   4   1 -10   20.76    0.91
   4   1 -10   20.71    0.85
   4   1 -10   20.25    0.89
   3   1 -10    1.55    0.28
   3   1 -10    1.47    0.30
   3   1 -10    1.78    0.29
   3   1 -10    1.66    0.34
   3   1 -10    0.87    0.26
  -3  -1  10    1.32    0.32
   2   1 -10   10.90    0.63
   2   1 -10   11.97    0.64
   2   1 -10   12.12    0.63
   2   1 -10   11.87    0.52
   2   1 -10   10.92    0.54
   2   1 -10    9.77    0.60
  -2  -1  10    9.73    0.60
   1   1 -10   64.44    1.78
   1   1 -10   61.93    2.12
   1   1 -10   59.24    2.02
   1   1 -10   63.19    2.00
   1   1 -10   60.63    2.04
   1   1 -10   60.59    2.03
  -1  -1  10   61.70    2.14
   0   1 -10   37.98    1.36
   0   1 -10   39.36    1.16
   0   1 -10   40.04    1.34
   0   1 -10   38.25    1.38
   0   1 -10   34.97    1.34
   0  -1  10   38.76    1.41
   0  -1  10   38.26    1.30
  -1   1 -10   21.11    0.90
  -1   1 -10   22.79    0.75
  -1   1 -10   22.09    0.91
  -1   1 -10   23.03    0.90
  -1   1 -10   20.65    0.88
   1  -1  10   22.67    0.82
  -2   1 -10    6.36    0.49
  -2   1 -10    5.32    0.41
  -2   1 -10    5.61    0.46
  -2   1 -10    5.29    0.39
   2  -1  10    5.71    0.38
  -3   1 -10    5.26    0.43
  -3   1 -10    5.46    0.47
  -3   1 -10    5.13    0.43
  -4   1 -10    7.77    0.57
  -4   1 -10    6.84    0.57
  -5   1 -10    0.85    0.32
  -5   1 -10    0.23    0.36
  -6   1 -10    4.55    0.49
  -6   1 -10    4.17    0.46
  -7   1 -10    0.42    0.47
  -8   1 -10    9.51    0.85
  -9   1 -10    4.68    0.70
 -10   1 -10   13.02    1.16
 -11   0  10    0.79    0.74
  10   0 -10   -0.45    0.56
 -10   0  10    0.38    0.67
   9   0 -10    0.55    0.52
  -9   0  10   -0.40    0.62
   8   0 -10    2.75    0.48
   7   0 -10   35.18    1.38
   7   0 -10   33.87    1.35
   6   0 -10   29.41    1.16
   6   0 -10   31.69    1.22
   6   0 -10   28.48    1.19
   5   0 -10   47.16    1.68
   5   0 -10   45.64    1.68
   5   0 -10   47.16    1.66
   4   0 -10   25.49    0.98
   4   0 -10   25.52    1.03
   4   0 -10   26.03    1.04
   4   0 -10   24.73    1.03
   4   0 -10   28.70    1.02
  -4   0  10   25.25    1.04
   3   0 -10   30.24    0.94
   3   0 -10   29.38    1.09
   3   0 -10   28.67    1.10
   3   0 -10   26.99    1.10
   3   0 -10   28.53    1.05
   3   0 -10   28.58    1.10
  -3   0  10   28.70    1.12
   2   0 -10   27.89    1.08
   2   0 -10   26.55    1.06
   2   0 -10   28.42    1.04
   2   0 -10   26.50    1.04
   2   0 -10   28.53    1.00
   2   0 -10   28.43    0.90
  -2   0  10   26.67    1.07
   1   0 -10   -0.01    0.25
   1   0 -10   -0.05    0.21
   1   0 -10    0.26    0.24
   1   0 -10    0.22    0.21
   1   0 -10   -0.16    0.28
   1   0 -10   -0.02    0.27
  -1   0  10   -0.44    0.26
   0   0 -10    0.29    0.28
   0   0 -10    0.35    0.26
   0   0 -10    0.01    0.26
   0   0 -10   -0.03    0.21
   0   0 -10    0.39    0.24
   0   0  10    0.30    0.27
   0   0  10    0.16    0.20
  -1   0 -10    3.33    0.38
  -1   0 -10    3.90    0.34
  -1   0 -10    3.62    0.33
  -1   0 -10    3.60    0.28
  -1   0 -10    3.40    0.39
   1   0  10    3.65    0.28
   1   0  10    3.11    0.35
  -2   0 -10    1.21    0.28
  -2   0 -10    1.16    0.30
  -2   0 -10    0.70    0.22
  -2   0 -10    0.83    0.31
   2   0  10    0.61    0.21
  -3   0 -10    8.12    0.60
  -3   0 -10    8.13    0.56
  -3   0 -10    8.40    0.63
  -4   0 -10   23.65    0.99
  -4   0 -10   22.64    0.97
  -5   0 -10   22.98    0.99
  -5   0 -10   22.20    0.97
  -6   0 -10    4.73    0.49
  -6   0 -10    3.96    0.44
  -7   0 -10    3.59    0.52
  -8   0 -10    5.96    0.64
  -9   0 -10    5.76    0.71
 -10   0 -10    8.97    0.87
 -11   1  10    2.63    0.74
  10  -1 -10    8.17    0.80
 -10   1  10    5.52    0.75
   9  -1 -10    2.85    0.55
  -9   1  10    2.01    0.63
   8  -1 -10   12.23    0.85
   7  -1 -10    4.24    0.45
   6  -1 -10    4.50    0.45
   6  -1 -10    4.81    0.51
   5  -1 -10   10.76    0.67
   5  -1 -10   10.00    0.67
   5  -1 -10   10.75    0.60
   4  -1 -10    7.46    0.54
   4  -1 -10    7.59    0.61
   4  -1 -10    7.36    0.50
   4  -1 -10    7.78    0.57
   4  -1 -10    6.97    0.46
   3  -1 -10   -0.04    0.25
   3  -1 -10    0.42    0.25
   3  -1 -10    0.22    0.26
   3  -1 -10    0.04    0.23
   3  -1 -10    0.53    0.33
   3  -1 -10    0.06    0.23
  -3   1  10    0.13    0.30
   2  -1 -10    0.82    0.33
   2  -1 -10    0.64    0.26
   2  -1 -10    0.23    0.25
   2  -1 -10    1.28    0.32
   2  -1 -10    0.75    0.21
   2  -1 -10    0.71    0.23
   2  -1 -10    0.59    0.24
  -2   1  10    0.68    0.33
  -2   1  10    0.82    0.29
   1  -1 -10    0.32    0.28
   1  -1 -10   -0.04    0.20
   1  -1 -10    0.07    0.18
   1  -1 -10    0.05    0.24
   1  -1 -10   -0.26    0.26
   1  -1 -10   -0.14    0.21
  -1   1  10    0.07    0.26
  -1   1  10    0.54    0.32
   0  -1 -10    8.85    0.58
   0  -1 -10    9.20    0.53
   0  -1 -10    8.19    0.54
   0  -1 -10    7.74    0.51
   0  -1 -10    8.58    0.43
   0   1  10    8.58    0.51
   0   1  10    8.34    0.56
  -1  -1 -10   14.53    0.55
  -1  -1 -10   14.06    0.68
  -1  -1 -10   13.35    0.67
  -1  -1 -10   15.34    0.69
  -1  -1 -10   14.39    0.68
   1   1  10   14.62    0.66
   1   1  10   13.23    0.69
   1   1  10   13.68    0.51
   1   1  10   12.81    0.53
  -2  -1 -10   39.93    1.37
  -2  -1 -10   36.75    1.39
  -2  -1 -10   41.25    1.21
  -2  -1 -10   40.59    1.43
   2   1  10   39.06    1.18
   2   1  10   39.15    1.42
   2   1  10   40.40    1.30
   2   1  10   38.97    1.43
   2   1  10   39.11    1.42
  -3  -1 -10   24.56    0.99
  -3  -1 -10   24.23    0.98
  -3  -1 -10   23.23    0.98
  -4  -1 -10   14.15    0.74
  -4  -1 -10   13.55    0.71
  -5  -1 -10   16.00    0.78
  -5  -1 -10   14.82    0.80
  -6  -1 -10    0.87    0.34
  -7  -1 -10    0.29    0.40
  -8  -1 -10   -0.84    0.48
  -9  -1 -10    0.77    0.61
 -10  -1 -10    0.03    0.70
 -11   2  10   11.07    1.05
 -10   2  10    5.94    0.75
   9  -2 -10    1.78    0.53
  -9   2  10    1.31    0.62
   8  -2 -10   13.51    0.88
   7  -2 -10    0.02    0.32
   6  -2 -10    2.20    0.36
   5  -2 -10   11.91    0.67
   5  -2 -10   12.42    0.66
   5  -2 -10   11.90    0.71
   4  -2 -10   52.02    1.85
   4  -2 -10   53.11    1.82
   4  -2 -10   52.58    1.85
   3  -2 -10   57.98    1.71
   3  -2 -10   59.84    1.98
   3  -2 -10   58.21    2.02
   3  -2 -10   58.60    1.91
   3  -2 -10   58.61    2.04
  -3   2  10   58.95    1.99
  -3   2  10   58.74    2.04
   2  -2 -10   26.19    0.91
   2  -2 -10   24.48    0.99
   2  -2 -10   24.54    1.00
   2  -2 -10   25.08    0.83
   2  -2 -10   26.13    0.97
   2  -2 -10   25.04    1.00
  -2   2  10   26.52    0.83
  -2   2  10   24.97    1.02
  -2   2  10   26.02    1.00
   1  -2 -10   20.51    0.73
   1  -2 -10   21.18    0.83
   1  -2 -10   20.53    0.83
   1  -2 -10   19.37    0.84
   1  -2 -10   20.98    0.70
   1  -2 -10   20.72    0.85
  -1   2  10   19.84    0.84
  -1   2  10   21.40    0.88
  -1   2  10   20.53    0.69
   0  -2 -10   53.70    1.78
   0  -2 -10   52.96    1.71
   0  -2 -10   53.25    1.54
   0  -2 -10   52.82    1.73
   0  -2 -10   53.88    1.84
   0   2  10   52.83    1.79
   0   2  10   51.67    1.53
   0   2  10   52.75    1.84
  -1  -2 -10   56.57    1.60
  -1  -2 -10   54.14    1.85
  -1  -2 -10   55.73    1.90
  -1  -2 -10   54.87    1.80
   1   2  10   55.22    1.91
   1   2  10   55.62    1.59
   1   2  10   54.87    1.86
  -2  -2 -10   30.45    0.93
  -2  -2 -10   28.84    1.08
  -2  -2 -10   28.54    1.11
  -2  -2 -10   30.28    1.12
   2   2  10   30.14    1.12
   2   2  10   28.73    0.95
   2   2  10   29.03    0.91
   2   2  10   28.96    1.10
  -3  -2 -10    1.61    0.31
  -3  -2 -10    1.38    0.35
  -3  -2 -10    1.38    0.28
   3   2  10    1.46    0.37
  -4  -2 -10    0.14    0.27
  -4  -2 -10   -0.06    0.32
  -5  -2 -10    0.31    0.36
  -5  -2 -10    0.40    0.29
  -6  -2 -10    4.05    0.43
  -7  -2 -10   -0.02    0.36
  -8  -2 -10    8.90    0.82
  -9  -2 -10    2.04    0.57
 -10  -2 -10    1.72    0.66
 -11  -2 -10    4.46    0.81
 -11   3  10    0.01    0.73
 -10   3  10    3.02    0.70
   9  -3 -10    1.16    0.52
  -9   3  10    1.23    0.65
   8  -3 -10   -0.32    0.41
   7  -3 -10    0.58    0.35
   6  -3 -10    4.10    0.42
   5  -3 -10   13.15    0.71
   5  -3 -10   14.83    0.77
   5  -3 -10   13.34    0.70
   4  -3 -10   34.89    1.30
   4  -3 -10   34.97    1.30
   4  -3 -10   33.56    1.29
   3  -3 -10   46.28    1.68
   3  -3 -10   48.14    1.65
   3  -3 -10   46.29    1.67
  -3   3  10   47.82    1.41
  -3   3  10   47.97    1.66
  -3   3  10   48.17    1.70
   2  -3 -10   28.61    1.10
   2  -3 -10   28.94    1.09
   2  -3 -10   29.40    0.92
   2  -3 -10   29.10    1.06
   2  -3 -10   27.59    1.08
  -2   3  10   29.49    1.11
  -2   3  10   28.14    0.91
  -2   3  10   28.73    1.09
   1  -3 -10   35.03    1.28
   1  -3 -10   36.85    1.24
   1  -3 -10   35.94    1.08
   1  -3 -10   35.24    1.29
   1  -3 -10   35.43    1.18
  -1   3  10   35.96    1.08
  -1   3  10   34.76    1.28
  -1   3  10   35.93    1.30
   0  -3 -10    2.98    0.25
   0  -3 -10    2.42    0.35
   0  -3 -10    2.70    0.28
   0  -3 -10    2.55    0.19
   0  -3 -10    2.79    0.29
   0   3  10    2.49    0.30
   0   3  10    2.85    0.24
   0   3  10    2.60    0.33
  -1  -3 -10   -0.08    0.20
  -1  -3 -10    0.18    0.19
  -1  -3 -10    0.30    0.27
   1   3  10    0.07    0.24
   1   3  10    0.24    0.19
   1   3  10    0.05    0.28
  -2  -3 -10    0.07    0.28
  -2  -3 -10   -0.01    0.23
  -2  -3 -10    0.23    0.20
   2   3  10    0.16    0.18
   2   3  10    0.33    0.32
   2   3  10    0.15    0.24
   2   3  10    0.12    0.30
  -3  -3 -10    9.65    0.59
  -3  -3 -10    7.98    0.44
  -3  -3 -10    8.71    0.55
   3   3  10    8.94    0.62
   3   3  10    8.50    0.43
   3   3  10    8.33    0.50
  -4  -3 -10    5.51    0.42
  -4  -3 -10    5.88    0.51
   4   3  10    5.20    0.49
  -5  -3 -10   25.97    1.06
  -6  -3 -10   18.62    0.86
   6   3  10   17.17    0.86
  -7  -3 -10   26.69    1.17
  -8  -3 -10    4.13    0.53
  -9  -3 -10    0.22    0.54
 -10  -3 -10    4.28    0.69
 -11  -3 -10    1.88    0.74
 -10   4  10    6.84    0.80
   9  -4 -10    4.89    0.62
  -9   4  10    4.86    0.73
   8  -4 -10   13.41    0.84
  -8   4  10   13.45    1.06
   7  -4 -10   19.91    0.94
   6  -4 -10    9.46    0.61
   5  -4 -10    0.11    0.27
   4  -4 -10    0.47    0.36
   4  -4 -10    0.45    0.31
   4  -4 -10    0.41    0.26
  -4   4  10    0.49    0.32
   3  -4 -10    1.85    0.29
   3  -4 -10    1.98    0.32
   3  -4 -10    1.95    0.37
  -3   4  10    2.27    0.39
  -3   4  10    1.59    0.24
  -3   4  10    1.49    0.35
   2  -4 -10    0.18    0.19
   2  -4 -10    1.16    0.32
   2  -4 -10    0.56    0.23
  -2   4  10    0.75    0.28
  -2   4  10    0.84    0.33
  -2   4  10    0.64    0.20
   1  -4 -10    5.72    0.46
   1  -4 -10    6.15    0.45
   1  -4 -10    6.05    0.41
  -1   4  10    6.56    0.38
  -1   4  10    6.53    0.47
  -1   4  10    6.06    0.45
   0  -4 -10   39.73    1.43
   0  -4 -10   39.19    1.40
   0  -4 -10   41.39    1.29
   0  -4 -10   41.35    1.43
   0   4  10   41.00    1.20
   0   4  10   36.99    1.39
   0   4  10   41.67    1.44
  -1  -4 -10   23.39    0.90
  -1  -4 -10   22.63    0.88
   1   4  10   21.67    0.73
   1   4  10   20.95    0.86
   1   4  10   20.68    0.88
  -2  -4 -10   60.85    2.11
  -2  -4 -10   63.56    2.06
   2   4  10   61.14    2.12
   2   4  10   62.40    1.99
   2   4  10   63.09    1.78
   2   4  10   60.01    2.05
   2   4  10   62.57    2.06
  -3  -4 -10   25.94    1.02
  -3  -4 -10   25.09    1.00
   3   4  10   26.03    0.99
   3   4  10   24.19    1.02
   3   4  10   25.33    0.98
   3   4  10   25.30    0.83
  -4  -4 -10   32.74    1.26
   4   4  10   32.67    1.23
   4   4  10   35.01    1.28
  -5  -4 -10   32.05    1.22
   5   4  10   31.07    1.24
  -6  -4 -10    1.99    0.34
   6   4  10    1.59    0.36
  -7  -4 -10    3.13    0.43
   7   4  10    2.79    0.41
  -8  -4 -10   -0.25    0.43
  -9  -4 -10    0.17    0.49
 -10  -4 -10   -0.19    0.61
 -11  -4 -10    0.22    0.67
 -10   5  10    3.04    0.74
   9  -5 -10    1.63    0.54
  -9   5  10    0.93    0.61
   8  -5 -10   -0.28    0.40
  -8   5  10    0.10    0.59
   7  -5 -10    0.59    0.36
   6  -5 -10   12.08    0.68
   5  -5 -10    1.63    0.32
  -5   5  10    1.23    0.40
   4  -5 -10    0.92    0.29
   4  -5 -10    1.28    0.32
  -4   5  10    1.44    0.38
   3  -5 -10    2.03    0.30
  -3   5  10    1.55    0.37
  -3   5  10    2.37    0.27
   2  -5 -10   31.96    1.20
   2  -5 -10   27.16    1.18
   2  -5 -10   34.23    1.21
  -2   5  10   33.00    1.23
  -2   5  10   35.71    1.23
  -2   5  10   34.82    1.02
   1  -5 -10  142.54    4.65
   1  -5 -10  148.78    4.46
   1  -5 -10  140.62    4.68
  -1   5  10  144.57    4.44
  -1   5  10  134.70    4.45
  -1   5  10  144.25    4.69
  -1   5  10  144.94    3.92
   0  -5 -10   15.64    0.68
   0  -5 -10   15.70    0.72
   0  -5 -10   15.31    0.72
   0   5  10   16.32    0.72
   0   5  10   14.89    0.72
   0   5  10   16.21    0.69
   0   5  10   14.96    0.56
  -1  -5 -10   42.34    1.53
  -1  -5 -10   45.85    1.53
  -1  -5 -10   44.01    1.54
   1   5  10   43.04    1.51
   1   5  10   43.65    1.30
   1   5  10   42.88    1.51
   1   5  10   44.87    1.55
  -2  -5 -10   14.42    0.71
  -2  -5 -10   14.93    0.71
   2   5  10   14.02    0.69
   2   5  10   14.36    0.71
   2   5  10   14.62    0.69
   2   5  10   15.18    0.71
   2   5  10   13.97    0.65
   2   5  10   14.84    0.56
  -3  -5 -10    6.80    0.51
  -3  -5 -10    7.83    0.56
   3   5  10    6.90    0.55
   3   5  10    6.82    0.45
   3   5  10    7.30    0.41
   3   5  10    7.18    0.56
  -4  -5 -10   11.12    0.65
   4   5  10   13.01    0.68
   4   5  10   12.87    0.71
   4   5  10   12.96    0.61
   4   5  10   12.12    0.45
   4   5  10   12.63    0.53
  -5  -5 -10    2.45    0.35
   5   5  10    2.47    0.42
   5   5  10    2.04    0.29
  -6  -5 -10    1.44    0.32
   6   5  10    1.17    0.40
  -7  -5 -10    1.06    0.34
   7   5  10    1.11    0.35
  -8  -5 -10    1.81    0.44
  -9  -5 -10    4.99    0.59
 -10  -5 -10    6.25    0.73
 -11  -5 -10    3.92    0.73
 -10   6  10    0.31    0.70
   9  -6 -10    3.00    0.61
  -9   6  10    2.06    0.64
   8  -6 -10    3.07    0.51
  -8   6  10    3.22    0.63
   7  -6 -10    4.88    0.50
   6  -6 -10    8.93    0.60
   5  -6 -10    1.73    0.35
  -5   6  10    2.49    0.43
   4  -6 -10    5.39    0.47
   4  -6 -10    5.97    0.50
  -4   6  10    6.29    0.51
   3  -6 -10   23.62    0.94
  -3   6  10   23.13    0.80
  -3   6  10   22.67    0.96
   2  -6 -10   41.94    1.55
   2  -6 -10   43.72    1.53
  -2   6  10   44.58    1.30
  -2   6  10   42.40    1.57
  -2   6  10   44.17    1.53
   1  -6 -10    6.41    0.46
   1  -6 -10    6.91    0.51
   1  -6 -10    7.35    0.54
  -1   6  10    6.94    0.53
  -1   6  10    8.31    0.54
  -1   6  10    7.39    0.40
  -1   6  10    6.72    0.52
  -1   6  10    7.01    0.48
   0  -6 -10    2.57    0.34
   0  -6 -10    2.35    0.26
   0  -6 -10    2.08    0.28
   0   6  10    1.71    0.31
   0   6  10    2.35    0.26
   0   6  10    1.86    0.33
   0   6  10    2.23    0.29
   0   6  10    2.16    0.23
  -1  -6 -10    0.42    0.23
  -1  -6 -10    0.48    0.29
  -1  -6 -10    0.31    0.21
   1   6  10    0.03    0.28
   1   6  10    0.24    0.21
   1   6  10    0.46    0.20
   1   6  10    0.03    0.23
   1   6  10    0.21    0.29
  -2  -6 -10    1.82    0.27
   2   6  10    1.44    0.24
   2   6  10    1.45    0.32
   2   6  10    1.84    0.35
   2   6  10    1.65    0.26
   2   6  10    1.73    0.34
   2   6  10    1.27    0.23
   2   6  10    1.30    0.23
  -3  -6 -10    2.44    0.31
   3   6  10    2.54    0.37
   3   6  10    2.23    0.28
   3   6  10    2.47    0.25
   3   6  10    2.40    0.29
  -4  -6 -10   15.88    0.76
   4   6  10   16.69    0.63
   4   6  10   17.27    0.58
   4   6  10   16.37    0.78
   4   6  10   16.63    0.71
   4   6  10   15.84    0.79
  -5  -6 -10    6.30    0.51
   5   6  10    5.70    0.44
   5   6  10    5.14    0.50
  -6  -6 -10    5.46    0.43
   6   6  10    6.51    0.44
   6   6  10    4.81    0.50
  -7  -6 -10    8.02    0.63
   7   6  10    6.83    0.60
  -8  -6 -10   29.65    1.24
  -9  -6 -10   12.76    0.86
 -10  -6 -10    1.73    0.56
 -11  -6 -10    2.27    0.72
 -10   7  10    7.85    0.88
  -9   7  10   17.20    1.12
   8  -7 -10    7.59    0.72
  -8   7  10    6.08    0.71
   7  -7 -10    6.69    0.58
   6  -7 -10    0.16    0.30
  -6   7  10    0.16    0.36
   5  -7 -10    1.48    0.31
  -5   7  10    0.74    0.38
   4  -7 -10    0.43    0.28
  -4   7  10    1.11    0.38
   3  -7 -10    0.33    0.23
   3  -7 -10    0.28    0.26
  -3   7  10   -0.22    0.23
  -3   7  10   -0.10    0.33
   2  -7 -10    3.00    0.32
   2  -7 -10    2.47    0.34
  -2   7  10    2.54    0.39
  -2   7  10    2.76    0.27
   1  -7 -10   18.50    0.80
   1  -7 -10   18.58    0.78
  -1   7  10   18.99    0.83
  -1   7  10   19.30    0.81
  -1   7  10   19.90    0.80
  -1   7  10   19.11    0.67
  -1   7  10   18.94    0.83
   0  -7 -10    1.40    0.26
   0  -7 -10    1.63    0.24
   0   7  10    1.46    0.25
   0   7  10    1.51    0.23
   0   7  10    1.65    0.34
   0   7  10    1.45    0.28
   0   7  10    1.46    0.31
  -1  -7 -10    6.91    0.44
  -1  -7 -10    6.77    0.51
  -1  -7 -10    7.08    0.30
   1   7  10    6.88    0.45
   1   7  10    7.05    0.54
   1   7  10    7.11    0.50
   1   7  10    7.64    0.52
   1   7  10    6.03    0.39
  -2  -7 -10   37.61    1.38
   2   7  10   39.20    1.35
   2   7  10   38.85    1.37
   2   7  10   36.63    1.30
   2   7  10   39.69    1.17
   2   7  10   38.07    1.36
   2   7  10   37.08    1.35
  -3  -7 -10   19.39    0.82
   3   7  10   19.77    0.83
   3   7  10   19.10    0.68
   3   7  10   19.25    0.83
   3   7  10   19.82    0.85
   3   7  10   18.77    0.79
  -4  -7 -10    6.28    0.49
   4   7  10    6.18    0.40
   4   7  10    6.31    0.43
   4   7  10    5.47    0.39
   4   7  10    6.23    0.53
  -5  -7 -10   23.00    0.97
   5   7  10   23.94    0.97
   5   7  10   24.48    1.02
   5   7  10   23.15    0.92
  -6  -7 -10    7.07    0.58
   6   7  10    7.99    0.58
  -7  -7 -10    6.12    0.48
   7   7  10    5.73    0.54
  -8  -7 -10    5.47    0.51
   8   7  10    4.17    0.53
  -9  -7 -10   -0.31    0.41
 -10  -7 -10    0.45    0.51
 -11  -7 -10    0.22    0.60
 -10   8  10    4.43    0.80
  -9   8  10   14.04    1.16
   8  -8 -10    2.98    0.51
  -8   8  10    1.80    0.64
   7  -8 -10   -0.05    0.39
  -7   8  10   -0.55    0.53
   6  -8 -10    0.86    0.32
  -6   8  10    0.98    0.38
   5  -8 -10    0.94    0.31
  -5   8  10    1.39    0.39
   4  -8 -10    6.56    0.50
  -4   8  10    6.56    0.55
   3  -8 -10    0.33    0.30
   3  -8 -10    0.12    0.25
  -3   8  10   -0.16    0.24
  -3   8  10   -0.24    0.34
   2  -8 -10    0.07    0.29
   2  -8 -10   -0.26    0.21
  -2   8  10    0.21    0.23
  -2   8  10    0.05    0.35
   1  -8 -10   13.33    0.66
   1  -8 -10   13.37    0.62
  -1   8  10   13.47    0.71
  -1   8  10   13.84    0.55
  -1   8  10   13.25    0.70
  -1   8  10   14.62    0.70
  -1   8  10   13.89    0.67
   0  -8 -10   40.57    1.40
   0  -8 -10   37.82    1.40
   0   8  10   38.63    1.38
   0   8  10   38.75    1.37
   0   8  10   39.32    1.34
   0   8  10   39.36    1.17
   0   8  10   39.21    1.43
  -1  -8 -10   52.21    1.65
  -1  -8 -10   48.36    1.75
  -1  -8 -10   49.20    1.75
   1   8  10   49.56    1.70
   1   8  10   51.22    1.71
   1   8  10   52.38    1.77
   1   8  10   50.54    1.68
   1   8  10   50.74    1.48
  -2  -8 -10   46.21    1.60
  -2  -8 -10   46.31    1.61
  -2  -8 -10   45.06    1.48
   2   8  10   47.03    1.61
   2   8  10   46.41    1.53
   2   8  10   47.10    1.57
   2   8  10   43.87    1.36
   2   8  10   45.31    1.57
  -3  -8 -10   10.56    0.61
   3   8  10   10.83    0.63
   3   8  10   11.12    0.61
   3   8  10   10.43    0.65
   3   8  10   11.22    0.65
   3   8  10   11.30    0.54
   3   8  10   10.58    0.49
  -4  -8 -10    0.17    0.25
   4   8  10    0.28    0.30
   4   8  10    0.16    0.20
   4   8  10    0.32    0.22
   4   8  10   -0.10    0.24
  -5  -8 -10   -0.20    0.25
   5   8  10   -0.43    0.26
   5   8  10   -0.27    0.34
   5   8  10   -0.25    0.21
  -6  -8 -10    4.15    0.38
   6   8  10    4.04    0.44
  -7  -8 -10    0.76    0.31
   7   8  10    0.55    0.36
  -8  -8 -10    1.18    0.36
   8   8  10    1.23    0.42
  -9  -8 -10    1.36    0.43
   9   8  10    1.31    0.45
 -10  -8 -10    4.96    0.64
 -11  -8 -10    8.69    0.83
  -9   9  10    2.53    0.74
   8  -9 -10    1.66    0.50
  -8   9  10    0.94    0.61
   7  -9 -10   13.85    0.85
  -7   9  10   11.89    1.01
  -7   9  10   14.13    0.81
   6  -9 -10   16.66    0.82
  -6   9  10   16.82    0.84
   5  -9 -10    6.87    0.52
  -5   9  10    7.89    0.60
   4  -9 -10    3.45    0.36
  -4   9  10    3.32    0.45
   3  -9 -10    1.69    0.28
  -3   9  10    2.41    0.40
  -3   9  10    2.57    0.29
   2  -9 -10    0.49    0.30
   2  -9 -10    0.52    0.24
  -2   9  10    0.44    0.24
  -2   9  10    0.51    0.35
   1  -9 -10    2.97    0.29
   1  -9 -10    2.89    0.35
  -1   9  10    3.53    0.40
  -1   9  10    2.90    0.29
  -1   9  10    2.84    0.35
  -1   9  10    2.51    0.38
  -1   9  10    3.06    0.27
   0  -9 -10   -0.06    0.24
   0  -9 -10    0.30    0.21
   0   9  10   -0.06    0.27
   0   9  10   -0.02    0.23
   0   9  10   -0.48    0.28
   0   9  10   -0.10    0.21
   0   9  10   -0.07    0.20
  -1  -9 -10    2.30    0.26
  -1  -9 -10    2.08    0.24
  -1  -9 -10    2.28    0.29
   1   9  10    2.28    0.34
   1   9  10    2.32    0.28
   1   9  10    1.86    0.30
   1   9  10    2.25    0.25
   1   9  10    2.39    0.34
  -2  -9 -10    0.34    0.23
  -2  -9 -10   -0.07    0.18
  -2  -9 -10    0.37    0.23
   2   9  10   -0.06    0.21
   2   9  10   -0.39    0.22
   2   9  10    0.02    0.28
   2   9  10    0.20    0.13
   2   9  10    0.24    0.23
  -3  -9 -10    1.18    0.27
   3   9  10    1.23    0.25
   3   9  10    1.07    0.25
   3   9  10    1.82    0.25
   3   9  10    1.45    0.33
   3   9  10    1.24    0.24
  -4  -9 -10    0.90    0.26
   4   9  10    1.26    0.24
   4   9  10    1.11    0.28
   4   9  10    1.01    0.23
   4   9  10    1.36    0.32
  -5  -9 -10   10.13    0.61
   5   9  10   11.09    0.68
   5   9  10   10.22    0.49
   5   9  10    9.68    0.61
  -6  -9 -10    0.84    0.27
   6   9  10    0.64    0.34
   6   9  10    0.73    0.28
  -7  -9 -10    5.33    0.43
   7   9  10    4.53    0.48
  -8  -9 -10   11.55    0.71
   8   9  10   10.80    0.70
  -9  -9 -10    4.14    0.51
   9   9  10    4.08    0.52
 -10  -9 -10    5.60    0.62
  10   9  10    5.28    0.60
 -11  -9 -10    3.52    0.67
  -9  10  10    7.36    0.84
  -8  10  10   11.18    0.95
   7 -10 -10   23.52    1.11
  -7  10  10   23.85    1.06
  -7  10  10   20.77    1.20
   6 -10 -10    6.54    0.56
  -6  10  10    5.77    0.54
  -6  10  10    6.91    0.67
   5 -10 -10   40.17    1.51
  -5  10  10   40.35    1.48
   4 -10 -10    1.09    0.27
  -4  10  10    0.58    0.37
   3 -10 -10   -0.05    0.24
  -3  10  10   -0.02    0.24
  -3  10  10   -0.04    0.34
   2 -10 -10    1.77    0.35
   2 -10 -10    2.09    0.28
  -2  10  10    2.03    0.38
  -2  10  10    1.84    0.35
  -2  10  10    2.05    0.27
   1 -10 -10    5.22    0.47
   1 -10 -10    4.99    0.43
  -1  10  10    5.56    0.46
  -1  10  10    5.69    0.38
  -1  10  10    5.38    0.37
  -1  10  10    5.60    0.48
   0 -10 -10   15.11    0.68
   0 -10 -10   13.88    0.68
   0  10  10   15.71    0.70
   0  10  10   15.09    0.57
   0  10  10   14.25    0.73
   0  10  10   15.80    0.71
   0  10  10   14.52    0.74
  -1 -10 -10    5.38    0.37
  -1 -10 -10    5.11    0.46
  -1 -10 -10    4.53    0.40
   1  10  10    4.09    0.34
   1  10  10    5.09    0.41
   1  10  10    5.39    0.48
   1  10  10    4.76    0.36
   1  10  10    5.05    0.41
   1  10  10    4.94    0.41
  -2 -10 -10   24.00    0.91
  -2 -10 -10   22.59    0.92
   2  10  10   24.63    0.92
   2  10  10   23.63    0.94
   2  10  10   23.24    0.79
   2  10  10   24.25    0.93
   2  10  10   23.06    0.90
  -3 -10 -10   11.05    0.62
   3  10  10   10.20    0.55
   3  10  10   11.35    0.64
   3  10  10   11.51    0.50
   3  10  10   12.09    0.66
   3  10  10   11.95    0.60
   3  10  10   10.99    0.62
  -4 -10 -10    2.88    0.31
   4  10  10    3.41    0.37
   4  10  10    2.29    0.30
   4  10  10    2.65    0.27
   4  10  10    2.81    0.37
  -5 -10 -10   27.64    1.08
   5  10  10   26.50    1.06
   5  10  10   27.00    0.91
   5  10  10   30.02    1.08
  -6 -10 -10    4.53    0.39
   6  10  10    4.14    0.43
   6  10  10    3.22    0.35
  -7 -10 -10    2.93    0.36
   7  10  10    3.22    0.42
  -8 -10 -10    1.63    0.34
   8  10  10    1.64    0.40
  -9 -10 -10   -0.01    0.36
   9  10  10    0.20    0.39
 -10 -10 -10    0.10    0.46
  10  10  10    0.11    0.45
  -8  11  10    7.40    0.76
  -8  11  10    8.38    0.72
  -7  11  10   -0.28    0.53
  -7  11  10    0.29    0.42
   6 -11 -10   -0.36    0.34
  -6  11  10   -0.04    0.38
  -6  11  10    0.46    0.49
   5 -11 -10    0.54    0.30
  -5  11  10    0.14    0.36
   4 -11 -10   41.82    1.54
  -4  11  10   43.13    1.53
   3 -11 -10    2.60    0.31
  -3  11  10    2.93    0.30
  -3  11  10    2.15    0.39
   2 -11 -10    0.10    0.24
  -2  11  10    0.00    0.23
  -2  11  10    0.16    0.30
  -2  11  10    0.69    0.33
   1 -11 -10   -0.10    0.28
   1 -11 -10    0.12    0.23
  -1  11  10   -0.02    0.29
  -1  11  10    0.23    0.22
  -1  11  10    0.02    0.24
  -1  11  10    0.05    0.29
   0 -11 -10    0.10    0.21
   0 -11 -10   -0.22    0.25
   0  11  10    0.21    0.21
   0  11  10    0.24    0.28
   0  11  10    0.30    0.27
   0  11  10   -0.20    0.24
  -1 -11 -10   11.31    0.57
  -1 -11 -10   11.53    0.56
  -1 -11 -10   10.58    0.56
   1  11  10   11.12    0.61
   1  11  10   11.42    0.56
   1  11  10   10.67    0.58
   1  11  10   11.00    0.48
   1  11  10   11.36    0.63
  -2 -11 -10   45.29    1.51
  -2 -11 -10   43.79    1.56
  -2 -11 -10   44.19    1.55
   2  11  10   44.07    1.49
   2  11  10   43.27    1.50
   2  11  10   44.80    1.32
   2  11  10   44.39    1.51
   2  11  10   45.18    1.60
  -3 -11 -10   21.99    0.92
  -3 -11 -10   23.53    0.90
   3  11  10   23.16    0.93
   3  11  10   23.70    0.91
   3  11  10   24.25    0.92
   3  11  10   23.43    0.91
   3  11  10   22.53    0.78
  -4 -11 -10   13.44    0.67
   4  11  10   13.98    0.64
   4  11  10   13.44    0.55
   4  11  10   14.11    0.70
   4  11  10   13.47    0.66
  -5 -11 -10    0.55    0.25
   5  11  10    0.55    0.29
   5  11  10   -0.13    0.29
   5  11  10    0.79    0.26
   5  11  10    0.15    0.21
  -6 -11 -10   -0.01    0.25
   6  11  10    0.24    0.30
   6  11  10   -0.17    0.26
  -7 -11 -10    0.26    0.25
   7  11  10    0.21    0.31
  -8 -11 -10    2.77    0.38
   8  11  10    2.00    0.41
   9  11  10    0.53    0.41
  10  11  10    1.90    0.50
  -8  12  10    1.24    0.65
  -8  12  10    0.57    0.51
  -7  12  10   13.28    0.83
  -7  12  10   12.69    1.00
   6 -12 -10    9.56    0.69
  -6  12  10    9.13    0.65
  -6  12  10    8.71    0.82
   5 -12 -10   23.10    0.97
  -5  12  10   23.05    0.99
  -5  12  10   19.98    1.08
   4 -12 -10   23.41    0.97
  -4  12  10   22.83    0.98
   3 -12 -10   87.30    2.84
  -3  12  10   83.13    2.41
  -3  12  10   82.42    2.73
   2 -12 -10    7.81    0.50
  -2  12  10    7.78    0.52
  -2  12  10    7.59    0.51
  -2  12  10    7.14    0.42
   1 -12 -10    0.67    0.21
  -1  12  10    0.16    0.27
  -1  12  10    0.03    0.21
  -1  12  10    0.48    0.28
   0 -12 -10    1.62    0.30
   0 -12 -10    1.21    0.24
   0 -12 -10    1.36    0.31
   0  12  10    1.03    0.22
   0  12  10    1.65    0.29
   0  12  10    1.34    0.28
   0  12  10    1.31    0.26
   0  12  10    1.48    0.28
  -1 -12 -10    1.95    0.28
  -1 -12 -10    2.13    0.32
  -1 -12 -10    1.64    0.24
   1  12  10    1.80    0.23
   1  12  10    1.57    0.28
   1  12  10    1.89    0.28
   1  12  10    1.78    0.27
   1  12  10    2.32    0.32
  -2 -12 -10    0.47    0.24
  -2 -12 -10    0.16    0.22
   2  12  10    0.02    0.24
   2  12  10    0.06    0.20
   2  12  10    0.19    0.24
   2  12  10   -0.13    0.23
   3  12  10    4.77    0.35
   3  12  10    4.39    0.34
   3  12  10    5.25    0.39
   3  12  10    4.67    0.36
   3  12  10    4.70    0.42
   4  12  10    4.95    0.35
   4  12  10    4.56    0.37
   4  12  10    4.50    0.35
   4  12  10    4.25    0.38
   5  12  10    4.22    0.37
   5  12  10    3.82    0.30
   5  12  10    3.96    0.34
   5  12  10    4.23    0.39
   6  12  10    0.35    0.29
   6  12  10    0.04    0.26
   7  12  10    4.23    0.42
   7  12  10    3.53    0.38
   8  12  10    8.07    0.58
   9  12  10    3.69    0.50
  10  12  10    0.60    0.49
  -7  13  10    3.31    0.58
  -7  13  10    4.41    0.64
  -6  13  10    6.55    0.61
  -6  13  10    7.28    0.68
   5 -13 -10   16.80    0.80
  -5  13  10   15.17    0.89
  -5  13  10   15.99    0.82
   4 -13 -10   15.17    0.72
  -4  13  10   14.05    0.75
  -4  13  10   13.68    0.86
  -3  13  10   -0.09    0.29
  -3  13  10    0.15    0.32
  -3  13  10    0.26    0.24
  -2  13  10    0.05    0.22
  -2  13  10    0.17    0.27
  -2  13  10   -0.12    0.26
  -1  13  10    0.35    0.21
  -1  13  10    0.32    0.25
  -1  13  10    0.18    0.24
   0 -13 -10    9.56    0.57
   0 -13 -10   10.02    0.57
   0  13  10   11.00    0.59
   0  13  10    9.86    0.45
   0  13  10   10.05    0.48
   0  13  10    9.40    0.48
  -1 -13 -10    1.89    0.29
  -1 -13 -10    2.42    0.33
   1  13  10    2.34    0.25
   1  13  10    2.06    0.24
   1  13  10    1.95    0.28
   1  13  10    2.19    0.25
   2  13  10   15.44    0.60
   2  13  10   15.20    0.72
   2  13  10   15.25    0.59
   2  13  10   14.88    0.57
   3  13  10    8.04    0.56
   3  13  10    6.89    0.56
   3  13  10    7.64    0.40
   3  13  10    8.04    0.42
   3  13  10    7.31    0.41
   4  13  10    7.65    0.42
   4  13  10    8.18    0.45
   4  13  10    8.74    0.57
   4  13  10    8.39    0.43
   5  13  10   18.13    0.67
   5  13  10   18.13    0.74
   5  13  10   19.70    0.83
   5  13  10   18.14    0.73
   6  13  10   14.90    0.75
   6  13  10   12.91    0.64
   6  13  10   12.49    0.61
   7  13  10    5.07    0.43
   7  13  10    5.30    0.44
   8  13  10    4.87    0.46
   9  13  10   -0.66    0.38
  -7  14  10    3.13    0.62
  -6  14  10   -0.17    0.45
  -5  14  10    0.30    0.41
  -4  14  10    5.16    0.47
  -3  14  10   34.37    1.13
  -3  14  10   35.14    1.23
  -3  14  10   35.53    1.25
  -2  14  10    4.60    0.38
  -2  14  10    4.52    0.39
  -2  14  10    4.85    0.39
  -1  14  10   24.52    0.85
  -1  14  10   23.74    0.81
  -1  14  10   23.97    0.84
   0 -14 -10   15.85    0.77
   0  14  10   15.96    0.60
   0  14  10   15.62    0.57
   0  14  10   16.64    0.73
   1  14  10    5.77    0.37
   1  14  10    6.49    0.53
   2  14  10    1.38    0.28
   2  14  10    1.63    0.24
   3  14  10    0.50    0.25
   3  14  10    0.00    0.24
   3  14  10    0.05    0.21
   4  14  10    4.06    0.34
   4  14  10    3.70    0.29
   5  14  10    4.09    0.30
   5  14  10    3.90    0.29
   5  14  10    4.18    0.36
   5  14  10    3.75    0.30
   6  14  10    1.91    0.25
   6  14  10    1.98    0.26
   6  14  10    1.85    0.34
   7  14  10    0.34    0.26
   7  14  10   -0.12    0.32
   7  14  10    0.02    0.23
   8  14  10    0.63    0.29
   9  14  10    0.52    0.37
  -6  15  10    2.97    0.57
  -5  15  10    4.59    0.51
  -4  15  10   14.72    0.67
  -4  15  10   14.21    0.64
  -3  15  10   13.66    0.62
  -3  15  10   13.04    0.57
  -3  15  10   13.72    0.59
  -2  15  10   10.31    0.42
  -2  15  10    9.82    0.51
  -1  15  10   16.69    0.65
   0  15  10    7.38    0.43
   0  15  10    8.32    0.55
   1  15  10    3.85    0.33
   1  15  10    3.29    0.28
   2  15  10    4.73    0.37
   2  15  10    4.59    0.35
   3  15  10    0.66    0.27
   3  15  10    0.39    0.27
   3  15  10    0.39    0.23
   4  15  10    0.05    0.22
   4  15  10   -0.17    0.27
   5  15  10    4.03    0.32
   5  15  10    4.07    0.38
   6  15  10    8.44    0.68
   7  15  10    9.93    0.79
   8  15  10    5.74    0.38
   8  15  10    6.43    0.53
  -5  16  10    1.43    0.29
  -5  16  10    2.14    0.34
  -4  16  10    5.42    0.39
  -3  16  10    3.69    0.38
  -2  16  10    0.95    0.29
  -1  16  10    4.40    0.35
   0  16  10    7.16    0.44
   0  16  10    8.34    0.56
   1  16  10    4.92    0.39
   1  16  10    4.69    0.36
   2  16  10   14.51    0.69
   2  16  10   12.66    0.56
   3  16  10   13.05    0.72
   3  16  10   11.77    0.55
   3  16  10   12.58    0.69
   4  16  10    4.75    0.40
   4  16  10    4.76    0.34
   4  16  10    5.12    0.39
   5  16  10    2.72    0.37
   5  16  10    2.55    0.30
   6  16  10    0.12    0.34
   7  16  10    4.50    0.47
   8  16  10    1.87    0.45
  -2  17  10    3.79    0.37
  -1  17  10   17.71    0.71
   0  17  10    6.83    0.45
   1  17  10   18.36    0.71
   1  17  10   19.31    0.83
   2  17  10   12.31    0.69
   2  17  10   11.37    0.55
   3  17  10    6.32    0.46
   3  17  10    7.03    0.60
   3  17  10    6.97    0.63
   4  17  10    2.66    0.31
   4  17  10    2.87    0.37
   4  17  10    3.01    0.38
   5  17  10    0.28    0.34
   5  17  10    0.21    0.27
   6  17  10   -0.03    0.36
   7  17  10   -0.34    0.38
  -2  18  10    3.60    0.39
  -1  18  10    2.59    0.35
   0  18  10    2.86    0.34
   1  18  10    4.45    0.39
   1  18  10    3.94    0.36
   2  18  10    0.23    0.31
   2  18  10    0.47    0.28
   3  18  10    0.86    0.33
   3  18  10    0.21    0.28
   3  18  10    0.85    0.34
   4  18  10    6.63    0.48
   4  18  10    6.15    0.46
   4  18  10    5.74    0.45
   5  18  10    7.43    0.48
   5  18  10    7.66    0.68
   1  19  10    4.73    0.43
   2  19  10    7.11    0.63
   2  19  10    6.75    0.49
   3  19  10    3.77    0.40
   4  11 -11   -0.07    0.47
   3  11 -11    0.39    0.47
   2  11 -11    0.41    0.45
   1  11 -11    2.83    0.50
   0  11 -11    3.23    0.53
  -1  11 -11    5.27    0.58
   5  10 -11    0.93    0.49
   4  10 -11    3.68    0.50
   3  10 -11    3.64    0.49
   2  10 -11    4.76    0.50
   1  10 -11    1.34    0.45
   0  10 -11    2.06    0.48
  -1  10 -11    0.74    0.47
  -2  10 -11    0.34    0.49
  -3  10 -11    0.29    0.53
   7   9 -11    8.43    0.67
   6   9 -11    7.84    0.63
   5   9 -11    3.45    0.52
   4   9 -11    1.17    0.44
   3   9 -11    6.42    0.52
   2   9 -11    5.25    0.49
   1   9 -11   -0.30    0.38
   0   9 -11    1.37    0.42
  -1   9 -11   -0.22    0.42
  -2   9 -11    0.91    0.45
  -3   9 -11    1.80    0.31
  -3   9 -11    1.84    0.28
  -3   9 -11    1.70    0.50
  -4   9 -11    9.93    0.54
  -4   9 -11    8.84    0.55
   8   8 -11    1.16    0.30
   7   8 -11    0.36    0.25
   7   8 -11    0.62    0.31
   6   8 -11    0.58    0.44
   6   8 -11    0.54    0.26
   6   8 -11    0.20    0.23
   5   8 -11    0.87    0.43
   4   8 -11    0.45    0.39
   3   8 -11    0.46    0.37
   2   8 -11   -0.03    0.35
   1   8 -11    0.76    0.36
   0   8 -11    3.01    0.42
  -1   8 -11    2.10    0.27
  -1   8 -11    1.87    0.27
  -1   8 -11    2.59    0.44
  -2   8 -11    5.88    0.54
  -2   8 -11    5.16    0.41
  -2   8 -11    6.13    0.43
  -3   8 -11    7.33    0.57
  -3   8 -11    7.28    0.49
  -3   8 -11    5.88    0.49
  -4   8 -11    4.61    0.48
  -5   8 -11    3.96    0.52
   8   7 -11    0.18    0.40
   7   7 -11    0.40    0.33
   6   7 -11    2.77    0.35
   6   7 -11    3.02    0.39
   6   7 -11    2.33    0.45
   5   7 -11   13.43    0.78
   5   7 -11   10.88    0.60
   5   7 -11   11.40    0.56
   4   7 -11   20.81    0.93
   4   7 -11   19.00    0.75
   4   7 -11   19.17    0.79
   3   7 -11    9.62    0.52
   3   7 -11   10.30    0.69
   3   7 -11    9.29    0.48
   2   7 -11    8.98    0.47
   2   7 -11    9.92    0.64
   2   7 -11    8.89    0.49
   1   7 -11    7.65    0.44
   1   7 -11    8.15    0.63
   1   7 -11    8.64    0.48
   0   7 -11    7.43    0.47
   0   7 -11    6.94    0.44
   0   7 -11    7.84    0.62
  -1   7 -11    5.80    0.45
  -1   7 -11    6.53    0.47
  -1   7 -11    6.02    0.47
  -2   7 -11    1.28    0.38
  -2   7 -11    1.18    0.32
  -2   7 -11    0.93    0.31
  -3   7 -11    0.07    0.37
  -3   7 -11    0.02    0.31
  -3   7 -11    0.43    0.33
  -4   7 -11   -0.05    0.38
  -4   7 -11    0.53    0.36
  -5   7 -11    0.68    0.46
  -5   7 -11    0.74    0.42
  -6   7 -11    2.01    0.52
  -6   7 -11    3.39    0.62
   9   6 -11   -0.18    0.46
   8   6 -11    3.89    0.51
   7   6 -11    2.67    0.41
   6   6 -11    1.42    0.38
   6   6 -11    0.96    0.33
   5   6 -11    1.75    0.38
   5   6 -11    1.32    0.31
   5   6 -11    1.82    0.37
   4   6 -11   10.43    0.64
   4   6 -11    9.31    0.58
   4   6 -11    8.03    0.52
   3   6 -11    5.79    0.43
   3   6 -11    4.76    0.43
   3   6 -11    5.58    0.49
   3   6 -11    5.14    0.42
   2   6 -11    0.09    0.29
   2   6 -11   -0.27    0.26
   2   6 -11    0.16    0.26
   2   6 -11    0.44    0.30
   1   6 -11    0.60    0.28
   1   6 -11    0.34    0.26
   1   6 -11    0.48    0.30
   1   6 -11    1.02    0.30
   0   6 -11    0.81    0.32
   0   6 -11    0.95    0.28
   0   6 -11    1.07    0.30
   0   6 -11    1.09    0.31
   0  -6  11    1.09    0.34
  -1   6 -11    0.16    0.31
  -1   6 -11    0.15    0.30
  -1   6 -11    0.16    0.28
  -1   6 -11    0.16    0.29
   1  -6  11   -0.03    0.32
  -2   6 -11    2.74    0.39
  -2   6 -11    2.59    0.37
  -2   6 -11    1.96    0.35
  -2   6 -11    2.72    0.36
  -3   6 -11    3.37    0.41
  -3   6 -11    3.63    0.42
  -3   6 -11    3.53    0.42
  -4   6 -11    3.47    0.43
  -4   6 -11    4.19    0.48
  -5   6 -11    7.63    0.63
  -5   6 -11    7.14    0.57
  -6   6 -11    3.36    0.52
  -6   6 -11    2.52    0.58
  -7   6 -11    9.37    0.76
  -7   6 -11    9.60    0.84
   9   5 -11    0.32    0.49
  -9  -5  11    1.43    0.62
   8   5 -11    5.49    0.57
   8   5 -11    4.90    0.53
   7   5 -11    0.78    0.37
   7   5 -11    1.17    0.39
   6   5 -11    0.46    0.33
   6   5 -11    0.60    0.35
   5   5 -11    1.86    0.34
   5   5 -11    1.11    0.33
   5   5 -11    1.55    0.35
   4   5 -11    0.74    0.29
   4   5 -11    1.01    0.33
   4   5 -11    1.22    0.36
   4   5 -11    0.72    0.30
   3   5 -11   10.19    0.58
   3   5 -11   10.72    0.62
   3   5 -11   11.44    0.65
   3   5 -11   10.00    0.60
   2   5 -11   12.54    0.65
   2   5 -11   12.58    0.69
   2   5 -11   12.56    0.62
   2   5 -11   12.03    0.67
  -2  -5  11   12.57    0.64
   1   5 -11   18.72    0.81
   1   5 -11   18.38    0.78
   1   5 -11   18.69    0.84
   1   5 -11   19.21    0.83
  -1  -5  11   19.29    0.83
   0   5 -11    0.59    0.32
   0   5 -11    0.27    0.28
   0   5 -11    0.41    0.27
   0   5 -11    0.19    0.31
   0  -5  11    0.33    0.29
  -1   5 -11    2.11    0.36
  -1   5 -11    2.68    0.38
  -1   5 -11    2.65    0.37
  -1   5 -11    2.76    0.34
   1  -5  11    2.56    0.35
  -2   5 -11   11.70    0.68
  -2   5 -11   11.83    0.73
  -2   5 -11   11.24    0.63
   2  -5  11   12.69    0.64
  -3   5 -11    5.07    0.47
  -3   5 -11    6.07    0.48
  -3   5 -11    5.20    0.47
   3  -5  11    5.79    0.49
  -4   5 -11   21.55    1.00
  -4   5 -11   25.99    1.08
  -5   5 -11    5.13    0.54
  -5   5 -11    4.79    0.49
  -6   5 -11    0.63    0.40
  -6   5 -11    0.73    0.52
  -7   5 -11    0.07    0.45
  -7   5 -11    0.00    0.55
  -8   5 -11    1.31    0.54
  -8   5 -11   -0.02    0.69
 -10  -4  11    0.69    0.65
   9   4 -11   -0.11    0.45
   9   4 -11    0.26    0.53
  -9  -4  11   -0.96    0.61
   8   4 -11    1.31    0.47
   8   4 -11    1.85    0.44
   7   4 -11    3.37    0.48
   7   4 -11    3.90    0.47
   6   4 -11    0.05    0.32
   6   4 -11    0.05    0.32
   5   4 -11    0.42    0.32
   5   4 -11    0.58    0.35
   5   4 -11    0.22    0.29
   4   4 -11    6.49    0.57
   4   4 -11    5.51    0.51
   4   4 -11    5.64    0.50
   3   4 -11    5.11    0.49
   3   4 -11    4.95    0.46
   3   4 -11    5.33    0.41
   3   4 -11    5.22    0.43
   2   4 -11   19.40    0.84
   2   4 -11   20.58    0.86
   2   4 -11   19.94    0.84
   2   4 -11   20.65    0.87
  -2  -4  11   19.05    0.83
   1   4 -11   18.42    0.84
   1   4 -11   20.31    0.87
   1   4 -11   20.25    0.85
   1   4 -11   19.48    0.83
  -1  -4  11   19.83    0.83
   0   4 -11    3.74    0.37
   0   4 -11    3.72    0.39
   0   4 -11    4.17    0.40
   0   4 -11    3.53    0.41
   0  -4  11    3.92    0.38
  -1   4 -11    4.09    0.42
  -1   4 -11    4.54    0.39
  -1   4 -11    4.61    0.41
  -1   4 -11    4.68    0.43
   1  -4  11    4.78    0.42
  -2   4 -11    1.25    0.34
  -2   4 -11    0.91    0.34
  -2   4 -11    1.15    0.29
   2  -4  11    1.87    0.32
  -3   4 -11    0.87    0.34
  -3   4 -11    0.59    0.33
  -3   4 -11    0.49    0.32
   3  -4  11    1.30    0.32
  -4   4 -11    0.09    0.34
  -4   4 -11   -0.31    0.33
  -5   4 -11    0.97    0.39
  -5   4 -11    1.10    0.43
  -6   4 -11    0.25    0.39
  -6   4 -11    0.92    0.47
  -7   4 -11    1.97    0.48
  -7   4 -11    2.24    0.61
  -8   4 -11    0.55    0.45
  -8   4 -11    0.59    0.63
  10   3 -11    3.50    0.62
  10   3 -11    4.10    0.71
 -10  -3  11    3.61    0.74
   9   3 -11    5.34    0.61
   9   3 -11    6.74    0.69
   8   3 -11    4.25    0.56
   8   3 -11    4.81    0.55
   7   3 -11    1.74    0.43
   7   3 -11    1.56    0.42
   6   3 -11    1.11    0.35
   6   3 -11    0.09    0.38
   5   3 -11    5.47    0.43
   5   3 -11    5.27    0.48
   5   3 -11    5.12    0.45
   4   3 -11   16.75    0.78
   4   3 -11   14.55    0.75
   4   3 -11   15.98    0.77
   3   3 -11    5.06    0.46
   3   3 -11    5.08    0.42
   3   3 -11    4.90    0.46
   2   3 -11   10.06    0.59
   2   3 -11   10.05    0.62
   2   3 -11   10.26    0.65
   2   3 -11    9.04    0.62
   1   3 -11    0.09    0.29
   1   3 -11   -0.03    0.25
   1   3 -11    0.22    0.30
   1   3 -11    0.19    0.33
  -1  -3  11    0.20    0.29
   0   3 -11    0.24    0.30
   0   3 -11    0.26    0.27
   0   3 -11    0.78    0.32
   0   3 -11    0.26    0.32
   0  -3  11    0.58    0.28
  -1   3 -11    1.56    0.32
  -1   3 -11    1.55    0.33
  -1   3 -11    1.85    0.35
   1  -3  11    1.15    0.30
  -2   3 -11    1.15    0.33
  -2   3 -11    0.96    0.34
  -2   3 -11    1.16    0.30
   2  -3  11    1.39    0.30
  -3   3 -11   -0.18    0.30
  -3   3 -11   -0.08    0.32
  -3   3 -11   -0.41    0.32
   3  -3  11    0.37    0.27
  -4   3 -11    8.56    0.66
  -4   3 -11    9.34    0.62
  -5   3 -11    6.31    0.54
  -5   3 -11    6.15    0.55
  -6   3 -11   13.91    0.84
  -6   3 -11   13.11    0.79
  -7   3 -11   12.18    0.78
  -7   3 -11   12.88    0.92
  -8   3 -11    9.87    0.86
  -9   3 -11    1.34    0.76
  10   2 -11    8.51    0.83
 -10  -2  11    6.61    0.84
   9   2 -11    8.25    0.75
   9   2 -11    8.88    0.75
   8   2 -11    9.22    0.72
   8   2 -11    9.97    0.80
   7   2 -11    4.93    0.51
   7   2 -11    4.47    0.51
   6   2 -11    0.36    0.36
   6   2 -11    1.18    0.33
   5   2 -11    0.36    0.33
   5   2 -11    0.22    0.30
   4   2 -11    0.85    0.29
   4   2 -11    0.03    0.34
   4   2 -11    0.70    0.29
   3   2 -11    0.04    0.28
   3   2 -11   -0.18    0.33
   3   2 -11    0.18    0.29
   2   2 -11    2.67    0.34
   2   2 -11    2.57    0.38
   2   2 -11    2.86    0.35
   2   2 -11    2.48    0.32
   1   2 -11   10.67    0.59
   1   2 -11   10.26    0.62
   1   2 -11   10.88    0.67
   1   2 -11   10.68    0.61
   1   2 -11   11.54    0.52
  -1  -2  11   10.99    0.54
   0   2 -11    8.09    0.59
   0   2 -11    7.43    0.53
   0   2 -11    7.81    0.55
   0  -2  11    8.19    0.47
  -1   2 -11   11.07    0.65
  -1   2 -11    9.25    0.61
  -1   2 -11    9.28    0.63
   1  -2  11   10.04    0.50
  -2   2 -11   22.96    0.93
  -2   2 -11   21.38    0.93
  -2   2 -11   21.36    0.93
   2  -2  11   21.63    0.84
  -3   2 -11    1.63    0.36
  -3   2 -11    1.47    0.33
  -3   2 -11    1.67    0.37
   3  -2  11    1.11    0.29
  -4   2 -11   -0.05    0.31
  -4   2 -11    0.42    0.33
  -5   2 -11   10.74    0.69
  -5   2 -11   10.98    0.76
  -6   2 -11    4.40    0.50
  -6   2 -11    5.29    0.54
  -7   2 -11    4.34    0.59
  -8   2 -11    0.44    0.64
  -9   2 -11    0.45    0.74
  10   1 -11    2.78    0.65
 -10  -1  11    2.01    0.69
   9   1 -11    0.38    0.51
  -9  -1  11   -0.13    0.62
   8   1 -11    3.79    0.52
   8   1 -11    2.54    0.49
   7   1 -11    0.14    0.39
   7   1 -11    0.67    0.43
   6   1 -11    3.21    0.42
   6   1 -11    3.15    0.45
   5   1 -11    2.56    0.35
   5   1 -11    2.98    0.39
   5   1 -11    2.89    0.45
   4   1 -11   23.78    1.00
   4   1 -11   25.62    1.00
   4   1 -11   23.12    1.00
   3   1 -11    4.25    0.45
   3   1 -11    4.83    0.43
   3   1 -11    3.71    0.38
   3   1 -11    4.00    0.37
   2   1 -11   14.25    0.72
   2   1 -11   14.10    0.73
   2   1 -11   14.25    0.63
   2   1 -11   13.62    0.73
   1   1 -11   41.04    1.38
   1   1 -11   38.51    1.41
   1   1 -11   37.89    1.44
   1   1 -11   39.85    1.38
   1   1 -11   40.46    1.22
   0   1 -11   36.51    1.15
   0   1 -11   36.10    1.34
   0   1 -11   36.58    1.37
   0   1 -11   38.25    1.34
   0  -1  11   39.22    1.29
  -1   1 -11   16.48    0.80
  -1   1 -11   15.93    0.76
  -1   1 -11   14.77    0.74
   1  -1  11   16.83    0.65
  -2   1 -11   13.28    0.70
  -2   1 -11   13.27    0.73
  -2   1 -11   14.10    0.73
   2  -1  11   12.83    0.57
  -3   1 -11    1.84    0.34
  -3   1 -11    2.07    0.40
   3  -1  11    2.34    0.29
  -4   1 -11    3.61    0.41
  -4   1 -11    3.38    0.44
  -5   1 -11   -0.10    0.32
  -5   1 -11    0.25    0.37
  -6   1 -11    4.85    0.54
  -6   1 -11    3.98    0.50
  -7   1 -11    6.40    0.65
  -8   1 -11    6.96    0.73
  -9   1 -11    0.39    0.66
  10   0 -11    0.61    0.66
 -10   0  11    0.63    0.67
   9   0 -11    2.02    0.57
  -9   0  11    1.62    0.66
   8   0 -11    8.75    0.74
   7   0 -11   50.01    1.86
   7   0 -11   49.29    1.81
   6   0 -11   33.69    1.31
   6   0 -11   32.42    1.30
   5   0 -11    0.37    0.29
   5   0 -11    0.67    0.31
   5   0 -11    0.30    0.38
   4   0 -11    2.96    0.37
   4   0 -11    2.64    0.45
   4   0 -11    2.12    0.35
   3   0 -11    3.04    0.35
   3   0 -11    2.86    0.35
   3   0 -11    3.74    0.33
   3   0 -11    2.93    0.40
   2   0 -11   19.28    0.75
   2   0 -11   18.53    0.83
   2   0 -11   18.34    0.84
   2   0 -11   18.81    0.86
   1   0 -11   15.62    0.72
   1   0 -11   13.96    0.58
   1   0 -11   14.33    0.61
   1   0 -11   15.99    0.72
   1   0 -11   13.24    0.70
   0   0 -11    0.03    0.32
   0   0 -11    0.23    0.27
   0   0 -11    0.01    0.22
   0   0 -11    0.72    0.29
  -1   0 -11    0.80    0.31
  -1   0 -11    0.54    0.27
  -1   0 -11    0.19    0.31
   1   0  11    0.26    0.21
  -2   0 -11   16.78    0.80
  -2   0 -11   16.91    0.79
  -2   0 -11   16.46    0.78
   2   0  11   16.84    0.65
  -3   0 -11   14.75    0.76
  -3   0 -11   15.88    0.81
   3   0  11   15.50    0.62
  -4   0 -11    0.87    0.32
  -4   0 -11    1.19    0.38
  -5   0 -11    3.96    0.47
  -5   0 -11    4.46    0.43
  -6   0 -11    0.48    0.39
  -7   0 -11    7.07    0.65
  -8   0 -11   10.86    0.88
  -9   0 -11    4.88    0.74
 -10   0 -11    4.90    0.88
  10  -1 -11    8.26    0.82
 -10   1  11    7.72    0.84
   9  -1 -11    8.91    0.82
  -9   1  11    6.67    0.83
   8  -1 -11   16.07    0.97
   7  -1 -11   13.51    0.79
   6  -1 -11   10.60    0.69
   6  -1 -11    9.91    0.69
   5  -1 -11   44.53    1.63
   5  -1 -11   45.90    1.66
   4  -1 -11    1.02    0.32
   4  -1 -11    0.77    0.38
   4  -1 -11    0.88    0.29
   3  -1 -11    8.21    0.47
   3  -1 -11    8.93    0.56
   3  -1 -11    8.53    0.53
   3  -1 -11    7.51    0.61
   3  -1 -11    8.27    0.60
   2  -1 -11    8.02    0.62
   2  -1 -11    8.74    0.57
   2  -1 -11    9.16    0.46
   2  -1 -11    8.87    0.62
   1  -1 -11   18.68    0.83
   1  -1 -11   18.45    0.68
   1  -1 -11   18.72    0.81
   1  -1 -11   18.51    0.81
   1  -1 -11   17.46    0.69
  -1   1  11   17.66    0.81
   0  -1 -11    8.12    0.45
   0  -1 -11    8.44    0.55
   0  -1 -11    8.36    0.59
   0  -1 -11    7.94    0.56
   0   1  11    7.50    0.51
  -1  -1 -11   21.53    0.76
  -1  -1 -11   20.93    0.92
  -1  -1 -11   22.10    0.91
  -1  -1 -11   22.69    0.91
   1   1  11   21.54    0.76
  -2  -1 -11   65.96    2.20
  -2  -1 -11   66.13    2.14
  -2  -1 -11   63.32    2.26
   2   1  11   67.62    2.12
  -3  -1 -11   12.33    0.71
  -3  -1 -11   13.23    0.71
   3   1  11   13.70    0.54
  -4  -1 -11   28.96    1.17
  -4  -1 -11   29.53    1.17
  -5  -1 -11   11.56    0.72
  -5  -1 -11   11.24    0.68
  -6  -1 -11    3.22    0.43
  -7  -1 -11    1.27    0.46
  -8  -1 -11    0.87    0.61
  -9  -1 -11    0.41    0.62
 -10  -1 -11    0.16    0.76
  10  -2 -11    3.37    0.68
 -10   2  11    2.20    0.73
   9  -2 -11    2.07    0.57
  -9   2  11    1.63    0.67
   8  -2 -11    3.14    0.56
   7  -2 -11    0.08    0.37
   6  -2 -11    1.32    0.35
   5  -2 -11   14.59    0.78
   5  -2 -11   12.55    0.72
   4  -2 -11   46.27    1.70
   4  -2 -11   47.90    1.70
   4  -2 -11   46.77    1.67
   3  -2 -11   21.78    0.97
   3  -2 -11   22.75    0.87
   3  -2 -11   23.29    0.95
   3  -2 -11   24.02    0.96
   2  -2 -11   29.36    1.09
   2  -2 -11   27.68    0.98
   2  -2 -11   27.49    1.06
   2  -2 -11   27.53    1.08
   2  -2 -11   26.17    1.08
   1  -2 -11   18.20    0.80
   1  -2 -11   18.21    0.82
   1  -2 -11   16.78    0.79
   1  -2 -11   18.06    0.67
   1  -2 -11   18.07    0.66
  -1   2  11   17.86    0.65
  -1   2  11   18.10    0.84
  -1   2  11   16.80    0.78
   0  -2 -11   15.02    0.74
   0  -2 -11   15.85    0.60
   0  -2 -11   15.32    0.76
   0  -2 -11   15.77    0.74
   0   2  11   14.86    0.57
   0   2  11   15.92    0.77
   0   2  11   14.77    0.71
  -1  -2 -11    4.57    0.43
  -1  -2 -11    4.51    0.37
  -1  -2 -11    4.28    0.37
  -1  -2 -11    4.62    0.36
   1   2  11    3.62    0.43
   1   2  11    4.07    0.37
   1   2  11    3.52    0.28
  -2  -2 -11   13.40    0.70
  -2  -2 -11   14.38    0.72
   2   2  11   13.47    0.48
   2   2  11   13.67    0.69
  -3  -2 -11   17.04    0.79
  -3  -2 -11   16.23    0.80
   3   2  11   16.17    0.59
  -4  -2 -11    1.82    0.40
  -4  -2 -11    1.91    0.34
  -5  -2 -11    6.60    0.57
  -6  -2 -11    0.11    0.32
  -7  -2 -11    0.63    0.42
  -8  -2 -11    4.16    0.59
  -9  -2 -11    4.67    0.68
 -10  -2 -11    3.71    0.74
  10  -3 -11    0.87    0.63
 -10   3  11    1.40    0.72
   9  -3 -11    1.09    0.53
  -9   3  11    1.09    0.73
   8  -3 -11    1.34    0.48
   7  -3 -11    6.08    0.55
   6  -3 -11   23.48    1.03
   5  -3 -11   35.53    1.36
   4  -3 -11   20.34    0.93
   4  -3 -11   20.44    0.88
   4  -3 -11   20.71    0.90
   3  -3 -11   24.24    1.01
   3  -3 -11   25.84    1.04
   3  -3 -11   25.08    1.02
   2  -3 -11   20.03    0.71
   2  -3 -11   15.49    0.78
   2  -3 -11   19.80    0.84
   2  -3 -11   19.51    0.86
  -2   3  11   20.14    0.88
   1  -3 -11   21.46    0.91
   1  -3 -11   21.99    0.93
   1  -3 -11   22.50    0.78
   1  -3 -11   22.81    0.78
   1  -3 -11   22.88    0.90
  -1   3  11   21.16    0.90
  -1   3  11   22.18    0.76
  -1   3  11   21.76    0.95
   0  -3 -11    2.76    0.32
   0  -3 -11    2.58    0.31
   0  -3 -11    2.62    0.21
   0  -3 -11    2.59    0.27
   0  -3 -11    3.04    0.40
   0   3  11    2.30    0.26
   0   3  11    2.55    0.39
   0   3  11    2.75    0.34
  -1  -3 -11    2.66    0.33
  -1  -3 -11    3.13    0.32
  -1  -3 -11    3.02    0.28
  -1  -3 -11    3.11    0.39
   1   3  11    2.77    0.26
   1   3  11    2.51    0.40
   1   3  11    2.46    0.33
  -2  -3 -11   11.16    0.65
  -2  -3 -11   12.34    0.69
   2   3  11   11.56    0.61
   2   3  11   12.33    0.52
   2   3  11   12.55    0.69
  -3  -3 -11   14.44    0.71
  -3  -3 -11   11.60    0.67
   3   3  11   13.28    0.71
   3   3  11   13.78    0.66
  -4  -3 -11   24.14    1.01
  -5  -3 -11    5.75    0.46
  -6  -3 -11   23.17    1.01
  -7  -3 -11    5.92    0.57
  -8  -3 -11    0.63    0.51
  -9  -3 -11    0.93    0.58
 -10  -3 -11    0.81    0.65
  10  -4 -11    5.03    0.73
 -10   4  11    4.02    0.77
   9  -4 -11    5.85    0.67
  -9   4  11    5.65    0.78
   8  -4 -11   16.74    0.97
   7  -4 -11   15.17    0.84
   6  -4 -11   12.41    0.72
   5  -4 -11    7.51    0.57
   4  -4 -11    0.09    0.29
   4  -4 -11   -0.04    0.31
   3  -4 -11    0.45    0.29
   3  -4 -11   -0.21    0.34
   3  -4 -11    0.35    0.26
  -3   4  11    0.39    0.36
   2  -4 -11    0.00    0.32
   2  -4 -11    0.34    0.26
   2  -4 -11    0.08    0.08
  -2   4  11    0.55    0.36
  -2   4  11    0.21    0.21
   1  -4 -11   29.37    0.98
   1  -4 -11   29.86    1.13
   1  -4 -11   28.41    1.12
  -1   4  11   29.30    0.93
  -1   4  11   29.76    1.13
  -1   4  11   28.87    1.12
   0  -4 -11   58.30    2.00
   0  -4 -11   61.48    1.91
   0  -4 -11   61.52    2.07
   0  -4 -11   59.89    2.08
   0   4  11   60.80    1.73
   0   4  11   57.75    2.08
   0   4  11   60.90    2.02
  -1  -4 -11   13.87    0.71
  -1  -4 -11   13.55    0.71
   1   4  11   13.02    0.55
   1   4  11   12.86    0.70
   1   4  11   14.36    0.66
  -2  -4 -11   25.48    0.99
  -2  -4 -11   24.88    1.01
   2   4  11   24.49    0.97
   2   4  11   22.89    0.80
   2   4  11   23.23    0.96
  -3  -4 -11   11.66    0.70
  -3  -4 -11   12.05    0.66
   3   4  11   13.01    0.73
   3   4  11   12.27    0.63
  -4  -4 -11   25.79    1.03
   4   4  11   25.01    1.00
   4   4  11   23.75    1.06
  -5  -4 -11   32.86    1.28
  -6  -4 -11    2.93    0.39
  -7  -4 -11    0.56    0.40
  -8  -4 -11    0.45    0.45
  -9  -4 -11    2.88    0.63
 -10  -4 -11   -0.11    0.62
 -10   5  11   -0.19    0.68
   9  -5 -11    0.85    0.55
  -9   5  11    1.29    0.71
   8  -5 -11    4.53    0.58
   7  -5 -11    2.94    0.44
   6  -5 -11    0.90    0.34
   5  -5 -11    0.27    0.29
   4  -5 -11   11.18    0.64
  -4   5  11   11.38    0.70
   3  -5 -11   16.53    0.81
  -3   5  11   17.54    0.83
   2  -5 -11  101.02    3.22
   2  -5 -11   99.68    3.34
  -2   5  11   99.93    3.22
  -2   5  11  100.52    2.81
   1  -5 -11   92.99    3.13
   1  -5 -11   92.52    3.12
   1  -5 -11   93.23    3.01
  -1   5  11   95.33    3.02
  -1   5  11   96.58    2.63
  -1   5  11   91.29    3.14
   0  -5 -11   45.67    1.43
   0  -5 -11   44.59    1.59
   0  -5 -11   45.86    1.61
   0  -5 -11   44.06    1.60
   0   5  11   44.78    1.34
   0   5  11   45.62    1.61
   0   5  11   45.02    1.58
  -1  -5 -11   22.66    0.94
  -1  -5 -11   22.99    0.95
   1   5  11   21.57    0.91
   1   5  11   23.02    0.77
   1   5  11   22.55    0.94
  -2  -5 -11    1.23    0.35
  -2  -5 -11    1.58    0.29
   2   5  11    1.90    0.37
   2   5  11    2.11    0.30
   2   5  11    1.93    0.39
   2   5  11    1.91    0.25
   2   5  11    1.39    0.26
  -3  -5 -11    1.33    0.29
   3   5  11    0.79    0.24
   3   5  11    1.27    0.38
   3   5  11    1.54    0.29
  -4  -5 -11   12.98    0.74
   4   5  11   13.18    0.66
   4   5  11   13.94    0.76
  -5  -5 -11    5.30    0.43
   5   5  11    4.47    0.50
   5   5  11    4.67    0.44
  -6  -5 -11    2.60    0.37
  -7  -5 -11    0.48    0.36
   7   5  11    0.18    0.33
  -8  -5 -11   13.48    0.90
  -9  -5 -11    2.27    0.59
 -10  -5 -11    3.90    0.73
 -10   6  11    1.93    0.75
   9  -6 -11    0.99    0.55
  -9   6  11    0.99    0.67
   8  -6 -11    7.73    0.67
  -8   6  11    8.17    0.82
   7  -6 -11   14.50    0.83
   6  -6 -11   12.50    0.72
   5  -6 -11   11.97    0.71
   4  -6 -11   21.24    0.92
  -4   6  11   21.01    0.95
   3  -6 -11   17.81    0.79
  -3   6  11   17.01    0.84
   2  -6 -11   11.53    0.58
   2  -6 -11    7.58    0.51
  -2   6  11   11.50    0.67
  -2   6  11    9.86    0.50
   1  -6 -11   19.15    0.82
   1  -6 -11   18.22    0.80
  -1   6  11   19.52    0.67
  -1   6  11   18.45    0.83
  -1   6  11   18.98    0.86
   0  -6 -11    4.26    0.41
   0  -6 -11    3.76    0.34
   0   6  11    4.35    0.38
   0   6  11    3.20    0.41
   0   6  11    3.72    0.29
  -1  -6 -11    4.16    0.35
  -1  -6 -11    4.03    0.39
   1   6  11    4.31    0.41
   1   6  11    3.31    0.43
   1   6  11    4.18    0.30
  -2  -6 -11    3.89    0.35
   2   6  11    3.74    0.32
   2   6  11    3.87    0.30
   2   6  11    4.18    0.36
   2   6  11    4.57    0.45
   2   6  11    4.24    0.45
  -3  -6 -11   15.66    0.74
   3   6  11   14.64    0.69
   3   6  11   16.17    0.81
   3   6  11   15.55    0.60
   3   6  11   14.74    0.75
  -4  -6 -11   20.71    0.90
   4   6  11   20.60    0.92
   4   6  11   20.02    0.84
  -5  -6 -11   38.73    1.46
   5   6  11   40.80    1.44
   5   6  11   38.06    1.46
  -6  -6 -11    3.20    0.40
   6   6  11    3.55    0.35
   6   6  11    3.59    0.46
  -7  -6 -11    7.52    0.61
  -8  -6 -11    8.35    0.71
  -9  -6 -11    3.41    0.57
 -10  -6 -11    5.64    0.72
 -11  -6 -11    1.04    0.69
 -10   7  11    4.82    0.88
   9  -7 -11    9.35    0.87
  -9   7  11    8.69    0.87
   8  -7 -11   16.68    0.93
  -8   7  11   13.25    1.10
   7  -7 -11    8.59    0.75
   6  -7 -11    0.62    0.33
   5  -7 -11   15.16    0.79
  -5   7  11   15.03    0.79
   4  -7 -11    1.73    0.31
  -4   7  11    1.61    0.41
   3  -7 -11   -0.11    0.24
   3  -7 -11   -0.16    0.28
  -3   7  11   -0.09    0.36
   2  -7 -11   -0.30    0.27
   2  -7 -11   -0.03    0.25
  -2   7  11    0.05    0.23
  -2   7  11    0.53    0.36
   1  -7 -11    4.39    0.42
   1  -7 -11    4.32    0.36
  -1   7  11    4.36    0.42
  -1   7  11    4.51    0.36
  -1   7  11    3.91    0.44
   0  -7 -11   27.26    1.04
   0  -7 -11   27.85    1.06
   0   7  11   26.70    1.05
   0   7  11   26.17    0.87
   0   7  11   25.79    1.07
  -1  -7 -11   59.53    2.08
  -1  -7 -11   60.11    2.09
   1   7  11   61.01    1.76
   1   7  11   58.45    2.03
   1   7  11   64.91    2.11
  -2  -7 -11  131.88    4.39
   2   7  11  136.20    4.41
   2   7  11  135.62    3.72
   2   7  11  137.21    4.13
   2   7  11  127.86    4.20
   2   7  11  136.75    4.21
  -3  -7 -11   11.07    0.62
   3   7  11   12.41    0.70
   3   7  11   10.05    0.65
   3   7  11   11.37    0.58
   3   7  11   10.45    0.51
  -4  -7 -11   20.49    0.90
   4   7  11   21.74    0.76
   4   7  11   19.93    0.92
   4   7  11   21.12    0.87
   4   7  11   22.62    0.92
  -5  -7 -11    8.42    0.59
   5   7  11    9.05    0.63
   5   7  11    8.63    0.51
  -6  -7 -11    3.24    0.37
   6   7  11    3.43    0.47
  -7  -7 -11   15.74    0.79
   7   7  11   14.99    0.81
  -8  -7 -11    3.30    0.48
  -9  -7 -11    1.30    0.48
 -10  -7 -11    1.19    0.58
   9  -8 -11    1.25    0.57
  -9   8  11    1.42    0.69
   8  -8 -11    0.23    0.47
  -8   8  11   -0.42    0.61
   7  -8 -11    0.39    0.40
   6  -8 -11    0.38    0.33
  -6   8  11    0.93    0.41
   5  -8 -11    1.67    0.33
  -5   8  11    1.74    0.40
   4  -8 -11    6.60    0.55
  -4   8  11    6.58    0.58
   3  -8 -11    9.56    0.59
  -3   8  11   11.65    0.70
   2  -8 -11   19.00    0.83
   2  -8 -11   18.26    0.83
  -2   8  11   18.35    0.86
  -2   8  11   18.86    0.69
   1  -8 -11   40.70    1.48
   1  -8 -11   41.67    1.49
  -1   8  11   40.33    1.24
  -1   8  11   41.37    1.46
   0  -8 -11    1.40    0.29
   0  -8 -11    1.41    0.26
   0   8  11    1.24    0.31
   0   8  11    1.75    0.37
   0   8  11    1.55    0.25
  -1  -8 -11   38.40    1.39
  -1  -8 -11   36.74    1.41
  -1  -8 -11   40.05    1.26
   1   8  11   36.56    1.37
   1   8  11   38.40    1.41
   1   8  11   39.95    1.18
   1   8  11   39.69    1.40
  -2  -8 -11   48.16    1.68
  -2  -8 -11   45.82    1.66
   2   8  11   45.98    1.64
   2   8  11   45.98    1.63
   2   8  11   48.77    1.68
   2   8  11   49.31    1.42
  -3  -8 -11   10.82    0.64
   3   8  11   10.53    0.66
   3   8  11   10.48    0.63
   3   8  11   11.48    0.51
   3   8  11   11.10    0.58
  -4  -8 -11    8.05    0.58
   4   8  11    7.88    0.48
   4   8  11    6.38    0.55
   4   8  11    7.78    0.61
   4   8  11    7.11    0.44
  -5  -8 -11    3.09    0.36
   5   8  11    2.58    0.41
  -6  -8 -11    0.52    0.29
   6   8  11    0.96    0.38
  -7  -8 -11    0.80    0.34
   7   8  11    0.85    0.38
  -8  -8 -11    1.81    0.42
   8   8  11    2.02    0.44
  -9  -8 -11    5.91    0.60
 -10  -8 -11    8.01    0.75
  -9   9  11    1.82    0.75
   8  -9 -11    1.33    0.50
  -8   9  11    1.99    0.68
   7  -9 -11   16.63    0.92
  -7   9  11   12.38    1.04
   6  -9 -11   12.57    0.73
  -6   9  11   12.25    0.73
   5  -9 -11    8.71    0.59
  -5   9  11    9.99    0.67
   4  -9 -11   10.74    0.60
  -4   9  11   10.43    0.66
   3  -9 -11    1.78    0.29
  -3   9  11    1.73    0.40
   2  -9 -11    7.22    0.53
   2  -9 -11    7.45    0.50
  -2   9  11    7.48    0.60
  -2   9  11    7.81    0.46
   1  -9 -11    2.49    0.34
   1  -9 -11    2.11    0.29
  -1   9  11    2.43    0.38
  -1   9  11    2.05    0.27
   0  -9 -11    0.57    0.27
   0  -9 -11    0.29    0.23
   0   9  11    0.49    0.29
   0   9  11    0.61    0.22
   0   9  11    0.79    0.33
   0   9  11    0.87    0.34
  -1  -9 -11    0.04    0.23
  -1  -9 -11   -0.21    0.24
  -1  -9 -11    0.25    0.19
   1   9  11    0.59    0.23
   1   9  11   -0.10    0.26
   1   9  11    0.33    0.29
   1   9  11    0.17    0.29
  -2  -9 -11    3.61    0.35
  -2  -9 -11    4.25    0.35
   2   9  11    4.33    0.41
   2   9  11    4.88    0.44
   2   9  11    4.09    0.36
   2   9  11    4.78    0.38
  -3  -9 -11    5.11    0.38
   3   9  11    4.64    0.37
   3   9  11    4.95    0.39
   3   9  11    5.43    0.46
   3   9  11    5.73    0.42
  -4  -9 -11   38.08    1.41
   4   9  11   36.54    1.36
   4   9  11   39.12    1.37
   4   9  11   39.64    1.37
   4   9  11   35.74    1.17
  -5  -9 -11    4.29    0.38
   5   9  11    4.39    0.44
   5   9  11    3.59    0.36
  -6  -9 -11   12.30    0.69
   6   9  11   12.30    0.71
  -7  -9 -11   10.04    0.66
   7   9  11    8.00    0.64
  -8  -9 -11   10.78    0.73
   8   9  11   10.16    0.70
  -9  -9 -11    3.83    0.51
   9   9  11    3.01    0.51
 -10  -9 -11    2.08    0.58
  -9  10  11    1.99    0.77
   8 -10 -11    1.50    0.52
  -8  10  11    1.58    0.65
   7 -10 -11   15.59    0.88
  -7  10  11   15.13    0.83
  -7  10  11   11.74    1.06
   6 -10 -11    4.63    0.47
  -6  10  11    5.03    0.54
   5 -10 -11    5.56    0.47
  -5  10  11    6.92    0.61
   4 -10 -11    0.12    0.26
  -4  10  11   -0.34    0.34
   3 -10 -11   -0.14    0.24
  -3  10  11    0.14    0.36
  -3  10  11    0.42    0.25
   2 -10 -11    2.03    0.30
  -2  10  11    2.09    0.28
  -2  10  11    2.09    0.38
   1 -10 -11    0.62    0.25
   1 -10 -11    1.24    0.31
  -1  10  11    1.13    0.25
  -1  10  11    1.52    0.36
   0 -10 -11    0.44    0.23
   0 -10 -11    0.59    0.27
   0  10  11    0.47    0.32
   0  10  11    0.41    0.31
   0  10  11    0.49    0.23
  -1 -10 -11    4.10    0.34
  -1 -10 -11    4.66    0.41
   1  10  11    4.50    0.44
   1  10  11    4.64    0.42
   1  10  11    4.78    0.41
   1  10  11    4.49    0.36
   1  10  11    4.90    0.42
  -2 -10 -11   44.36    1.57
  -2 -10 -11   44.16    1.58
   2  10  11   44.02    1.58
   2  10  11   43.64    1.53
   2  10  11   44.65    1.34
   2  10  11   44.99    1.54
  -3 -10 -11   33.04    1.26
   3  10  11   33.11    1.06
   3  10  11   35.84    1.26
   3  10  11   33.73    1.25
   3  10  11   34.21    1.23
   3  10  11   32.30    1.23
  -4 -10 -11   30.55    1.19
   4  10  11   33.89    1.18
   4  10  11   31.56    1.00
   4  10  11   28.76    1.16
  -5 -10 -11   42.71    1.54
   5  10  11   41.24    1.50
   5  10  11   43.43    1.50
   5  10  11   41.41    1.29
  -6 -10 -11    2.23    0.32
   6  10  11    1.71    0.37
  -7 -10 -11    0.16    0.29
   7  10  11   -0.16    0.33
  -8 -10 -11    1.98    0.38
   8  10  11    1.31    0.41
  -9 -10 -11    0.99    0.40
   9  10  11    0.04    0.40
 -10 -10 -11    0.99    0.52
  10  10  11    1.86    0.52
  -8  11  11    0.54    0.67
   7 -11 -11    0.97    0.42
  -7  11  11    0.34    0.40
  -7  11  11    0.77    0.61
   6 -11 -11    0.45    0.37
  -6  11  11    0.17    0.37
  -6  11  11   -0.27    0.56
   5 -11 -11    1.25    0.33
  -5  11  11    0.86    0.40
   4 -11 -11    9.08    0.59
  -4  11  11    7.91    0.62
   3 -11 -11    3.06    0.34
  -3  11  11    3.02    0.43
   2 -11 -11    9.47    0.55
  -2  11  11    8.79    0.58
  -2  11  11    8.93    0.48
   1 -11 -11    7.59    0.50
  -1  11  11    7.43    0.56
  -1  11  11    8.14    0.56
  -1  11  11    8.48    0.44
   0 -11 -11    1.19    0.29
   0 -11 -11    1.46    0.25
   0  11  11    1.58    0.33
   0  11  11    1.02    0.31
   0  11  11    1.15    0.24
  -1 -11 -11    0.14    0.25
  -1 -11 -11    0.31    0.22
   1  11  11    0.14    0.27
   1  11  11    0.53    0.29
   1  11  11    0.09    0.27
   1  11  11    0.20    0.21
   1  11  11    0.11    0.29
  -2 -11 -11    2.09    0.29
  -2 -11 -11    2.22    0.29
   2  11  11    2.36    0.33
   2  11  11    2.18    0.27
   2  11  11    2.31    0.34
   2  11  11    2.68    0.35
  -3 -11 -11    0.64    0.25
   3  11  11    0.77    0.31
   3  11  11    0.87    0.23
   3  11  11    0.40    0.29
   3  11  11    0.44    0.25
  -4 -11 -11    2.61    0.30
   4  11  11    2.38    0.31
   4  11  11    3.56    0.37
   4  11  11    2.57    0.27
  -5 -11 -11    8.85    0.61
   5  11  11    8.21    0.45
   5  11  11    7.79    0.56
   5  11  11    9.69    0.64
  -6 -11 -11    1.50    0.30
   6  11  11    1.66    0.32
   6  11  11    1.21    0.34
  -7 -11 -11    0.32    0.29
   7  11  11    0.18    0.34
  -8 -11 -11    5.74    0.49
   8  11  11    4.90    0.51
  -9 -11 -11    0.49    0.40
   9  11  11    0.65    0.43
  10  11  11    3.11    0.56
  -8  12  11    0.36    0.68
  -8  12  11    0.59    0.54
  -7  12  11    6.65    0.64
  -7  12  11    5.83    0.72
   6 -12 -11    3.34    0.47
  -6  12  11    3.70    0.61
  -6  12  11    3.19    0.50
   5 -12 -11    1.98    0.37
  -5  12  11    2.83    0.46
   4 -12 -11   28.45    1.11
  -4  12  11   25.59    1.12
   3 -12 -11   47.74    1.68
  -3  12  11   45.36    1.65
   2 -12 -11    7.21    0.48
  -2  12  11    6.10    0.43
  -2  12  11    6.51    0.52
   1 -12 -11    1.75    0.27
  -1  12  11    1.69    0.25
  -1  12  11    1.92    0.33
  -1  12  11    2.12    0.34
   0 -12 -11    0.83    0.28
   0 -12 -11    0.78    0.23
   0  12  11    0.91    0.28
   0  12  11    0.91    0.28
   0  12  11    1.02    0.23
   0  12  11    0.80    0.30
  -1 -12 -11   11.96    0.58
  -1 -12 -11   12.23    0.59
   1  12  11   11.51    0.58
   1  12  11   10.32    0.58
   1  12  11   11.48    0.50
  -2 -12 -11    0.89    0.25
  -2 -12 -11    0.94    0.23
   2  12  11    0.62    0.22
   2  12  11    0.70    0.28
   2  12  11    1.02    0.29
  -3 -12 -11    3.47    0.32
   3  12  11    4.22    0.31
   3  12  11    3.17    0.32
   3  12  11    3.96    0.37
   3  12  11    3.57    0.36
  -4 -12 -11    6.75    0.51
   4  12  11    6.85    0.41
   4  12  11    7.13    0.57
   4  12  11    7.94    0.51
   4  12  11    6.70    0.49
   5  12  11    8.03    0.53
   5  12  11    9.76    0.62
   5  12  11    7.56    0.43
   6  12  11    2.23    0.35
   6  12  11    2.03    0.33
   7  12  11   11.93    0.67
   8  12  11   13.19    0.74
   9  12  11    2.23    0.49
  10  12  11    2.43    0.53
  -7  13  11    1.60    0.54
  -7  13  11    3.56    0.66
   6 -13 -11    6.14    0.56
  -6  13  11    6.54    0.64
  -6  13  11    6.64    0.68
   5 -13 -11    9.76    0.65
  -5  13  11    8.13    0.70
  -5  13  11    9.94    0.68
   4 -13 -11    0.18    0.29
  -4  13  11    0.45    0.37
   3 -13 -11    0.13    0.26
  -3  13  11   -0.21    0.32
   2 -13 -11    1.30    0.28
  -2  13  11    1.66    0.34
  -2  13  11    1.57    0.34
  -2  13  11    1.43    0.27
  -1  13  11   -0.05    0.27
  -1  13  11   -0.09    0.21
  -1  13  11   -0.12    0.27
   0  13  11    0.62    0.26
   0  13  11    0.38    0.21
   0  13  11    0.42    0.26
  -1 -13 -11   -0.14    0.25
   1  13  11   -0.01    0.23
   1  13  11   -0.02    0.25
   1  13  11    0.01    0.20
   2  13  11    5.62    0.41
   2  13  11    6.93    0.40
   2  13  11    6.42    0.43
   3  13  11    5.83    0.41
   3  13  11    5.58    0.39
   3  13  11    6.54    0.42
   3  13  11    6.01    0.40
   4  13  11   14.95    0.73
   4  13  11   14.33    0.63
   4  13  11   13.71    0.57
   4  13  11   14.18    0.63
   5  13  11    9.67    0.53
   5  13  11   10.14    0.49
   5  13  11    9.99    0.57
   5  13  11   11.61    0.65
   6  13  11    3.14    0.36
   6  13  11    3.02    0.37
   7  13  11    7.71    0.54
   8  13  11    1.73    0.39
   9  13  11   -0.17    0.41
  -6  14  11    0.31    0.49
  -5  14  11    0.93    0.43
  -4  14  11    7.44    0.59
  -3  14  11    4.90    0.44
  -2  14  11    5.81    0.46
  -2  14  11    5.70    0.43
  -2  14  11    6.25    0.46
  -1  14  11   31.21    1.02
  -1  14  11   30.83    1.10
  -1  14  11   32.33    1.11
  -1  14  11   32.14    1.11
   0  14  11   14.99    0.62
   0  14  11   14.23    0.60
   0  14  11   14.85    0.59
   1  14  11    5.49    0.37
   1  14  11    5.08    0.37
   1  14  11    5.49    0.35
   2  14  11    1.75    0.25
   2  14  11    2.05    0.24
   2  14  11    2.13    0.23
   3  14  11    2.12    0.24
   3  14  11    1.76    0.25
   3  14  11    2.04    0.25
   3  14  11    1.71    0.29
   4  14  11    2.76    0.28
   4  14  11    2.89    0.33
   4  14  11    3.09    0.28
   4  14  11    3.28    0.29
   5  14  11    0.64    0.30
   5  14  11    0.42    0.22
   5  14  11    0.69    0.24
   5  14  11    0.19    0.22
   6  14  11    0.98    0.26
   6  14  11    0.56    0.28
   6  14  11    0.26    0.32
   7  14  11    0.30    0.34
   7  14  11   -0.17    0.28
   8  14  11    2.34    0.40
   9  14  11    1.75    0.45
  -6  15  11    1.02    0.54
  -5  15  11    3.50    0.51
  -4  15  11   10.46    0.63
  -3  15  11   15.90    0.68
  -3  15  11   15.48    0.69
  -2  15  11   10.69    0.50
  -2  15  11   10.48    0.54
  -2  15  11   10.41    0.51
  -1  15  11   14.49    0.57
  -1  15  11   14.18    0.57
  -1  15  11   16.11    0.62
   0  15  11    1.86    0.27
   1  15  11   -0.12    0.22
   2  15  11    1.85    0.27
   3  15  11   -0.42    0.26
   3  15  11   -0.18    0.22
   4  15  11   -0.25    0.28
   4  15  11   -0.21    0.23
   5  15  11    2.78    0.30
   5  15  11    2.70    0.37
   6  15  11   11.45    0.49
   6  15  11   12.59    0.82
   7  15  11    8.01    0.45
   7  15  11    9.99    0.82
   7  15  11    8.51    0.45
   8  15  11    4.45    0.38
   8  15  11    4.94    0.39
  -5  16  11    1.40    0.39
  -4  16  11    0.12    0.25
  -4  16  11   -0.32    0.27
  -3  16  11    0.01    0.24
  -3  16  11    0.56    0.21
  -2  16  11    2.63    0.34
  -1  16  11    4.38    0.35
   0  16  11    1.84    0.29
   1  16  11    0.59    0.25
   2  16  11    7.65    0.46
   3  16  11    1.73    0.29
   3  16  11    1.46    0.33
   4  16  11    5.61    0.42
   4  16  11    5.32    0.43
   5  16  11    7.45    0.47
   5  16  11    8.45    0.72
   6  16  11    1.73    0.39
   7  16  11    3.15    0.46
  -2  17  11    7.73    0.55
  -1  17  11   12.47    0.61
   0  17  11    8.57    0.51
   1  17  11   16.57    0.67
   2  17  11    6.00    0.46
   3  17  11    2.83    0.38
   3  17  11    2.52    0.32
   4  17  11    0.79    0.35
   4  17  11    0.84    0.28
   5  17  11    0.58    0.36
   5  17  11    0.48    0.28
   6  17  11    0.51    0.38
  -2  18  11    2.99    0.39
  -1  18  11    7.62    0.54
   0  18  11    6.13    0.42
   1  18  11    1.35    0.31
   2  18  11   -0.09    0.29
   3  18  11    0.86    0.36
   3  18  11    0.61    0.31
   4  18  11    0.39    0.36
   4  18  11   -0.06    0.28
   5  18  11    0.51    0.31
   5  18  11    0.77    0.39
   2  19  11    7.43    0.53
   4  10 -12    6.62    0.61
   3  10 -12    5.44    0.56
   2  10 -12    3.10    0.52
   1  10 -12    3.51    0.52
   0  10 -12    2.81    0.53
  -1  10 -12    0.52    0.51
   6   9 -12    4.73    0.61
   5   9 -12    1.67    0.52
   4   9 -12    3.83    0.52
   3   9 -12    6.76    0.57
   2   9 -12    1.04    0.46
   1   9 -12    2.52    0.47
   0   9 -12   -0.05    0.44
  -1   9 -12    0.12    0.46
  -2   9 -12    1.46    0.52
  -3   9 -12    4.21    0.38
   7   8 -12    0.27    0.30
   7   8 -12    0.23    0.27
   6   8 -12   -0.02    0.49
   6   8 -12   -0.53    0.24
   5   8 -12    0.04    0.48
   4   8 -12   -0.54    0.43
   3   8 -12    0.28    0.41
   2   8 -12    6.79    0.53
   1   8 -12   13.68    0.83
   0   8 -12    2.01    0.25
   0   8 -12    3.12    0.46
  -1   8 -12    3.79    0.33
  -1   8 -12    3.04    0.32
  -1   8 -12    4.32    0.51
  -2   8 -12    2.96    0.34
  -2   8 -12    2.35    0.34
  -2   8 -12    3.63    0.51
  -3   8 -12    0.99    0.34
  -3   8 -12    0.43    0.32
  -4   8 -12    6.66    0.60
   7   7 -12   -0.19    0.35
   6   7 -12    1.03    0.35
   6   7 -12    0.92    0.30
   5   7 -12    7.26    0.57
   5   7 -12    7.14    0.51
   5   7 -12    6.61    0.45
   4   7 -12   10.91    0.54
   4   7 -12   11.22    0.59
   4   7 -12   13.65    0.81
   3   7 -12    8.25    0.47
   3   7 -12    8.30    0.70
   3   7 -12    8.50    0.51
   2   7 -12   13.38    0.77
   2   7 -12   11.88    0.57
   2   7 -12   12.63    0.60
   1   7 -12    6.75    0.46
   1   7 -12    7.62    0.52
   1   7 -12    5.98    0.43
   0   7 -12    4.99    0.41
   0   7 -12    5.45    0.48
   0   7 -12    5.41    0.45
  -1   7 -12    2.54    0.43
  -1   7 -12    2.75    0.35
  -1   7 -12    2.07    0.34
  -2   7 -12    0.22    0.31
  -2   7 -12    0.39    0.41
  -2   7 -12    0.25    0.32
  -3   7 -12    0.39    0.36
  -4   7 -12   -0.23    0.38
  -5   7 -12    1.30    0.49
  -6   7 -12    1.52    0.62
   8   6 -12    3.32    0.53
   7   6 -12    4.41    0.49
   6   6 -12    1.81    0.37
   5   6 -12    3.65    0.45
   5   6 -12    2.76    0.37
   4   6 -12    9.37    0.60
   4   6 -12   10.09    0.56
   4   6 -12   10.92    0.74
   3   6 -12    0.89    0.35
   3   6 -12    0.64    0.29
   3   6 -12    1.21    0.35
   2   6 -12    8.44    0.63
   2   6 -12    7.43    0.49
   2   6 -12    6.76    0.52
   1   6 -12   -0.22    0.31
   1   6 -12    0.21    0.28
   1   6 -12    0.00    0.29
   1   6 -12   -0.04    0.33
   0   6 -12   -0.29    0.30
   0   6 -12   -0.22    0.29
   0   6 -12    0.04    0.32
   0   6 -12    0.05    0.30
  -1   6 -12   -0.57    0.30
  -1   6 -12   -0.18    0.31
  -1   6 -12    0.36    0.34
  -1   6 -12    0.79    0.32
  -2   6 -12    2.54    0.42
  -2   6 -12    2.44    0.38
  -2   6 -12    3.25    0.40
  -3   6 -12    1.75    0.39
  -3   6 -12    2.54    0.43
  -4   6 -12    2.51    0.43
  -4   6 -12    2.38    0.47
  -5   6 -12    2.62    0.56
  -5   6 -12    2.19    0.48
  -6   6 -12    7.09    0.74
  -6   6 -12    6.24    0.64
   9   5 -12    0.95    0.53
   8   5 -12    4.00    0.54
   7   5 -12    0.36    0.39
   7   5 -12    0.39    0.44
   6   5 -12    1.25    0.37
   6   5 -12    1.53    0.41
   5   5 -12    1.00    0.34
   5   5 -12    0.99    0.36
   5   5 -12    0.39    0.33
   4   5 -12    4.65    0.43
   4   5 -12    4.42    0.42
   4   5 -12    3.70    0.40
   3   5 -12    0.43    0.29
   3   5 -12    0.35    0.29
   3   5 -12   -0.42    0.31
   2   5 -12    3.87    0.43
   2   5 -12    3.83    0.39
   2   5 -12    4.38    0.40
   2   5 -12    3.83    0.38
   1   5 -12   24.00    0.97
   1   5 -12   24.01    1.00
   1   5 -12   22.91    0.93
   1   5 -12   23.08    0.94
  -1  -5  12   21.78    0.96
   0   5 -12   18.83    0.83
   0   5 -12   16.32    0.76
   0   5 -12   16.44    0.79
   0   5 -12   18.17    0.85
   0  -5  12   17.70    0.78
  -1   5 -12   25.03    1.05
  -1   5 -12   29.15    1.12
  -1   5 -12   28.24    1.11
  -2   5 -12    5.78    0.51
  -2   5 -12    5.85    0.48
  -2   5 -12    5.49    0.48
  -3   5 -12    5.19    0.50
  -3   5 -12    4.43    0.45
  -4   5 -12    2.67    0.47
  -4   5 -12    2.97    0.43
  -5   5 -12    1.70    0.51
  -5   5 -12    0.68    0.38
  -6   5 -12    0.73    0.58
  -6   5 -12    0.55    0.43
  -7   5 -12    0.46    0.61
  -7   5 -12    1.47    0.53
   9   4 -12    0.01    0.52
   9   4 -12   -0.08    0.56
  -9  -4  12   -0.23    0.67
   8   4 -12    1.04    0.50
   8   4 -12    0.39    0.43
   7   4 -12    2.31    0.45
   7   4 -12    3.41    0.50
   6   4 -12    0.17    0.34
   6   4 -12    0.94    0.39
   5   4 -12    0.43    0.33
   5   4 -12   -0.13    0.31
   4   4 -12    3.54    0.39
   4   4 -12    3.42    0.39
   4   4 -12    3.18    0.40
   3   4 -12    3.78    0.40
   3   4 -12    4.50    0.41
   3   4 -12    4.54    0.43
   2   4 -12   35.01    1.33
   2   4 -12   38.97    1.35
   2   4 -12   38.69    1.41
   1   4 -12   16.83    0.78
   1   4 -12   16.09    0.78
   1   4 -12   14.49    0.73
  -1  -4  12   15.69    0.73
   0   4 -12    9.68    0.66
   0   4 -12    9.84    0.62
   0   4 -12    8.97    0.56
   0  -4  12    9.76    0.55
  -1   4 -12    1.19    0.36
  -1   4 -12    1.46    0.32
  -1   4 -12    1.11    0.35
   1  -4  12    2.18    0.34
  -2   4 -12    9.72    0.73
  -2   4 -12    9.92    0.61
  -2   4 -12   11.17    0.68
  -3   4 -12    0.19    0.33
  -3   4 -12   -0.12    0.33
  -4   4 -12    0.11    0.39
  -4   4 -12   -0.35    0.33
  -5   4 -12   -0.61    0.35
  -5   4 -12   -0.33    0.45
  -6   4 -12   -0.45    0.38
  -6   4 -12    1.00    0.51
  -7   4 -12    1.78    0.50
  -7   4 -12    2.60    0.63
  -8   4 -12    6.44    0.71
  -8   4 -12    5.87    0.83
   9   3 -12    4.41    0.68
   9   3 -12    3.56    0.59
  -9  -3  12    2.61    0.74
   8   3 -12    4.46    0.56
   8   3 -12    4.95    0.61
   7   3 -12    2.54    0.48
   7   3 -12    1.76    0.45
   6   3 -12    0.74    0.38
   6   3 -12    1.30    0.39
   5   3 -12    8.06    0.59
   5   3 -12    7.39    0.61
   4   3 -12    6.39    0.54
   4   3 -12    7.55    0.57
   4   3 -12    7.14    0.62
   3   3 -12   -0.19    0.29
   3   3 -12    0.04    0.28
   3   3 -12   -0.14    0.28
   2   3 -12    2.43    0.35
   2   3 -12    2.22    0.37
   2   3 -12    1.86    0.35
   1   3 -12    0.30    0.26
   1   3 -12    0.08    0.31
   1   3 -12    0.30    0.30
  -1  -3  12   -0.03    0.28
   0   3 -12    0.21    0.30
   0   3 -12    0.76    0.30
   0   3 -12    0.72    0.33
   0  -3  12    0.43    0.29
  -1   3 -12    0.57    0.33
  -1   3 -12    0.83    0.33
  -1   3 -12    0.28    0.28
   1  -3  12    0.93    0.28
  -2   3 -12    0.26    0.33
  -2   3 -12    0.62    0.34
  -2   3 -12    1.35    0.33
  -3   3 -12   31.14    1.20
  -3   3 -12   29.60    1.20
  -4   3 -12    5.16    0.49
  -4   3 -12    5.37    0.51
  -5   3 -12    5.67    0.53
  -5   3 -12    6.74    0.59
  -6   3 -12    2.57    0.45
  -6   3 -12    2.97    0.59
  -7   3 -12    8.11    0.75
  -7   3 -12    8.32    0.67
  -8   3 -12    3.36    0.75
  10   2 -12    5.96    0.81
 -10  -2  12    5.62    0.85
   9   2 -12    3.46    0.67
   9   2 -12    3.07    0.57
   8   2 -12    1.80    0.47
   8   2 -12    2.16    0.55
   7   2 -12    1.17    0.43
   7   2 -12    0.75    0.43
   6   2 -12    0.22    0.34
   6   2 -12    0.31    0.39
   5   2 -12   -0.07    0.36
   5   2 -12   -0.32    0.31
   4   2 -12    0.89    0.31
   4   2 -12    0.23    0.35
   3   2 -12    0.67    0.30
   3   2 -12    0.46    0.30
   3   2 -12    0.38    0.32
   2   2 -12    0.72    0.30
   2   2 -12    0.33    0.28
   2   2 -12    0.64    0.33
   1   2 -12    6.09    0.52
   1   2 -12    6.16    0.53
   1   2 -12    5.82    0.44
   0   2 -12   24.06    1.00
   0   2 -12   23.56    0.97
   0   2 -12   23.75    1.01
   0  -2  12   23.13    0.90
  -1   2 -12   23.31    0.97
  -1   2 -12   21.56    0.94
  -1   2 -12   24.33    0.99
   1  -2  12   23.09    0.88
  -2   2 -12   46.27    1.69
  -2   2 -12   49.03    1.68
  -2   2 -12   49.49    1.76
  -3   2 -12    0.31    0.35
  -3   2 -12    0.05    0.31
  -4   2 -12    9.40    0.70
  -4   2 -12    9.47    0.66
  -5   2 -12   -0.20    0.38
  -5   2 -12    0.27    0.35
  -6   2 -12    0.90    0.48
  -6   2 -12    1.48    0.43
  -7   2 -12    4.14    0.62
  -8   2 -12   -0.09    0.66
  -9   2 -12    0.90    0.72
  10   1 -12    0.00    0.64
 -10  -1  12    0.54    0.71
   9   1 -12    0.12    0.55
   8   1 -12   -0.09    0.39
   8   1 -12    0.11    0.48
   7   1 -12   -0.93    0.38
   7   1 -12    0.22    0.44
   6   1 -12    2.85    0.45
   6   1 -12    2.84    0.46
   5   1 -12    2.08    0.43
   5   1 -12    1.93    0.36
   4   1 -12    2.46    0.35
   4   1 -12    2.02    0.41
   3   1 -12    0.58    0.28
   3   1 -12    0.37    0.29
   3   1 -12    0.58    0.37
   2   1 -12    0.36    0.30
   2   1 -12    0.48    0.26
   2   1 -12    0.20    0.32
   2   1 -12   -0.05    0.29
   1   1 -12   28.51    1.11
   1   1 -12   28.76    1.16
   1   1 -12   29.36    1.14
   0   1 -12   27.72    1.12
   0   1 -12   27.38    1.11
   0   1 -12   28.76    1.11
   0  -1  12   27.84    1.01
  -1   1 -12   13.15    0.74
  -1   1 -12   12.82    0.72
  -1   1 -12   12.95    0.73
   1  -1  12   13.36    0.57
  -2   1 -12    0.21    0.33
  -2   1 -12    0.42    0.32
  -3   1 -12    1.23    0.34
  -3   1 -12    1.01    0.36
  -4   1 -12    2.68    0.39
  -4   1 -12    3.04    0.44
  -5   1 -12    2.21    0.43
  -5   1 -12    1.75    0.42
  -6   1 -12    0.97    0.39
  -6   1 -12    0.69    0.49
  -7   1 -12   10.61    0.95
  -8   1 -12    1.72    0.63
  -9   1 -12    4.84    0.79
  10   0 -12    1.59    0.73
 -10   0  12    0.66    0.77
   9   0 -12    0.73    0.62
   8   0 -12    2.58    0.53
   7   0 -12   27.13    1.20
   7   0 -12   30.43    1.29
   6   0 -12   18.13    0.90
   6   0 -12   18.37    0.90
   5   0 -12    7.02    0.60
   5   0 -12    7.54    0.58
   4   0 -12   16.15    0.80
   4   0 -12   15.59    0.81
   3   0 -12    1.10    0.28
   3   0 -12    0.85    0.37
   3   0 -12    0.60    0.31
   2   0 -12    0.34    0.29
   2   0 -12    0.88    0.36
   2   0 -12    0.63    0.29
   2   0 -12    1.09    0.26
   1   0 -12   -0.02    0.26
   1   0 -12   -0.12    0.28
   1   0 -12    0.69    0.36
   1   0 -12    0.24    0.23
   0   0 -12    0.17    0.27
   0   0 -12    0.00    0.33
   0   0 -12    0.17    0.30
  -1   0 -12    1.65    0.33
  -1   0 -12    1.54    0.37
  -1   0 -12    0.97    0.34
   1   0  12    1.57    0.23
  -2   0 -12    2.91    0.43
  -2   0 -12    2.48    0.36
  -3   0 -12   -0.03    0.29
  -3   0 -12    0.56    0.35
  -4   0 -12   21.88    0.97
  -4   0 -12   21.82    0.97
  -5   0 -12    3.25    0.44
  -5   0 -12    3.40    0.46
  -6   0 -12    3.90    0.54
  -7   0 -12    4.49    0.62
  -8   0 -12    5.08    0.68
  -9   0 -12    3.43    0.74
  10  -1 -12   10.54    0.98
 -10   1  12    6.06    0.87
   9  -1 -12    4.88    0.68
   8  -1 -12    6.94    0.65
   7  -1 -12    2.91    0.49
   6  -1 -12    8.13    0.65
   6  -1 -12    8.63    0.69
   5  -1 -12   18.72    0.87
   5  -1 -12   17.20    0.88
   4  -1 -12   -0.14    0.36
   4  -1 -12   -0.07    0.28
   3  -1 -12    2.07    0.30
   3  -1 -12    1.53    0.34
   3  -1 -12    1.93    0.35
   3  -1 -12    3.31    0.44
   2  -1 -12    2.56    0.34
   2  -1 -12    2.06    0.26
   2  -1 -12    2.52    0.41
   1  -1 -12    1.40    0.23
   1  -1 -12    1.25    0.31
   1  -1 -12    1.58    0.37
   1  -1 -12    0.87    0.29
   0  -1 -12    1.20    0.30
   0  -1 -12    1.52    0.32
   0  -1 -12    1.76    0.36
  -1  -1 -12   55.70    1.87
  -1  -1 -12   52.50    1.90
  -2  -1 -12   38.17    1.40
  -2  -1 -12   37.32    1.42
  -3  -1 -12   24.97    1.05
  -3  -1 -12   25.36    1.06
  -4  -1 -12   28.97    1.18
  -4  -1 -12   27.11    1.14
  -5  -1 -12   13.39    0.76
  -6  -1 -12    2.42    0.45
  -7  -1 -12    0.19    0.47
  -8  -1 -12   -0.14    0.55
  -9  -1 -12    2.53    0.74
 -10  -1 -12   -0.16    0.73
  10  -2 -12    0.79    0.71
 -10   2  12   -0.19    0.76
   9  -2 -12    0.47    0.61
  -9   2  12    0.86    0.70
   8  -2 -12    0.49    0.49
   7  -2 -12    4.03    0.52
   6  -2 -12    5.47    0.52
   5  -2 -12   29.88    1.22
   5  -2 -12   30.25    1.22
   4  -2 -12   24.72    1.01
   4  -2 -12   22.19    1.03
   3  -2 -12    0.51    0.29
   3  -2 -12    0.18    0.29
   3  -2 -12    0.15    0.36
   3  -2 -12    0.41    0.26
   2  -2 -12   10.55    0.49
   2  -2 -12   11.41    0.64
   2  -2 -12    8.75    0.64
   2  -2 -12   10.62    0.58
   1  -2 -12    3.85    0.31
   1  -2 -12    3.35    0.43
   1  -2 -12    3.45    0.35
   0  -2 -12   13.46    0.71
   0  -2 -12   13.70    0.72
  -1  -2 -12   10.48    0.64
  -1  -2 -12   11.59    0.67
  -2  -2 -12    6.59    0.55
  -2  -2 -12    5.51    0.50
  -3  -2 -12    0.05    0.30
  -3  -2 -12    0.92    0.36
  -4  -2 -12    0.72    0.37
  -4  -2 -12    0.36    0.31
  -5  -2 -12    2.35    0.37
  -6  -2 -12    0.75    0.39
  -7  -2 -12    0.32    0.45
  -8  -2 -12    2.65    0.58
  -9  -2 -12    4.19    0.71
 -10  -2 -12    7.48    0.87
  10  -3 -12    4.66    0.79
 -10   3  12    4.28    0.83
   9  -3 -12    3.98    0.65
  -9   3  12    2.59    0.76
   8  -3 -12    5.96    0.62
   7  -3 -12    5.18    0.55
   6  -3 -12    8.87    0.66
   5  -3 -12   28.54    1.17
   4  -3 -12   52.10    1.89
   4  -3 -12   53.26    1.86
   3  -3 -12   65.23    2.33
   3  -3 -12   69.97    2.28
   3  -3 -12   66.43    2.33
   3  -3 -12   67.66    2.22
   2  -3 -12    7.64    0.40
   2  -3 -12    7.69    0.50
   2  -3 -12    7.35    0.59
   2  -3 -12    6.86    0.55
   1  -3 -12    0.79    0.20
   1  -3 -12    1.01    0.28
   1  -3 -12    0.86    0.37
   0  -3 -12   -0.06    0.26
   0  -3 -12    0.23    0.33
  -1  -3 -12   -0.12    0.25
  -1  -3 -12   -0.16    0.33
  -2  -3 -12    9.40    0.64
  -2  -3 -12    8.80    0.60
  -3  -3 -12   10.07    0.66
  -3  -3 -12   10.31    0.64
  -4  -3 -12    8.77    0.62
  -5  -3 -12   36.62    1.41
  -6  -3 -12   38.57    1.50
  -7  -3 -12   17.58    0.95
  -8  -3 -12    2.81    0.57
  -9  -3 -12    0.96    0.61
 -10  -3 -12    1.35    0.71
  10  -4 -12    9.62    0.86
 -10   4  12    6.65    0.90
   9  -4 -12    6.51    0.72
  -9   4  12    5.89    0.90
   8  -4 -12    9.40    0.82
   7  -4 -12    7.74    0.70
   6  -4 -12    6.50    0.60
   5  -4 -12    0.69    0.31
   4  -4 -12    3.20    0.38
   3  -4 -12    6.03    0.53
   3  -4 -12    6.06    0.51
   2  -4 -12    1.42    0.24
   2  -4 -12    2.10    0.32
   2  -4 -12    2.22    0.37
  -2   4  12    1.99    0.43
   1  -4 -12   14.68    0.75
   1  -4 -12   13.38    0.71
   1  -4 -12   13.48    0.53
  -1   4  12   14.54    0.77
   0  -4 -12    3.14    0.42
   0  -4 -12    3.06    0.34
   0  -4 -12    2.59    0.19
   0   4  12    2.55    0.42
  -1  -4 -12    5.67    0.52
  -1  -4 -12    5.58    0.49
   1   4  12    3.84    0.46
  -2  -4 -12   39.75    1.43
  -2  -4 -12   38.80    1.42
   2   4  12   36.21    1.41
  -3  -4 -12    0.34    0.28
   3   4  12    0.31    0.34
  -4  -4 -12   24.70    1.05
  -5  -4 -12    9.48    0.64
  -6  -4 -12    2.63    0.41
  -7  -4 -12    0.71    0.42
  -8  -4 -12    1.77    0.55
  -9  -4 -12    0.34    0.61
 -10  -4 -12   -0.14    0.71
  10  -5 -12    1.53    0.71
 -10   5  12    0.00    0.77
   9  -5 -12    0.24    0.56
  -9   5  12   -0.07    0.80
   8  -5 -12    3.78    0.57
   7  -5 -12    1.07    0.47
   6  -5 -12    3.62    0.45
   5  -5 -12    0.36    0.30
   4  -5 -12    4.21    0.41
   3  -5 -12    9.00    0.64
  -3   5  12    8.58    0.67
   2  -5 -12   51.02    1.79
  -2   5  12   48.30    1.76
   1  -5 -12  105.07    3.79
   1  -5 -12  117.61    3.79
  -1   5  12  120.98    3.67
   0  -5 -12   24.29    1.04
   0  -5 -12   24.40    0.99
   0   5  12   25.42    1.04
  -1  -5 -12   38.35    1.38
   1   5  12   35.84    1.35
  -2  -5 -12   18.50    0.84
   2   5  12   18.86    0.87
   2   5  12   18.21    0.88
  -3  -5 -12    0.15    0.28
   3   5  12    0.36    0.38
  -4  -5 -12   -0.26    0.29
   4   5  12   -0.26    0.37
  -5  -5 -12    6.78    0.58
  -6  -5 -12   11.59    0.76
  -7  -5 -12    1.67    0.42
  -8  -5 -12    5.06    0.59
  -9  -5 -12    4.82    0.69
 -10  -5 -12    2.20    0.72
  10  -6 -12    2.84    0.75
 -10   6  12    2.33    0.79
   9  -6 -12    0.79    0.62
  -9   6  12    0.71    0.73
   8  -6 -12    6.32    0.68
   7  -6 -12   37.67    1.52
   6  -6 -12   22.94    1.05
   5  -6 -12   14.62    0.79
   4  -6 -12   11.38    0.67
  -4   6  12   12.03    0.73
   3  -6 -12    0.20    0.27
  -3   6  12   -0.02    0.38
   2  -6 -12   29.78    1.27
   2  -6 -12   36.25    1.29
  -2   6  12   36.60    1.33
   1  -6 -12    7.34    0.50
   1  -6 -12    7.73    0.56
  -1   6  12    7.58    0.61
   0  -6 -12    0.53    0.26
   0  -6 -12    0.56    0.28
   0   6  12    0.33    0.36
   0   6  12    0.29    0.23
  -1  -6 -12    0.18    0.26
   1   6  12    0.54    0.36
   1   6  12    0.10    0.23
   1   6  12    0.20    0.27
  -2  -6 -12    8.20    0.56
   2   6  12    6.74    0.61
   2   6  12    7.92    0.59
   2   6  12    7.81    0.45
   2   6  12    7.74    0.52
  -3  -6 -12    1.08    0.30
   3   6  12    1.13    0.29
   3   6  12    1.55    0.40
  -4  -6 -12   13.20    0.71
   4   6  12   12.94    0.76
  -5  -6 -12   16.60    0.81
   5   6  12   16.83    0.89
  -6  -6 -12   14.55    0.78
  -7  -6 -12    3.43    0.46
  -8  -6 -12    6.08    0.62
  -9  -6 -12    4.63    0.64
 -10  -6 -12    5.44    0.77
   9  -7 -12    5.56    0.71
  -9   7  12    4.51    0.86
   8  -7 -12   11.75    0.91
  -8   7  12    8.83    0.90
   7  -7 -12    3.50    0.51
   6  -7 -12   10.87    0.71
   5  -7 -12   25.60    1.08
   4  -7 -12    5.23    0.44
  -4   7  12    4.82    0.51
   3  -7 -12    1.03    0.30
  -3   7  12    1.18    0.43
   2  -7 -12    1.52    0.33
   2  -7 -12    1.31    0.31
  -2   7  12    1.27    0.40
   1  -7 -12   26.09    1.05
   1  -7 -12   27.12    1.05
  -1   7  12   26.55    0.88
  -1   7  12   25.14    1.07
   0  -7 -12   15.64    0.71
   0  -7 -12   15.18    0.74
   0   7  12   16.32    0.61
   0   7  12   15.57    0.78
  -1  -7 -12   24.94    1.02
  -1  -7 -12   26.12    1.01
   1   7  12   25.33    0.86
   1   7  12   24.32    1.03
   1   7  12   25.31    1.02
  -2  -7 -12   26.46    1.08
   2   7  12   26.95    1.04
   2   7  12   25.78    1.06
   2   7  12   26.44    0.88
   2   7  12   25.78    1.04
   2   7  12   25.95    1.08
  -3  -7 -12   44.39    1.64
   3   7  12   45.07    1.64
   3   7  12   47.68    1.66
  -4  -7 -12   35.00    1.33
   4   7  12   36.13    1.37
   4   7  12   34.57    1.31
  -5  -7 -12   15.89    0.79
   5   7  12   16.36    0.74
   5   7  12   17.20    0.84
  -6  -7 -12    6.60    0.61
   6   7  12    6.41    0.57
  -7  -7 -12    2.90    0.43
  -8  -7 -12    0.85    0.46
  -9  -7 -12    0.21    0.50
 -10  -7 -12   -0.45    0.62
   9  -8 -12    2.31    0.62
  -9   8  12    0.88    0.79
   8  -8 -12   -0.12    0.49
  -8   8  12   -0.26    0.75
   7  -8 -12    2.70    0.49
   6  -8 -12    7.84    0.65
   5  -8 -12    8.75    0.65
  -5   8  12    8.08    0.67
   4  -8 -12   28.09    1.15
  -4   8  12   29.81    1.21
   3  -8 -12   13.12    0.68
  -3   8  12   13.36    0.75
   2  -8 -12   19.04    0.83
  -2   8  12   18.63    0.88
   1  -8 -12    0.52    0.27
   1  -8 -12    0.53    0.29
  -1   8  12    0.51    0.36
  -1   8  12    0.83    0.25
   0  -8 -12   14.93    0.70
   0  -8 -12   15.76    0.76
   0   8  12   14.84    0.76
   0   8  12   15.27    0.61
  -1  -8 -12   42.60    1.48
  -1  -8 -12   39.70    1.49
   1   8  12   40.42    1.24
   1   8  12   40.51    1.48
   1   8  12   39.50    1.48
  -2  -8 -12   55.73    1.94
   2   8  12   55.68    1.90
   2   8  12   55.78    1.95
   2   8  12   55.20    1.64
   2   8  12   54.74    1.90
  -3  -8 -12    6.78    0.53
   3   8  12    6.00    0.43
   3   8  12    5.74    0.41
   3   8  12    6.20    0.47
   3   8  12    6.95    0.57
  -4  -8 -12    3.35    0.38
   4   8  12    3.49    0.35
   4   8  12    3.27    0.44
  -5  -8 -12    2.31    0.36
   5   8  12    2.26    0.41
  -6  -8 -12    2.01    0.34
   6   8  12    2.34    0.42
  -7  -8 -12    1.30    0.37
   7   8  12    1.43    0.43
  -8  -8 -12    6.63    0.60
  -9  -8 -12    2.09    0.56
 -10  -8 -12    3.84    0.67
   9  -9 -12    1.06    0.63
  -9   9  12   -0.22    0.71
   8  -9 -12    2.55    0.60
  -8   9  12    1.81    0.73
   7  -9 -12    6.56    0.63
   6  -9 -12   10.64    0.75
  -6   9  12    9.22    0.69
   5  -9 -12   20.05    0.92
  -5   9  12   20.50    0.96
   4  -9 -12   34.33    1.32
  -4   9  12   35.10    1.37
   3  -9 -12   20.54    0.91
  -3   9  12   20.66    0.94
   2  -9 -12    6.58    0.52
  -2   9  12    6.20    0.56
   1  -9 -12    8.53    0.55
   1  -9 -12    8.13    0.53
  -1   9  12    8.87    0.48
  -1   9  12    8.99    0.63
   0  -9 -12    0.61    0.28
   0  -9 -12    0.82    0.25
   0   9  12    0.97    0.37
   0   9  12    0.51    0.24
  -1  -9 -12    4.20    0.35
  -1  -9 -12    3.63    0.36
   1   9  12    3.44    0.30
   1   9  12    4.35    0.43
  -2  -9 -12    1.95    0.31
  -2  -9 -12    1.74    0.30
   2   9  12    1.76    0.28
   2   9  12    2.11    0.31
   2   9  12    1.90    0.40
   2   9  12    1.78    0.37
  -3  -9 -12   41.55    1.52
   3   9  12   41.84    1.30
   3   9  12   42.82    1.48
   3   9  12   41.83    1.52
   3   9  12   42.75    1.52
  -4  -9 -12   22.23    0.94
   4   9  12   22.72    0.95
   4   9  12   22.16    0.90
   4   9  12   22.00    0.97
  -5  -9 -12   22.51    0.97
   5   9  12   21.56    0.98
  -6  -9 -12   14.96    0.78
   6   9  12   13.62    0.78
  -7  -9 -12   21.89    1.00
   7   9  12   21.29    1.00
  -8  -9 -12   17.65    0.95
   8   9  12   16.17    0.89
  -9  -9 -12    2.82    0.54
   9   9  12    1.64    0.46
 -10  -9 -12    1.38    0.59
   8 -10 -12    3.29    0.61
  -8  10  12    3.14    0.72
   7 -10 -12    4.02    0.53
  -7  10  12    3.94    0.75
   6 -10 -12    3.08    0.44
  -6  10  12    3.02    0.48
   5 -10 -12    0.53    0.33
  -5  10  12    0.80    0.42
   4 -10 -12    0.14    0.28
  -4  10  12   -0.22    0.36
   3 -10 -12   -0.36    0.25
  -3  10  12    0.38    0.38
   2 -10 -12    2.73    0.33
  -2  10  12    2.87    0.42
   1 -10 -12   14.21    0.71
  -1  10  12   15.55    0.77
  -1  10  12   15.32    0.61
   0 -10 -12   26.64    1.08
   0 -10 -12   27.83    1.09
   0  10  12   28.72    0.92
   0  10  12   28.11    1.09
  -1 -10 -12    3.50    0.34
  -1 -10 -12    2.87    0.34
   1  10  12    3.47    0.30
   1  10  12    3.92    0.42
   1  10  12    3.89    0.42
  -2 -10 -12    2.39    0.32
  -2 -10 -12    3.35    0.34
   2  10  12    2.91    0.40
   2  10  12    2.94    0.29
   2  10  12    2.16    0.33
  -3 -10 -12   -0.04    0.25
   3  10  12    0.18    0.25
   3  10  12    0.04    0.24
   3  10  12    0.16    0.32
   3  10  12    0.29    0.24
  -4 -10 -12   69.93    2.34
   4  10  12   66.07    1.97
   4  10  12   68.77    2.21
   4  10  12   66.05    2.26
  -5 -10 -12   37.38    1.38
   5  10  12   35.01    1.35
  -6 -10 -12    3.53    0.39
   6  10  12    3.20    0.44
  -7 -10 -12    4.14    0.44
   7  10  12    3.18    0.46
  -8 -10 -12    0.53    0.36
   8  10  12    1.26    0.41
  -9 -10 -12    0.14    0.47
   9  10  12    0.54    0.44
 -10 -10 -12    0.12    0.53
  10  10  12    0.54    0.50
   8 -11 -12   -0.21    0.54
  -8  11  12   -1.08    0.69
   7 -11 -12   -0.32    0.46
  -7  11  12    0.25    0.67
  -7  11  12   -0.35    0.43
   6 -11 -12    1.06    0.43
  -6  11  12    1.68    0.44
   5 -11 -12    3.32    0.42
  -5  11  12    3.85    0.51
   4 -11 -12    5.45    0.46
  -4  11  12    6.95    0.58
   3 -11 -12   12.47    0.67
  -3  11  12   12.02    0.71
   2 -11 -12   15.45    0.74
  -2  11  12   15.20    0.63
  -2  11  12   16.06    0.80
   1 -11 -12   25.72    1.01
  -1  11  12   25.14    0.86
  -1  11  12   25.17    1.02
   0 -11 -12    5.31    0.45
   0 -11 -12    5.35    0.45
   0  11  12    5.98    0.50
   0  11  12    5.53    0.39
  -1 -11 -12   10.47    0.59
  -1 -11 -12   10.40    0.57
   1  11  12   10.37    0.59
   1  11  12   10.20    0.60
   1  11  12   10.39    0.49
  -2 -11 -12    2.78    0.32
  -2 -11 -12    2.67    0.31
   2  11  12    2.85    0.29
   2  11  12    2.54    0.36
   2  11  12    2.61    0.34
  -3 -11 -12    5.05    0.39
   3  11  12    5.15    0.39
   3  11  12    5.28    0.39
   3  11  12    4.59    0.43
  -4 -11 -12   17.53    0.78
   4  11  12   17.77    0.82
   4  11  12   15.92    0.65
   4  11  12   16.01    0.79
  -5 -11 -12    4.06    0.38
   5  11  12    3.47    0.41
   5  11  12    3.31    0.36
  -6 -11 -12    4.01    0.39
   6  11  12    3.79    0.44
  -7 -11 -12    7.97    0.60
   7  11  12    4.93    0.50
  -8 -11 -12    6.66    0.54
   8  11  12    5.94    0.55
  -9 -11 -12    5.37    0.57
   9  11  12    4.68    0.57
 -10 -11 -12    5.75    0.65
  10  11  12    5.97    0.66
   7 -12 -12    8.59    0.81
  -7  12  12    5.78    0.78
  -7  12  12    8.46    0.72
   6 -12 -12    2.55    0.47
  -6  12  12    1.92    0.48
  -6  12  12    1.55    0.65
   5 -12 -12    2.20    0.39
  -5  12  12    1.98    0.46
   4 -12 -12   26.37    1.08
  -4  12  12   25.34    1.10
   3 -12 -12    1.90    0.32
  -3  12  12    1.71    0.41
   2 -12 -12    8.08    0.53
  -2  12  12    6.81    0.58
  -2  12  12    7.76    0.46
   1 -12 -12    0.19    0.24
  -1  12  12    0.50    0.30
  -1  12  12   -0.12    0.22
   0 -12 -12    0.24    0.22
   0  12  12    0.13    0.22
   0  12  12    0.21    0.30
  -1 -12 -12    2.13    0.32
  -1 -12 -12    2.36    0.29
   1  12  12    2.48    0.34
   1  12  12    1.92    0.33
   1  12  12    2.69    0.27
  -2 -12 -12    1.96    0.28
  -2 -12 -12    1.85    0.30
   2  12  12    2.60    0.35
   2  12  12    2.15    0.33
   2  12  12    1.96    0.27
  -3 -12 -12   -0.20    0.21
   3  12  12   -0.02    0.28
   3  12  12   -0.34    0.24
   3  12  12    0.23    0.23
  -4 -12 -12    5.87    0.53
   4  12  12    6.73    0.50
   4  12  12    5.89    0.42
   4  12  12    6.20    0.42
  -5 -12 -12    3.14    0.35
   5  12  12    3.09    0.39
   5  12  12    3.36    0.36
  -6 -12 -12   13.45    0.71
   6  12  12   11.96    0.68
   7  12  12   17.16    0.83
   8  12  12   10.59    0.69
   9  12  12    2.42    0.52
  -7  13  12    2.07    0.67
  -7  13  12    1.73    0.56
   6 -13 -12    1.18    0.45
  -6  13  12    0.84    0.51
  -6  13  12    1.03    0.61
   5 -13 -12    6.00    0.52
  -5  13  12    6.16    0.58
   4 -13 -12    0.06    0.29
  -4  13  12    0.06    0.37
   3 -13 -12    0.15    0.27
  -3  13  12    0.07    0.32
   2 -13 -12    0.28    0.25
  -2  13  12   -0.13    0.33
   1 -13 -12    2.03    0.30
  -1  13  12    3.09    0.39
  -1  13  12    1.91    0.27
   0 -13 -12    0.04    0.23
   0  13  12    0.34    0.28
   0  13  12    0.20    0.22
   0  13  12   -0.24    0.26
   0  13  12    0.08    0.28
  -1 -13 -12   14.67    0.71
   1  13  12   15.91    0.69
   1  13  12   15.56    0.70
   1  13  12   15.10    0.60
   2  13  12   10.47    0.57
   2  13  12   11.61    0.52
   2  13  12   11.59    0.59
   3  13  12    0.15    0.26
   3  13  12   -0.18    0.25
   3  13  12    0.23    0.29
   3  13  12    0.14    0.23
   4  13  12    1.30    0.29
   4  13  12    1.68    0.32
   4  13  12    1.47    0.26
   4  13  12    1.21    0.30
   5  13  12    2.96    0.37
   5  13  12    3.54    0.36
   6  13  12    6.11    0.50
   7  13  12   17.99    0.84
   8  13  12    2.81    0.46
   9  13  12    4.46    0.57
  -6  14  12    0.52    0.52
  -5  14  12    1.91    0.50
  -4  14  12    9.66    0.68
  -3  14  12    0.61    0.34
  -2  14  12   21.48    0.89
  -1  14  12   10.82    0.58
  -1  14  12   11.07    0.53
  -1  14  12   10.69    0.59
   0  14  12    6.24    0.46
   0  14  12    6.25    0.41
   0  14  12    5.92    0.43
   1  14  12    5.67    0.42
   1  14  12    6.20    0.40
   1  14  12    5.27    0.41
   2  14  12    2.68    0.28
   2  14  12    3.11    0.31
   2  14  12    2.48    0.31
   3  14  12    0.31    0.25
   3  14  12   -0.13    0.26
   3  14  12    0.14    0.23
   3  14  12   -0.21    0.22
   4  14  12    1.46    0.28
   4  14  12    0.97    0.26
   4  14  12    1.07    0.25
   4  14  12    0.80    0.29
   5  14  12    1.54    0.26
   5  14  12    1.37    0.32
   5  14  12    1.37    0.29
   5  14  12    1.28    0.30
   6  14  12    0.63    0.34
   6  14  12    0.15    0.29
   7  14  12    0.03    0.32
   8  14  12    3.06    0.46
  -5  15  12    3.67    0.56
  -4  15  12   10.75    0.69
  -3  15  12    4.07    0.42
  -2  15  12    1.46    0.31
  -2  15  12    2.02    0.32
  -1  15  12    8.54    0.48
  -1  15  12    8.23    0.49
  -1  15  12    8.93    0.47
   0  15  12    3.84    0.32
   0  15  12    3.96    0.33
   0  15  12    3.96    0.31
   1  15  12    4.24    0.32
   1  15  12    3.95    0.32
   1  15  12    4.15    0.32
   2  15  12   -0.14    0.19
   2  15  12    0.14    0.18
   2  15  12    0.24    0.24
   3  15  12    2.07    0.30
   3  15  12    2.41    0.35
   3  15  12    2.46    0.24
   3  15  12    2.23    0.24
   4  15  12    0.01    0.20
   4  15  12    0.00    0.19
   4  15  12    0.08    0.24
   4  15  12   -0.24    0.30
   5  15  12    4.03    0.35
   5  15  12    4.15    0.35
   5  15  12    4.39    0.34
   5  15  12    4.67    0.43
   6  15  12    6.66    0.43
   6  15  12    7.03    0.44
   6  15  12    7.50    0.52
   7  15  12    2.41    0.32
   7  15  12    1.97    0.33
   8  15  12    3.78    0.41
  -4  16  12    0.29    0.35
  -3  16  12    0.40    0.26
  -3  16  12    0.18    0.27
  -2  16  12    0.36    0.21
  -2  16  12    0.07    0.21
  -1  16  12    5.85    0.31
  -1  16  12    6.31    0.47
   0  16  12    8.11    0.49
   1  16  12    3.29    0.33
   2  16  12    5.19    0.37
   3  16  12    0.01    0.31
   3  16  12   -0.29    0.25
   4  16  12    2.50    0.31
   4  16  12    2.72    0.39
   5  16  12    6.36    0.51
   5  16  12    7.17    0.47
   6  16  12    1.42    0.40
   7  16  12    0.54    0.41
  -1  17  12   16.34    0.71
   0  17  12   10.88    0.57
   1  17  12   12.84    0.61
   2  17  12    7.19    0.50
   3  17  12    0.52    0.29
   3  17  12    0.22    0.35
   4  17  12    1.20    0.30
   4  17  12    1.93    0.39
   5  17  12    0.73    0.39
   5  17  12    0.77    0.29
   6  17  12   -0.02    0.39
  -1  18  12    1.16    0.34
   0  18  12    0.96    0.32
   1  18  12    0.01    0.30
   2  18  12    0.15    0.31
   3  18  12   -0.47    0.36
   3  18  12   -0.22    0.29
   4  18  12    0.11    0.38
   4  18  12    0.28    0.30
   5  18  12    0.28    0.31
   4   9 -13    3.63    0.55
   3   9 -13    1.82    0.51
   2   9 -13    2.36    0.52
   1   9 -13   -0.33    0.48
   0   9 -13    0.02    0.49
  -1   9 -13    0.56    0.51
   6   8 -13    0.63    0.28
   5   8 -13   -0.73    0.50
   4   8 -13    2.91    0.52
   3   8 -13    1.09    0.47
   2   8 -13    4.12    0.53
   1   8 -13    3.52    0.50
   0   8 -13    2.25    0.48
   0   8 -13    1.34    0.27
  -1   8 -13    6.78    0.44
  -1   8 -13    5.91    0.43
  -1   8 -13    7.34    0.62
  -2   8 -13    5.60    0.45
  -2   8 -13    5.34    0.44
  -3   8 -13    7.65    0.54
   7   7 -13    0.12    0.36
   6   7 -13    0.48    0.31
   5   7 -13    3.32    0.40
   5   7 -13    3.07    0.34
   4   7 -13    8.38    0.55
   4   7 -13    8.61    0.50
   4   7 -13    9.64    0.82
   3   7 -13    6.70    0.50
   3   7 -13    7.17    0.45
   3   7 -13    7.59    0.56
   2   7 -13    5.50    0.42
   2   7 -13    6.51    0.52
   2   7 -13    5.76    0.46
   1   7 -13    6.53    0.45
   1   7 -13    7.75    0.55
   1   7 -13    6.14    0.48
   0   7 -13    2.65    0.47
   0   7 -13    2.80    0.35
   0   7 -13    3.33    0.38
  -1   7 -13    0.60    0.44
  -1   7 -13   -0.53    0.30
  -1   7 -13    0.46    0.32
  -2   7 -13    0.99    0.38
  -3   7 -13   -0.44    0.38
  -4   7 -13    0.80    0.46
  -5   7 -13    3.38    0.59
   7   6 -13    7.22    0.62
   6   6 -13    1.77    0.41
   5   6 -13    2.38    0.38
   4   6 -13    3.86    0.40
   4   6 -13    5.17    0.49
   3   6 -13    2.93    0.41
   3   6 -13    2.89    0.43
   3   6 -13    3.03    0.36
   2   6 -13    3.42    0.37
   2   6 -13    2.96    0.39
   2   6 -13    3.50    0.43
   1   6 -13    0.69    0.38
   1   6 -13    0.91    0.31
   1   6 -13    0.59    0.34
   0   6 -13    0.76    0.32
   0   6 -13    0.92    0.33
   0   6 -13    0.51    0.37
  -1   6 -13    4.68    0.45
  -1   6 -13    4.02    0.42
  -1   6 -13    3.51    0.45
  -2   6 -13    3.40    0.47
  -2   6 -13    3.03    0.41
  -3   6 -13    3.37    0.46
  -3   6 -13    4.38    0.55
  -4   6 -13    3.43    0.49
  -4   6 -13    4.45    0.59
  -5   6 -13    2.31    0.52
  -5   6 -13    2.00    0.63
  -6   6 -13    8.48    0.83
   8   5 -13    3.52    0.57
   7   5 -13    0.86    0.44
   6   5 -13    1.89    0.40
   5   5 -13   -0.05    0.35
   5   5 -13    0.05    0.32
   4   5 -13    0.42    0.33
   4   5 -13   -0.08    0.29
   4   5 -13   -0.53    0.35
   3   5 -13    2.36    0.37
   3   5 -13    2.60    0.36
   3   5 -13    2.99    0.40
   2   5 -13    3.01    0.38
   2   5 -13    2.81    0.38
   2   5 -13    2.67    0.39
   1   5 -13    8.63    0.67
   1   5 -13    9.28    0.62
   1   5 -13    8.48    0.57
   0   5 -13   13.10    0.76
   0   5 -13   12.84    0.67
   0   5 -13   14.84    0.76
  -1   5 -13    7.59    0.56
  -1   5 -13    8.24    0.63
  -1   5 -13   10.68    0.68
  -2   5 -13    4.27    0.45
  -2   5 -13    4.78    0.48
  -3   5 -13    6.00    0.55
  -3   5 -13    6.54    0.58
  -4   5 -13    6.66    0.62
  -4   5 -13    5.55    0.53
  -5   5 -13    0.58    0.44
  -5   5 -13    0.77    0.55
  -6   5 -13    1.44    0.63
  -6   5 -13    0.37    0.47
   8   4 -13    0.16    0.54
   8   4 -13    0.02    0.45
   7   4 -13    3.25    0.51
   7   4 -13    3.99    0.56
   6   4 -13    3.24    0.47
   6   4 -13    2.29    0.47
   5   4 -13    1.19    0.39
   5   4 -13    1.53    0.38
   4   4 -13    1.88    0.39
   4   4 -13    1.95    0.38
   3   4 -13    6.70    0.50
   3   4 -13    6.20    0.57
   3   4 -13    6.90    0.53
   2   4 -13   17.24    0.84
   2   4 -13   14.65    0.73
   2   4 -13   16.21    0.81
   1   4 -13   12.30    0.72
   1   4 -13   11.28    0.64
   1   4 -13   11.76    0.69
   0   4 -13   17.98    0.86
   0   4 -13   17.51    0.85
   0   4 -13   16.97    0.81
  -1   4 -13   19.29    0.91
  -1   4 -13   18.40    0.85
  -1   4 -13   20.73    0.93
  -2   4 -13    1.61    0.39
  -2   4 -13    1.63    0.37
  -3   4 -13   -0.19    0.35
  -3   4 -13   -0.09    0.34
  -4   4 -13    0.69    0.46
  -4   4 -13    0.17    0.36
  -5   4 -13    2.79    0.55
  -5   4 -13    2.17    0.46
  -6   4 -13    0.62    0.44
  -6   4 -13    0.48    0.61
  -7   4 -13    0.21    0.51
  -7   4 -13    0.42    0.68
   9   3 -13    9.08    0.82
   9   3 -13    9.15    0.84
   8   3 -13    9.62    0.77
   8   3 -13   10.19    0.91
   7   3 -13    4.05    0.58
   7   3 -13    4.10    0.52
   6   3 -13    2.97    0.49
   6   3 -13    3.02    0.46
   5   3 -13    4.79    0.50
   5   3 -13    5.36    0.51
   4   3 -13    7.57    0.62
   4   3 -13    7.35    0.56
   3   3 -13    0.24    0.30
   3   3 -13    0.40    0.31
   3   3 -13    0.17    0.32
   2   3 -13   -0.16    0.31
   2   3 -13   -0.08    0.29
   2   3 -13    0.43    0.31
   1   3 -13    0.48    0.31
   1   3 -13   -0.14    0.28
   1   3 -13    0.75    0.34
  -1  -3  13   -0.96    0.28
   0   3 -13    1.25    0.35
   0   3 -13    1.67    0.36
   0   3 -13    1.23    0.31
  -1   3 -13    3.10    0.38
  -1   3 -13    3.31    0.43
  -2   3 -13   18.09    0.86
  -2   3 -13   18.75    0.87
  -3   3 -13   13.96    0.78
  -3   3 -13   13.13    0.75
  -4   3 -13    4.85    0.51
  -4   3 -13    4.29    0.54
  -5   3 -13    2.23    0.44
  -5   3 -13    3.19    0.57
  -6   3 -13    1.61    0.47
  -6   3 -13    2.59    0.61
  -7   3 -13    3.93    0.74
  -7   3 -13    4.25    0.56
  -8   3 -13    1.57    0.77
   9   2 -13    2.52    0.64
   9   2 -13    1.89    0.57
   8   2 -13    2.55    0.54
   8   2 -13    3.73    0.60
   7   2 -13    3.13    0.51
   7   2 -13    2.76    0.55
   6   2 -13   -0.27    0.38
   6   2 -13    0.32    0.40
   5   2 -13    0.05    0.36
   5   2 -13   -0.12    0.37
   4   2 -13    1.68    0.41
   4   2 -13    1.67    0.37
   3   2 -13   -0.04    0.30
   3   2 -13    0.05    0.30
   2   2 -13    0.24    0.33
   2   2 -13    0.59    0.31
   2   2 -13    0.41    0.29
   1   2 -13    0.98    0.34
   1   2 -13    0.72    0.29
   1   2 -13    0.48    0.32
   0   2 -13    8.91    0.60
   0   2 -13   11.09    0.70
   0   2 -13    8.54    0.57
  -1   2 -13   62.51    2.15
  -1   2 -13   59.01    2.06
  -2   2 -13   20.82    0.95
  -2   2 -13   20.01    0.92
  -3   2 -13   21.24    0.98
  -3   2 -13   18.60    0.89
  -4   2 -13   15.98    0.87
  -4   2 -13   14.94    0.80
  -5   2 -13    2.11    0.46
  -5   2 -13    2.71    0.51
  -6   2 -13    1.36    0.58
  -6   2 -13    1.54    0.45
  -7   2 -13   -0.10    0.64
  -8   2 -13    0.24    0.67
   9   1 -13    1.39    0.63
   8   1 -13   -0.17    0.42
   8   1 -13   -0.17    0.55
   7   1 -13    3.66    0.54
   7   1 -13    4.04    0.55
   6   1 -13    2.92    0.50
   6   1 -13    3.17    0.49
   5   1 -13   22.05    0.97
   5   1 -13   20.52    0.98
   4   1 -13   18.89    0.89
   4   1 -13   19.61    0.91
   3   1 -13    3.55    0.39
   3   1 -13    2.60    0.44
   2   1 -13    0.29    0.29
   2   1 -13    0.59    0.36
   1   1 -13    7.90    0.62
   1   1 -13    7.54    0.59
   0   1 -13    0.17    0.34
   0   1 -13    0.15    0.28
  -1   1 -13    8.55    0.61
  -1   1 -13   10.25    0.64
  -2   1 -13   14.18    0.76
  -2   1 -13   14.51    0.77
  -3   1 -13    0.29    0.34
  -3   1 -13    0.47    0.35
  -4   1 -13    0.81    0.42
  -4   1 -13    0.83    0.41
  -5   1 -13    8.63    0.80
  -5   1 -13    8.36    0.64
  -6   1 -13   10.37    0.84
  -7   1 -13    0.87    0.58
  -8   1 -13    1.24    0.67
   9   0 -13   -0.96    0.59
   8   0 -13    7.39    0.71
   7   0 -13   11.93    0.88
   7   0 -13    9.51    0.73
   6   0 -13    1.56    0.47
   6   0 -13    1.64    0.44
   5   0 -13   16.41    0.89
   5   0 -13   17.36    0.86
   4   0 -13    0.32    0.38
   4   0 -13    0.38    0.30
   3   0 -13    4.21    0.41
   3   0 -13    4.16    0.49
   2   0 -13   11.36    0.71
   2   0 -13   11.45    0.71
   1   0 -13    1.69    0.34
   1   0 -13    2.26    0.40
   0   0 -13    0.18    0.28
   0   0 -13   -0.13    0.33
  -1   0 -13   -0.23    0.27
  -1   0 -13   -0.08    0.32
  -2   0 -13   13.61    0.78
  -2   0 -13   14.58    0.78
  -3   0 -13   21.30    0.96
  -3   0 -13   21.66    0.96
  -4   0 -13   10.49    0.72
  -4   0 -13   10.67    0.71
  -5   0 -13   18.67    0.94
  -5   0 -13   16.93    0.93
  -6   0 -13    5.97    0.62
  -7   0 -13    9.65    0.89
  -8   0 -13    2.13    0.66
  -9   0 -13    2.55    0.81
 -10   1  13    2.64    0.79
   9  -1 -13    0.91    0.63
   8  -1 -13    8.32    0.76
   7  -1 -13    0.12    0.46
   6  -1 -13    3.42    0.48
   5  -1 -13    2.27    0.39
   5  -1 -13    2.22    0.45
   4  -1 -13    0.99    0.35
   4  -1 -13    0.68    0.41
   3  -1 -13    7.18    0.60
   3  -1 -13    6.73    0.56
   2  -1 -13    2.16    0.35
   2  -1 -13    2.31    0.43
   1  -1 -13    0.57    0.29
   1  -1 -13    0.40    0.35
   0  -1 -13    2.27    0.35
   0  -1 -13    3.01    0.43
  -1  -1 -13    0.85    0.36
  -1  -1 -13    0.82    0.31
  -2  -1 -13   12.39    0.70
  -2  -1 -13   11.35    0.69
  -3  -1 -13    3.31    0.40
  -3  -1 -13    3.88    0.48
  -4  -1 -13   35.06    1.38
  -4  -1 -13   34.60    1.36
  -5  -1 -13    7.84    0.69
  -6  -1 -13    4.27    0.58
  -7  -1 -13    0.10    0.52
  -8  -1 -13    1.91    0.62
  -9  -1 -13   -0.30    0.73
  10  -2 -13    0.10    0.74
 -10   2  13    0.32    0.85
   9  -2 -13    0.13    0.65
   8  -2 -13    0.31    0.53
   7  -2 -13   -0.20    0.46
   6  -2 -13    1.84    0.43
   5  -2 -13   22.99    1.03
   4  -2 -13   17.79    0.84
   4  -2 -13   16.65    0.88
   3  -2 -13    9.57    0.65
   3  -2 -13    7.58    0.59
   2  -2 -13   16.21    0.84
   2  -2 -13   17.01    0.86
   1  -2 -13   29.92    1.18
   1  -2 -13   29.54    1.19
   0  -2 -13    9.25    0.64
   0  -2 -13    9.34    0.62
  -1  -2 -13    0.46    0.36
  -1  -2 -13    0.00    0.28
  -2  -2 -13    1.33    0.38
  -2  -2 -13    1.80    0.36
  -3  -2 -13    7.49    0.65
  -3  -2 -13    8.19    0.62
  -4  -2 -13    5.15    0.47
  -5  -2 -13    0.57    0.39
  -6  -2 -13    4.87    0.57
  -7  -2 -13   13.75    0.98
  -8  -2 -13    1.59    0.61
  -9  -2 -13    5.36    0.78
  10  -3 -13    8.40    0.91
 -10   3  13    6.36    0.98
   9  -3 -13    9.32    0.86
   8  -3 -13    8.30    0.73
   7  -3 -13    5.98    0.62
   6  -3 -13    6.28    0.56
   5  -3 -13   16.85    0.85
   4  -3 -13   49.68    1.82
   3  -3 -13    0.23    0.37
   3  -3 -13    0.20    0.30
   2  -3 -13    6.59    0.54
   2  -3 -13    4.78    0.45
   1  -3 -13    0.24    0.36
   1  -3 -13    0.49    0.28
   0  -3 -13    0.20    0.34
   0  -3 -13    0.06    0.27
  -1  -3 -13    2.16    0.41
  -1  -3 -13    1.74    0.33
  -2  -3 -13    2.33    0.36
  -2  -3 -13    2.05    0.40
  -3  -3 -13    2.39    0.37
  -4  -3 -13    3.87    0.43
  -5  -3 -13    7.99    0.65
  -6  -3 -13   24.42    1.13
  -7  -3 -13   14.58    0.93
  -8  -3 -13    5.87    0.68
  -9  -3 -13    0.32    0.64
 -10  -3 -13    1.93    0.76
   9  -4 -13    6.61    0.76
   8  -4 -13    2.62    0.58
   7  -4 -13    3.43    0.54
   6  -4 -13    2.08    0.44
   5  -4 -13    3.22    0.44
   4  -4 -13    1.15    0.33
   3  -4 -13    4.32    0.42
   2  -4 -13    2.55    0.36
   1  -4 -13    4.19    0.38
   0  -4 -13    6.01    0.51
   0  -4 -13    7.43    0.58
  -1  -4 -13   27.62    1.12
  -2  -4 -13   -0.23    0.28
  -3  -4 -13    3.28    0.39
  -4  -4 -13    1.25    0.36
  -5  -4 -13    4.55    0.45
  -6  -4 -13   10.04    0.74
  -7  -4 -13    6.33    0.63
  -8  -4 -13    1.18    0.55
  -9  -4 -13    0.21    0.66
 -10  -4 -13   -0.11    0.75
   9  -5 -13    0.40    0.60
  -9   5  13   -0.74    0.76
   8  -5 -13   -0.35    0.49
   7  -5 -13    7.58    0.66
   6  -5 -13    8.82    0.76
   5  -5 -13    1.38    0.37
   4  -5 -13   15.28    0.78
   3  -5 -13   35.93    1.38
   2  -5 -13   70.32    2.43
   1  -5 -13   37.75    1.43
   1  -5 -13   37.52    1.43
  -1   5  13   39.26    1.45
   0  -5 -13    4.60    0.40
   0   5  13    4.09    0.49
  -1  -5 -13    0.43    0.28
   1   5  13    0.91    0.40
  -2  -5 -13    4.07    0.39
   2   5  13    3.89    0.45
  -3  -5 -13    1.19    0.33
  -4  -5 -13   -0.18    0.32
  -5  -5 -13    1.43    0.36
  -6  -5 -13    0.02    0.39
  -7  -5 -13    6.58    0.60
  -8  -5 -13   19.30    1.07
  -9  -5 -13    6.59    0.78
 -10  -5 -13    2.82    0.73
   9  -6 -13   -0.05    0.59
  -9   6  13   -0.57    0.86
   8  -6 -13    9.34    0.88
   7  -6 -13   36.76    1.55
   6  -6 -13   14.57    0.86
   5  -6 -13    9.05    0.65
   4  -6 -13    6.90    0.57
   3  -6 -13    3.33    0.38
   2  -6 -13   21.50    0.94
  -2   6  13   21.43    0.99
   1  -6 -13    1.35    0.33
   1  -6 -13    1.66    0.32
  -1   6  13    0.78    0.39
   0  -6 -13    1.56    0.32
   0  -6 -13    1.43    0.30
   0   6  13    2.19    0.42
  -1  -6 -13    7.51    0.57
   1   6  13    6.35    0.55
  -2  -6 -13    0.53    0.29
   2   6  13    0.32    0.38
   2   6  13    0.53    0.40
  -3  -6 -13    0.58    0.31
   3   6  13    0.78    0.40
  -4  -6 -13    9.94    0.64
   4   6  13    9.44    0.69
  -5  -6 -13   26.09    1.13
  -6  -6 -13    4.85    0.51
  -7  -6 -13    1.90    0.47
  -8  -6 -13    6.28    0.65
  -9  -6 -13    9.31    0.82
 -10  -6 -13    7.53    0.87
   9  -7 -13    6.67    0.79
  -9   7  13    6.65    0.95
   8  -7 -13   15.12    0.99
   7  -7 -13    6.03    0.63
   6  -7 -13    4.75    0.55
   5  -7 -13   -0.05    0.35
   4  -7 -13    0.94    0.32
   3  -7 -13    0.24    0.28
  -3   7  13    0.15    0.40
   2  -7 -13   -0.02    0.27
  -2   7  13   -0.03    0.37
   1  -7 -13   23.62    1.03
  -1   7  13   24.29    1.04
   0  -7 -13   30.65    1.19
   0  -7 -13   30.46    1.18
   0   7  13   29.35    1.20
  -1  -7 -13   62.68    2.10
   1   7  13   56.76    2.05
  -2  -7 -13   11.66    0.66
   2   7  13   10.46    0.72
   2   7  13   11.70    0.70
  -3  -7 -13    4.31    0.42
   3   7  13    3.59    0.48
  -4  -7 -13   14.37    0.79
   4   7  13   13.89    0.79
  -5  -7 -13    0.24    0.33
   5   7  13   -0.17    0.37
  -6  -7 -13   -0.14    0.32
  -7  -7 -13    1.59    0.45
  -8  -7 -13    0.22    0.51
  -9  -7 -13    0.03    0.58
 -10  -7 -13   -0.24    0.63
   9  -8 -13    1.62    0.64
  -9   8  13    1.10    0.80
   8  -8 -13   -0.80    0.50
   7  -8 -13    0.43    0.45
   6  -8 -13    0.61    0.41
   5  -8 -13   14.38    0.83
   4  -8 -13   31.51    1.24
  -4   8  13   29.95    1.25
   3  -8 -13   28.63    1.17
  -3   8  13   28.90    1.19
   2  -8 -13   30.70    1.21
  -2   8  13   31.53    1.24
   1  -8 -13    0.11    0.28
  -1   8  13    0.33    0.40
   0  -8 -13   25.46    1.04
   0  -8 -13   25.56    1.05
   0   8  13   26.13    1.07
  -1  -8 -13   36.49    1.37
  -1  -8 -13   35.81    1.36
   1   8  13   36.53    1.37
  -2  -8 -13    8.78    0.58
   2   8  13    7.87    0.64
   2   8  13    7.14    0.63
  -3  -8 -13    1.40    0.30
   3   8  13    1.47    0.39
  -4  -8 -13    0.25    0.28
   4   8  13   -0.15    0.37
  -5  -8 -13    1.03    0.32
   5   8  13    0.62    0.38
  -6  -8 -13    0.65    0.36
   6   8  13    1.42    0.41
  -7  -8 -13    3.86    0.50
  -8  -8 -13   10.38    0.81
  -9  -8 -13    2.75    0.59
 -10  -8 -13    2.54    0.66
   8  -9 -13    2.58    0.62
  -8   9  13    2.43    0.81
   7  -9 -13    3.55    0.57
   6  -9 -13   11.33    0.78
   5  -9 -13   27.50    1.18
  -5   9  13   28.07    1.19
   4  -9 -13   48.01    1.76
  -4   9  13   47.67    1.74
   3  -9 -13   24.97    1.06
  -3   9  13   25.41    1.11
   2  -9 -13   10.62    0.63
  -2   9  13    9.30    0.66
   1  -9 -13    1.00    0.29
  -1   9  13    1.76    0.39
   0  -9 -13    0.06    0.27
   0  -9 -13    0.29    0.29
   0   9  13    0.25    0.35
  -1  -9 -13    0.43    0.28
  -1  -9 -13   -0.13    0.24
   1   9  13    0.15    0.34
  -2  -9 -13    9.42    0.63
   2   9  13    8.36    0.67
   2   9  13    8.23    0.63
  -3  -9 -13   10.99    0.69
   3   9  13   12.08    0.69
  -4  -9 -13    0.08    0.28
   4   9  13   -0.03    0.36
  -5  -9 -13   10.81    0.70
   5   9  13   10.51    0.71
  -6  -9 -13    5.12    0.47
   6   9  13    4.17    0.52
  -7  -9 -13   14.59    0.83
   7   9  13   15.47    0.85
  -8  -9 -13   12.84    0.84
   8   9  13   11.93    0.77
  -9  -9 -13    1.50    0.56
 -10  -9 -13    0.19    0.63
   8 -10 -13    5.92    0.68
  -8  10  13    4.54    0.83
   7 -10 -13    7.18    0.69
   6 -10 -13    4.19    0.53
   5 -10 -13    1.81    0.41
  -5  10  13    2.10    0.46
   4 -10 -13    0.74    0.30
  -4  10  13    0.23    0.40
   3 -10 -13    1.74    0.31
  -3  10  13    1.21    0.43
   2 -10 -13    8.76    0.59
  -2  10  13    9.33    0.65
   1 -10 -13   15.29    0.74
  -1  10  13   15.14    0.79
   0 -10 -13    9.76    0.61
   0  10  13    8.85    0.63
  -1 -10 -13   11.76    0.63
  -1 -10 -13   11.28    0.67
   1  10  13   12.26    0.68
   1  10  13   11.64    0.54
  -2 -10 -13   40.09    1.48
  -2 -10 -13   41.39    1.50
   2  10  13   39.93    1.46
  -3 -10 -13   27.82    1.12
   3  10  13   27.08    1.09
  -4 -10 -13   38.59    1.48
   4  10  13   40.78    1.48
  -5 -10 -13    7.33    0.62
   5  10  13    8.39    0.63
  -6 -10 -13    1.13    0.33
   6  10  13    0.31    0.37
  -7 -10 -13    0.28    0.36
   7  10  13   -0.06    0.37
  -8 -10 -13    0.11    0.40
   8  10  13    0.68    0.40
  -9 -10 -13    0.26    0.50
   9  10  13   -0.36    0.43
   8 -11 -13    1.72    0.61
  -8  11  13    0.83    0.73
   7 -11 -13    1.91    0.51
  -7  11  13    0.61    0.75
   6 -11 -13    1.48    0.46
  -6  11  13    1.29    0.45
   5 -11 -13    0.06    0.33
  -5  11  13   -0.09    0.42
   4 -11 -13    8.53    0.64
  -4  11  13    9.72    0.70
   3 -11 -13   14.92    0.77
  -3  11  13   16.01    0.83
   2 -11 -13   62.75    2.15
  -2  11  13   60.87    2.12
   1 -11 -13   51.41    1.80
  -1  11  13   49.61    1.77
   0 -11 -13   10.13    0.59
   0  11  13    9.53    0.65
   0  11  13    8.82    0.49
  -1 -11 -13    5.61    0.50
  -1 -11 -13    5.05    0.44
   1  11  13    5.63    0.51
   1  11  13    5.54    0.40
   1  11  13    5.58    0.48
  -2 -11 -13    1.73    0.29
  -2 -11 -13    1.79    0.30
   2  11  13    1.38    0.26
   2  11  13    0.93    0.35
  -3 -11 -13   -0.26    0.25
   3  11  13    0.01    0.26
   3  11  13    0.56    0.34
  -4 -11 -13   27.55    1.09
   4  11  13   25.43    1.07
  -5 -11 -13    0.93    0.30
   5  11  13    1.00    0.36
  -6 -11 -13    1.46    0.35
   6  11  13    0.90    0.38
  -7 -11 -13    3.33    0.44
   7  11  13    2.59    0.44
  -8 -11 -13    7.93    0.74
   8  11  13    6.04    0.58
  -9 -11 -13    9.52    0.84
   9  11  13    7.10    0.68
   7 -12 -13    3.07    0.55
  -7  12  13    3.01    0.58
  -7  12  13    3.28    0.78
   6 -12 -13    0.43    0.44
  -6  12  13    0.63    0.46
   5 -12 -13   15.46    0.87
  -5  12  13   14.97    0.86
   4 -12 -13   13.84    0.75
  -4  12  13   12.76    0.78
   3 -12 -13    8.50    0.58
  -3  12  13    7.87    0.63
   2 -12 -13   21.08    0.90
  -2  12  13   19.73    0.91
   1 -12 -13    1.19    0.28
  -1  12  13    0.91    0.35
   0 -12 -13    3.29    0.34
   0  12  13    3.70    0.31
   0  12  13    3.67    0.42
  -1 -12 -13    2.28    0.32
   1  12  13    2.99    0.38
   1  12  13    2.36    0.28
   1  12  13    2.40    0.36
  -2 -12 -13   19.16    0.87
  -2 -12 -13   21.27    0.87
   2  12  13   19.84    0.87
   2  12  13   20.45    0.74
  -3 -12 -13   10.40    0.62
   3  12  13   10.54    0.51
   3  12  13    9.68    0.61
   3  12  13   10.62    0.69
  -4 -12 -13    0.93    0.28
   4  12  13    0.71    0.29
   4  12  13    0.77    0.32
  -5 -12 -13    6.73    0.61
   5  12  13    7.18    0.57
  -6 -12 -13   16.27    0.84
   6  12  13   14.45    0.76
  -7 -12 -13   15.36    0.87
   7  12  13   15.14    0.81
   8  12  13    5.10    0.55
   9  12  13    1.05    0.48
   7 -13 -13    2.64    0.57
  -7  13  13    3.90    0.76
  -7  13  13    2.35    0.63
   6 -13 -13    3.28    0.52
  -6  13  13    3.12    0.57
  -6  13  13    2.35    0.73
   5 -13 -13    2.24    0.43
  -5  13  13    1.53    0.50
   4 -13 -13   -0.08    0.31
  -4  13  13   -0.85    0.39
   3 -13 -13    1.10    0.31
  -3  13  13    1.11    0.38
   2 -13 -13    0.17    0.27
  -2  13  13    0.48    0.36
   1 -13 -13    4.55    0.39
  -1  13  13    5.31    0.48
   0 -13 -13   12.40    0.66
   0  13  13   13.39    0.66
   0  13  13   11.62    0.65
   0  13  13   12.70    0.56
  -1 -13 -13   17.09    0.78
   1  13  13   17.32    0.67
   1  13  13   17.47    0.77
   2  13  13   25.18    0.87
   2  13  13   24.99    0.98
   3  13  13    4.88    0.43
   3  13  13    5.08    0.41
   3  13  13    5.02    0.40
   4  13  13    5.30    0.49
   4  13  13    6.18    0.43
   5  13  13    0.57    0.31
   6  13  13   12.75    0.69
   7  13  13    6.94    0.59
   8  13  13   -0.26    0.41
   9  13  13    0.61    0.50
   6 -14 -13   -0.08    0.45
  -6  14  13    0.41    0.55
  -6  14  13    0.14    0.63
   5 -14 -13    2.82    0.46
  -5  14  13    2.58    0.52
  -4  14  13    3.42    0.49
  -3  14  13    4.63    0.49
  -2  14  13    8.28    0.57
  -1  14  13   13.96    0.67
   0  14  13   14.93    0.69
   0  14  13   14.61    0.62
   1  14  13   21.81    0.79
   1  14  13   22.31    0.88
   1  14  13   21.37    0.88
   2  14  13    8.33    0.52
   2  14  13    7.53    0.48
   2  14  13    8.72    0.51
   3  14  13    0.98    0.31
   3  14  13    0.85    0.26
   3  14  13    1.62    0.30
   3  14  13    1.24    0.30
   4  14  13    6.85    0.48
   4  14  13    7.89    0.65
   5  14  13    0.39    0.29
   5  14  13    0.76    0.32
   6  14  13    0.11    0.31
   7  14  13    0.32    0.37
   8  14  13    2.80    0.49
  -5  15  13    2.61    0.55
  -4  15  13   10.13    0.69
  -3  15  13    0.50    0.38
  -2  15  13    7.48    0.55
  -1  15  13    2.90    0.36
  -1  15  13    2.81    0.35
  -1  15  13    2.76    0.34
   0  15  13    0.92    0.28
   0  15  13    0.88    0.27
   0  15  13    1.06    0.26
   1  15  13    0.69    0.26
   1  15  13    1.22    0.26
   1  15  13    0.65    0.26
   2  15  13    1.91    0.28
   2  15  13    2.33    0.30
   2  15  13    2.20    0.30
   3  15  13    4.91    0.40
   3  15  13    4.87    0.38
   3  15  13    5.13    0.38
   3  15  13    4.81    0.43
   4  15  13    2.62    0.30
   4  15  13    2.31    0.39
   4  15  13    2.55    0.31
   5  15  13    0.34    0.27
   5  15  13    0.44    0.35
   5  15  13    0.15    0.28
   6  15  13    2.33    0.35
   7  15  13    2.46    0.40
  -4  16  13    0.63    0.45
  -3  16  13   -0.14    0.35
  -2  16  13    0.21    0.27
  -2  16  13   -0.04    0.26
  -2  16  13    0.31    0.25
  -1  16  13    1.49    0.26
  -1  16  13    1.16    0.24
   0  16  13    7.59    0.41
   0  16  13    7.91    0.41
   0  16  13    8.34    0.50
   1  16  13   15.31    0.59
   1  16  13   16.18    0.68
   2  16  13    6.15    0.49
   2  16  13    6.74    0.33
   3  16  13    8.17    0.37
   3  16  13    7.78    0.52
   3  16  13   10.19    0.76
   4  16  13    8.08    0.38
   4  16  13    7.80    0.54
   5  16  13    0.73    0.22
   5  16  13    1.20    0.39
   6  16  13    0.08    0.22
   6  16  13   -0.30    0.22
   6  16  13    0.25    0.39
   7  16  13    0.21    0.26
   7  16  13    0.36    0.24
  -3  17  13    0.70    0.25
  -3  17  13    0.94    0.28
  -3  17  13    0.30    0.24
   0  17  13    7.10    0.51
   1  17  13   11.00    0.59
   2  17  13    9.35    0.57
   3  17  13    5.21    0.42
   3  17  13    4.87    0.48
   4  17  13    4.04    0.46
   4  17  13    2.81    0.36
   5  17  13    0.70    0.40
   6  17  13    0.36    0.42
   1  18  13    0.51    0.33
   2  18  13    2.06    0.37
   3  18  13    0.41    0.32
   3  18  13   -0.17    0.38
   4  18  13    1.44    0.43
   4  18  13    1.02    0.32
   3   8 -14    2.51    0.53
   2   8 -14    2.27    0.52
   1   8 -14   -0.27    0.47
   0   8 -14    1.86    0.51
   0   8 -14    1.30    0.29
  -1   8 -14    2.46    0.31
  -1   8 -14    2.24    0.33
  -2   8 -14    0.81    0.32
  -2   8 -14    1.23    0.31
   5   7 -14    8.89    0.52
   4   7 -14    9.80    0.59
   4   7 -14    8.93    0.52
   3   7 -14    8.65    0.53
   3   7 -14    7.73    0.49
   3   7 -14    8.51    0.63
   2   7 -14    4.31    0.52
   2   7 -14    2.75    0.35
   2   7 -14    3.21    0.38
   1   7 -14    1.75    0.32
   1   7 -14    2.10    0.37
   1   7 -14    2.29    0.49
   0   7 -14    0.47    0.45
   0   7 -14    0.42    0.31
   0   7 -14    1.02    0.33
  -1   7 -14    1.95    0.40
  -2   7 -14   -0.25    0.40
  -3   7 -14    0.17    0.44
   6   6 -14    5.69    0.54
   5   6 -14    5.55    0.49
   4   6 -14    2.57    0.39
   3   6 -14    0.23    0.33
   2   6 -14    0.98    0.34
   2   6 -14    0.48    0.41
   1   6 -14    1.25    0.42
   1   6 -14    1.65    0.36
   0   6 -14    0.28    0.33
  -1   6 -14    0.00    0.34
  -2   6 -14    0.58    0.38
  -3   6 -14    1.91    0.46
  -3   6 -14    2.20    0.52
  -4   6 -14    5.81    0.68
  -4   6 -14    4.99    0.59
  -5   6 -14   11.63    1.03
  -5   6 -14    9.62    0.79
   7   5 -14    2.20    0.50
   6   5 -14    1.43    0.42
   5   5 -14   -0.19    0.35
   4   5 -14    0.43    0.35
   4   5 -14    0.47    0.41
   3   5 -14    3.15    0.45
   3   5 -14    2.52    0.39
   2   5 -14   12.27    0.73
   2   5 -14   10.56    0.63
   1   5 -14   13.57    0.73
   1   5 -14   17.61    0.84
   0   5 -14    3.00    0.42
   0   5 -14    4.00    0.47
  -1   5 -14    6.61    0.54
  -1   5 -14    8.07    0.69
  -2   5 -14    2.52    0.49
  -2   5 -14    2.71    0.43
  -3   5 -14    2.50    0.52
  -3   5 -14    2.50    0.43
  -4   5 -14    1.32    0.55
  -4   5 -14    1.19    0.47
  -5   5 -14   -0.11    0.47
  -5   5 -14   -0.23    0.57
   8   4 -14    0.70    0.52
   8   4 -14    0.70    0.60
   7   4 -14    5.75    0.67
   7   4 -14    6.18    0.63
   6   4 -14    1.25    0.45
   6   4 -14    1.64    0.51
   5   4 -14    2.66    0.42
   5   4 -14    4.36    0.53
   4   4 -14    2.82    0.42
   4   4 -14    3.03    0.46
   3   4 -14   13.08    0.76
   3   4 -14   11.49    0.67
   2   4 -14   20.88    0.92
   2   4 -14   23.65    1.02
   1   4 -14    6.38    0.54
   1   4 -14    6.49    0.61
   0   4 -14   -0.13    0.33
   0   4 -14   -0.19    0.34
  -1   4 -14    2.45    0.40
  -1   4 -14    3.43    0.44
  -2   4 -14    0.17    0.34
  -2   4 -14    0.27    0.39
  -3   4 -14   -0.05    0.44
  -3   4 -14    0.15    0.35
  -4   4 -14   -0.32    0.37
  -4   4 -14    0.82    0.48
  -5   4 -14    1.41    0.49
  -5   4 -14    1.19    0.60
  -6   4 -14    1.89    0.53
  -6   4 -14    1.95    0.65
   8   3 -14    9.41    0.81
   8   3 -14    7.47    0.71
   7   3 -14   14.48    0.96
   7   3 -14   11.96    0.84
   6   3 -14    7.16    0.64
   6   3 -14    7.40    0.66
   5   3 -14   20.00    0.96
   5   3 -14   21.77    1.05
   4   3 -14    6.23    0.55
   4   3 -14    6.63    0.56
   3   3 -14    2.24    0.41
   3   3 -14    2.20    0.42
   2   3 -14    2.32    0.40
   2   3 -14    2.23    0.38
   1   3 -14    3.34    0.42
   1   3 -14    4.06    0.44
   0   3 -14    0.06    0.33
   0   3 -14    0.39    0.33
  -1   3 -14    1.31    0.38
  -1   3 -14    1.62    0.38
  -2   3 -14   14.77    0.78
  -2   3 -14   15.29    0.86
  -3   3 -14    4.20    0.53
  -3   3 -14    3.17    0.47
  -4   3 -14    3.85    0.50
  -4   3 -14    5.18    0.61
  -5   3 -14    5.86    0.65
  -5   3 -14    4.44    0.55
  -6   3 -14    2.93    0.70
  -6   3 -14    3.86    0.56
  -7   3 -14    3.10    0.79
   8   2 -14    1.78    0.60
   8   2 -14    1.23    0.52
   7   2 -14    0.85    0.56
   7   2 -14    0.84    0.45
   6   2 -14    2.93    0.54
   6   2 -14    2.67    0.49
   5   2 -14   -0.08    0.40
   5   2 -14    0.23    0.42
   4   2 -14    3.92    0.49
   4   2 -14    3.70    0.48
   3   2 -14    1.97    0.39
   3   2 -14    0.91    0.38
   2   2 -14    2.06    0.39
   2   2 -14    2.24    0.39
   1   2 -14   10.39    0.68
   1   2 -14    9.31    0.60
   0   2 -14    9.99    0.67
   0   2 -14   11.80    0.67
  -1   2 -14   14.49    0.78
  -1   2 -14   15.97    0.80
  -2   2 -14    7.75    0.58
  -2   2 -14    7.99    0.69
  -3   2 -14   24.88    1.08
  -3   2 -14   24.77    1.13
  -4   2 -14    4.05    0.53
  -4   2 -14    2.71    0.45
  -5   2 -14    1.98    0.46
  -5   2 -14    2.17    0.55
  -6   2 -14    1.22    0.58
  -6   2 -14    0.72    0.42
  -7   2 -14   -0.26    0.64
   9   1 -14    1.17    0.66
   8   1 -14    0.94    0.59
   8   1 -14    0.20    0.49
   7   1 -14    4.81    0.67
   7   1 -14    4.32    0.58
   6   1 -14    2.23    0.52
   6   1 -14    1.05    0.45
   5   1 -14   14.26    0.87
   5   1 -14   12.80    0.76
   4   1 -14   29.52    1.25
   4   1 -14   31.61    1.26
   3   1 -14   17.31    0.86
   3   1 -14   17.20    0.84
   2   1 -14   10.66    0.67
   2   1 -14   11.29    0.69
   1   1 -14   13.67    0.74
   1   1 -14   13.59    0.77
   0   1 -14    9.55    0.66
   0   1 -14   10.59    0.69
  -1   1 -14    1.14    0.34
  -1   1 -14    1.61    0.40
  -2   1 -14    0.33    0.36
  -2   1 -14    0.11    0.37
  -3   1 -14    2.20    0.44
  -3   1 -14    1.83    0.42
  -4   1 -14    1.96    0.45
  -4   1 -14    1.11    0.47
  -5   1 -14    0.96    0.50
  -5   1 -14    1.12    0.43
  -6   1 -14    0.42    0.59
  -7   1 -14    1.53    0.70
  -8   1 -14    4.37    0.84
   9   0 -14    4.23    0.78
   8   0 -14    2.95    0.64
   7   0 -14    1.20    0.58
   6   0 -14    3.38    0.56
   6   0 -14    3.17    0.53
   5   0 -14   24.63    1.11
   5   0 -14   24.43    1.15
   4   0 -14    4.71    0.49
   4   0 -14    4.95    0.54
   3   0 -14   -0.29    0.37
   3   0 -14   -0.08    0.30
   2   0 -14    1.05    0.32
   2   0 -14    0.95    0.36
   1   0 -14    0.54    0.31
   1   0 -14    0.05    0.36
   0   0 -14   -0.03    0.32
   0   0 -14    0.17    0.29
  -1   0 -14   -0.35    0.32
  -1   0 -14   -0.20    0.31
  -2   0 -14    4.09    0.46
  -2   0 -14    3.11    0.41
  -3   0 -14   22.05    0.98
  -3   0 -14   21.31    1.01
  -4   0 -14    8.48    0.72
  -4   0 -14    9.44    0.70
  -5   0 -14   27.23    1.25
  -6   0 -14   12.48    0.92
  -7   0 -14   10.36    0.94
  -8   0 -14    0.85    0.70
   9  -1 -14    0.62    0.70
   8  -1 -14    7.61    0.77
   7  -1 -14    1.39    0.53
   6  -1 -14    0.28    0.44
   5  -1 -14   -0.30    0.38
   5  -1 -14    0.21    0.39
   4  -1 -14    0.63    0.38
   4  -1 -14    1.21    0.43
   3  -1 -14   10.55    0.67
   3  -1 -14   11.11    0.70
   2  -1 -14   22.71    1.03
   2  -1 -14   22.56    1.00
   1  -1 -14   28.14    1.15
   1  -1 -14   28.12    1.14
   0  -1 -14    5.52    0.47
   0  -1 -14    5.31    0.53
  -1  -1 -14   -0.28    0.28
  -1  -1 -14   -0.08    0.33
  -2  -1 -14    0.00    0.32
  -2  -1 -14    0.25    0.31
  -3  -1 -14   11.66    0.72
  -3  -1 -14   12.34    0.75
  -4  -1 -14   17.52    0.96
  -5  -1 -14    1.89    0.51
  -6  -1 -14    1.40    0.54
  -7  -1 -14    0.94    0.63
  -8  -1 -14    3.86    0.79
  -9  -1 -14    0.41    0.80
   9  -2 -14    0.22    0.65
   8  -2 -14    1.58    0.64
   7  -2 -14    1.48    0.57
   6  -2 -14    6.41    0.63
   5  -2 -14    8.75    0.70
   4  -2 -14   -0.40    0.35
   3  -2 -14    5.77    0.54
   3  -2 -14    5.80    0.48
   2  -2 -14   23.73    1.03
   2  -2 -14   23.95    1.05
   1  -2 -14   26.51    1.08
   1  -2 -14   24.48    1.07
   0  -2 -14   15.09    0.81
   0  -2 -14   16.58    0.85
  -1  -2 -14    1.14    0.32
  -1  -2 -14    1.39    0.39
  -2  -2 -14    0.19    0.36
  -2  -2 -14    0.35    0.31
  -3  -2 -14    0.42    0.35
  -4  -2 -14    0.24    0.35
  -5  -2 -14    6.95    0.63
  -6  -2 -14    2.56    0.58
  -7  -2 -14    4.19    0.65
  -8  -2 -14    8.89    0.84
  -9  -2 -14    7.72    0.89
   9  -3 -14    2.56    0.71
   8  -3 -14    5.42    0.72
   7  -3 -14    2.03    0.58
   6  -3 -14    3.93    0.54
   5  -3 -14   14.38    0.84
   4  -3 -14    6.90    0.61
   3  -3 -14    2.61    0.38
   2  -3 -14    0.89    0.31
   1  -3 -14    1.36    0.33
   1  -3 -14    1.94    0.42
   0  -3 -14    1.24    0.38
   0  -3 -14    1.02    0.33
  -1  -3 -14    7.48    0.60
  -2  -3 -14    3.11    0.39
  -3  -3 -14    0.93    0.36
  -4  -3 -14    0.13    0.37
  -5  -3 -14   10.83    0.78
  -6  -3 -14   12.18    0.87
  -7  -3 -14   14.89    1.05
  -8  -3 -14    0.87    0.63
  -9  -3 -14    1.66    0.74
   9  -4 -14    3.97    0.73
   8  -4 -14    1.85    0.60
   7  -4 -14    1.15    0.53
   6  -4 -14   10.68    0.85
   5  -4 -14    2.81    0.46
   4  -4 -14   -0.13    0.31
   3  -4 -14   18.96    0.89
   2  -4 -14    1.97    0.35
   1  -4 -14    0.32    0.30
   0  -4 -14    9.50    0.66
  -1  -4 -14   40.79    1.53
  -2  -4 -14    3.34    0.40
  -3  -4 -14    0.37    0.32
  -4  -4 -14    3.54    0.43
  -5  -4 -14    4.32    0.51
  -6  -4 -14    8.85    0.77
  -7  -4 -14    4.53    0.61
  -8  -4 -14    0.93    0.64
  -9  -4 -14    0.69    0.67
   9  -5 -14    0.20    0.63
   8  -5 -14    2.05    0.60
   7  -5 -14    6.05    0.67
   6  -5 -14    4.87    0.58
   5  -5 -14    1.31    0.42
   4  -5 -14    8.73    0.69
   3  -5 -14   15.11    0.79
   2  -5 -14   52.24    1.88
   1  -5 -14   18.83    0.89
   0  -5 -14    1.47    0.34
  -1  -5 -14   21.31    0.96
  -2  -5 -14    0.37    0.30
  -3  -5 -14   -0.24    0.29
  -4  -5 -14    0.18    0.32
  -5  -5 -14    4.28    0.51
  -6  -5 -14    0.33    0.42
  -7  -5 -14    2.76    0.55
  -8  -5 -14    4.61    0.71
  -9  -5 -14    6.04    0.79
   9  -6 -14    1.22    0.66
  -9   6  14    1.00    0.86
   8  -6 -14   15.36    1.02
   7  -6 -14   19.71    1.07
   6  -6 -14    7.85    0.73
   5  -6 -14    4.20    0.49
   4  -6 -14    0.24    0.32
   3  -6 -14    3.01    0.39
   2  -6 -14   48.76    1.77
   1  -6 -14    0.07    0.29
   0  -6 -14    0.13    0.28
   0   6  14   -0.11    0.38
  -1  -6 -14    6.60    0.57
   1   6  14    5.03    0.53
  -2  -6 -14    7.14    0.58
   2   6  14    6.47    0.56
   2   6  14    6.23    0.57
  -3  -6 -14    0.94    0.32
  -4  -6 -14    3.12    0.41
  -5  -6 -14    5.64    0.51
  -6  -6 -14    0.33    0.42
  -7  -6 -14    2.11    0.52
  -8  -6 -14   11.13    0.92
  -9  -6 -14   12.20    1.10
   9  -7 -14    2.52    0.68
  -9   7  14    2.39    0.97
   8  -7 -14    8.27    0.80
   7  -7 -14    7.02    0.68
   6  -7 -14    0.37    0.44
   5  -7 -14   -0.13    0.39
   4  -7 -14    1.01    0.36
   3  -7 -14    2.32    0.38
   2  -7 -14   14.55    0.78
  -2   7  14   14.03    0.80
   1  -7 -14   81.33    2.80
  -1   7  14   82.50    2.73
   0  -7 -14   31.70    1.22
   0   7  14   29.75    1.23
  -1  -7 -14   18.12    0.84
   1   7  14   16.39    0.87
  -2  -7 -14    3.47    0.39
   2   7  14    2.45    0.44
   2   7  14    3.64    0.48
  -3  -7 -14    9.92    0.65
   3   7  14   10.70    0.72
  -4  -7 -14    7.72    0.61
   4   7  14    7.59    0.65
  -5  -7 -14    1.31    0.39
  -6  -7 -14    1.07    0.44
  -7  -7 -14    1.10    0.48
  -8  -7 -14   -0.46    0.50
  -9  -7 -14    1.11    0.63
   8  -8 -14    0.28    0.60
   7  -8 -14    2.12    0.54
   6  -8 -14    1.88    0.51
   5  -8 -14   13.35    0.81
   4  -8 -14   18.51    0.90
   3  -8 -14    5.66    0.53
  -3   8  14    6.02    0.57
   2  -8 -14    5.39    0.52
  -2   8  14    5.78    0.55
   1  -8 -14    3.83    0.41
  -1   8  14    4.96    0.51
   0  -8 -14   22.16    0.97
   0   8  14   22.52    0.99
  -1  -8 -14   45.54    1.65
   1   8  14   44.32    1.64
  -2  -8 -14   22.26    0.94
   2   8  14   21.27    0.99
   2   8  14   19.85    0.98
  -3  -8 -14    5.19    0.45
   3   8  14    4.36    0.50
  -4  -8 -14   -0.07    0.29
   4   8  14    0.36    0.38
  -5  -8 -14    0.95    0.35
   5   8  14    0.61    0.42
  -6  -8 -14    0.04    0.39
  -7  -8 -14    1.77    0.49
  -8  -8 -14    7.81    0.70
  -9  -8 -14    2.15    0.62
   8  -9 -14    4.66    0.71
   7  -9 -14    9.93    0.83
   6  -9 -14    5.12    0.60
   5  -9 -14   23.77    1.09
   4  -9 -14   12.63    0.75
  -4   9  14   14.08    0.81
   3  -9 -14    3.52    0.42
  -3   9  14    3.64    0.51
   2  -9 -14    4.10    0.40
  -2   9  14    3.84    0.49
   1  -9 -14    0.18    0.28
  -1   9  14   -0.04    0.36
   0  -9 -14    1.11    0.29
   0   9  14    1.23    0.41
  -1  -9 -14    0.81    0.31
   1   9  14    1.30    0.40
  -2  -9 -14   36.30    1.40
   2   9  14   35.69    1.37
   2   9  14   36.31    1.40
  -3  -9 -14   40.16    1.50
   3   9  14   40.37    1.52
  -4  -9 -14   10.76    0.66
   4   9  14   10.25    0.68
  -5  -9 -14    4.61    0.46
   5   9  14    4.86    0.51
  -6  -9 -14    0.58    0.36
   6   9  14   -0.14    0.39
  -7  -9 -14   -0.17    0.40
   7   9  14    0.57    0.43
  -8  -9 -14    1.94    0.56
  -9  -9 -14    0.51    0.54
   8 -10 -14    1.97    0.63
  -8  10  14    2.41    0.87
   7 -10 -14    3.91    0.62
   6 -10 -14    1.75    0.51
   5 -10 -14    2.75    0.48
  -5  10  14    1.74    0.47
   4 -10 -14    0.11    0.32
  -4  10  14    0.34    0.43
   3 -10 -14    2.18    0.37
  -3  10  14    1.75    0.44
   2 -10 -14    1.43    0.32
  -2  10  14    1.25    0.40
   1 -10 -14    5.61    0.53
  -1  10  14    6.99    0.57
   0 -10 -14    7.77    0.58
   0  10  14    6.94    0.60
  -1 -10 -14    6.72    0.57
   1  10  14    6.20    0.53
  -2 -10 -14   24.64    1.04
   2  10  14   25.49    1.06
   2  10  14   25.75    1.06
  -3 -10 -14   39.29    1.44
   3  10  14   35.62    1.40
  -4 -10 -14   21.31    0.97
   4  10  14   21.96    1.00
  -5 -10 -14   11.69    0.73
   5  10  14   10.65    0.69
  -6 -10 -14    4.11    0.47
   6  10  14    2.49    0.47
  -7 -10 -14    0.22    0.42
   7  10  14    0.31    0.41
  -8 -10 -14    0.19    0.47
   8  10  14   -0.25    0.41
  -9 -10 -14   -0.07    0.55
   7 -11 -14    2.99    0.58
   6 -11 -14   -0.15    0.42
   5 -11 -14    2.14    0.46
  -5  11  14    1.33    0.49
   4 -11 -14   18.10    0.92
  -4  11  14   18.08    0.92
   3 -11 -14   22.12    1.00
  -3  11  14   22.32    1.04
   2 -11 -14   38.00    1.46
  -2  11  14   39.31    1.47
   1 -11 -14   31.46    1.23
  -1  11  14   30.80    1.24
   0 -11 -14   13.49    0.70
   0  11  14   12.85    0.74
  -1 -11 -14    0.93    0.29
   1  11  14    1.11    0.37
   1  11  14    0.72    0.36
  -2 -11 -14    2.44    0.35
   2  11  14    2.97    0.41
  -3 -11 -14    1.53    0.33
   3  11  14    1.79    0.38
  -4 -11 -14    0.06    0.29
   4  11  14    0.11    0.35
  -5 -11 -14    6.31    0.51
   5  11  14    6.90    0.56
  -6 -11 -14   -0.12    0.33
   6  11  14    0.08    0.37
  -7 -11 -14    1.75    0.43
   7  11  14    0.95    0.41
  -8 -11 -14    1.29    0.46
   8  11  14    1.32    0.46
  -9 -11 -14    1.07    0.53
   9  11  14    0.53    0.50
   7 -12 -14    1.62    0.57
  -7  12  14    1.22    0.83
   6 -12 -14    4.91    0.60
  -6  12  14    4.60    0.61
   5 -12 -14   18.05    0.94
  -5  12  14   18.34    0.97
   4 -12 -14    1.87    0.40
  -4  12  14    1.64    0.45
   3 -12 -14    3.57    0.41
  -3  12  14    4.07    0.50
   2 -12 -14    7.24    0.57
  -2  12  14    7.18    0.59
   1 -12 -14    3.94    0.38
  -1  12  14    3.44    0.45
   0 -12 -14    1.80    0.31
   0  12  14    2.03    0.39
  -1 -12 -14    1.25    0.29
   1  12  14    0.81    0.34
   1  12  14    1.52    0.37
  -2 -12 -14    2.96    0.35
   2  12  14    3.72    0.42
  -3 -12 -14   10.66    0.70
   3  12  14   10.83    0.64
  -4 -12 -14   23.61    1.02
   4  12  14   22.10    0.98
  -5 -12 -14   39.02    1.44
   5  12  14   35.80    1.40
  -6 -12 -14    9.12    0.68
   6  12  14    8.14    0.62
  -7 -12 -14   12.40    0.83
   7  12  14   12.51    0.75
  -8 -12 -14    1.76    0.47
   8  12  14    0.51    0.46
   9  12  14   -0.10    0.52
   6 -13 -14    3.84    0.58
  -6  13  14    4.06    0.63
   5 -13 -14   -0.20    0.40
  -5  13  14    0.39    0.50
   4 -13 -14    0.42    0.35
  -4  13  14    0.31    0.41
   3 -13 -14   -0.27    0.29
  -3  13  14    0.44    0.40
   2 -13 -14    5.03    0.43
  -2  13  14    4.44    0.49
   1 -13 -14   12.83    0.68
  -1  13  14   11.85    0.68
   0 -13 -14   23.76    0.97
   0  13  14   21.35    0.95
   0  13  14   24.42    0.97
  -1 -13 -14   27.93    1.10
   1  13  14   27.17    1.09
  -2 -13 -14   19.14    0.87
   2  13  14   18.70    0.85
  -3 -13 -14   12.16    0.71
   3  13  14   12.00    0.68
   4  13  14   10.60    0.64
   5  13  14   -0.11    0.31
   6  13  14    8.61    0.62
   7  13  14    3.30    0.49
   8  13  14   -0.04    0.44
   6 -14 -14    0.10    0.46
   5 -14 -14    1.71    0.47
  -5  14  14    2.59    0.55
   4 -14 -14    1.90    0.41
  -4  14  14    2.56    0.52
   3 -14 -14   19.75    0.90
  -3  14  14   17.60    0.90
  -2  14  14    4.95    0.49
  -1  14  14    7.30    0.54
   0  14  14    9.33    0.59
   0  14  14   10.15    0.61
   1  14  14   20.96    0.88
   2  14  14    4.28    0.41
   3  14  14    1.02    0.33
   3  14  14    0.94    0.31
   4  14  14    0.00    0.30
   5  14  14    3.10    0.40
   6  14  14    0.73    0.35
   7  14  14    5.64    0.54
   8  14  14    7.80    0.69
  -5  15  14    6.36    0.69
  -4  15  14    6.81    0.65
  -3  15  14    0.32    0.41
  -2  15  14    2.19    0.42
  -1  15  14    0.10    0.33
  -1  15  14   -0.38    0.31
   0  15  14    1.55    0.33
   1  15  14    0.12    0.28
   2  15  14   12.98    0.64
   3  15  14    5.31    0.46
   3  15  14    5.38    0.46
   4  15  14    6.77    0.51
   4  15  14    7.71    0.50
   5  15  14   10.58    0.61
   6  15  14    5.89    0.50
   7  15  14    2.49    0.44
  -4  16  14    0.46    0.47
  -3  16  14    2.25    0.47
  -2  16  14    0.55    0.36
  -1  16  14    2.80    0.35
   0  16  14    2.31    0.31
   0  16  14    2.18    0.30
   1  16  14   12.81    0.57
   1  16  14   12.67    0.59
   2  16  14    9.36    0.48
   2  16  14    9.41    0.49
   3  16  14    8.82    0.76
   3  16  14    7.40    0.43
   3  16  14    7.28    0.45
   4  16  14   16.75    0.97
   4  16  14   16.85    0.69
   4  16  14   15.88    0.67
   5  16  14    6.22    0.44
   5  16  14    5.91    0.42
   6  16  14   -0.06    0.25
  -2  17  14    5.80    0.41
  -2  17  14    5.61    0.40
  -1  17  14    4.15    0.33
  -1  17  14    3.71    0.31
   0  17  14    3.08    0.26
   3  17  14    0.67    0.39
   4  17  14    2.92    0.45
   5  17  14    0.56    0.41
   2  18  14    0.27    0.40
   3  18  14    0.82    0.42
   4   7 -15    3.42    0.37
   3   7 -15    6.08    0.45
   3   7 -15    5.69    0.50
   2   7 -15    5.23    0.44
   2   7 -15    5.57    0.49
   1   7 -15    0.23    0.31
   0   7 -15   -0.17    0.32
  -1   7 -15    0.18    0.38
  -2   7 -15    0.09    0.43
   5   6 -15    4.86    0.51
   4   6 -15    2.11    0.42
   3   6 -15   -0.01    0.36
   2   6 -15    0.08    0.37
   1   6 -15    0.73    0.37
   0   6 -15    1.68    0.42
  -1   6 -15   -0.06    0.39
  -2   6 -15    2.44    0.48
  -3   6 -15    0.43    0.49
   6   5 -15   -0.32    0.43
   5   5 -15    0.44    0.41
   4   5 -15    0.37    0.38
   3   5 -15    4.47    0.47
   2   5 -15    8.82    0.77
   2   5 -15    8.54    0.61
   1   5 -15   17.69    0.84
   1   5 -15   18.05    0.95
   0   5 -15    5.16    0.54
   0   5 -15    4.98    0.50
  -1   5 -15    3.96    0.48
  -1   5 -15    5.56    0.56
  -2   5 -15    1.25    0.42
  -2   5 -15    2.01    0.54
  -3   5 -15    2.19    0.49
  -3   5 -15    2.71    0.56
  -4   5 -15    1.08    0.50
   7   4 -15    3.95    0.66
   7   4 -15    3.37    0.60
   6   4 -15    4.33    0.62
   6   4 -15    3.67    0.54
   5   4 -15    4.23    0.59
   5   4 -15    5.32    0.54
   4   4 -15   12.87    0.73
   4   4 -15   12.50    0.85
   3   4 -15    9.55    0.62
   3   4 -15    8.61    0.75
   2   4 -15    5.87    0.52
   2   4 -15    8.60    0.71
   1   4 -15    4.36    0.50
   1   4 -15    4.39    0.47
   0   4 -15    1.60    0.43
   0   4 -15    1.02    0.37
  -1   4 -15    3.86    0.46
  -1   4 -15    3.17    0.50
  -2   4 -15    0.37    0.36
  -2   4 -15    0.28    0.45
  -3   4 -15    0.28    0.39
  -3   4 -15    0.33    0.50
  -4   4 -15    2.39    0.62
  -4   4 -15    1.80    0.47
  -5   4 -15    2.19    0.67
  -5   4 -15    2.27    0.57
   7   3 -15    5.72    0.64
   7   3 -15    6.51    0.74
   6   3 -15    0.95    0.46
   6   3 -15    0.99    0.55
   5   3 -15    7.73    0.68
   5   3 -15    7.76    0.63
   4   3 -15    7.58    0.60
   4   3 -15    7.93    0.74
   3   3 -15    5.78    0.52
   3   3 -15    6.02    0.56
   2   3 -15    0.66    0.35
   2   3 -15    1.06    0.42
   1   3 -15    0.67    0.36
   1   3 -15    0.38    0.34
   0   3 -15    0.80    0.41
   0   3 -15    1.11    0.37
  -1   3 -15   14.86    0.79
  -1   3 -15   15.59    0.91
  -2   3 -15    3.41    0.47
  -2   3 -15    4.03    0.54
  -3   3 -15    1.33    0.43
  -3   3 -15    1.70    0.49
  -4   3 -15    5.61    0.57
  -4   3 -15    6.17    0.70
  -5   3 -15    1.43    0.49
  -5   3 -15    1.99    0.62
  -6   3 -15    1.86    0.56
  -6   3 -15    2.17    0.69
   8   2 -15    1.71    0.57
   8   2 -15    1.63    0.69
   7   2 -15    1.80    0.55
   7   2 -15    2.47    0.62
   6   2 -15   -0.20    0.53
   6   2 -15    0.27    0.42
   5   2 -15    0.30    0.41
   5   2 -15    1.18    0.50
   4   2 -15    2.94    0.51
   4   2 -15    2.50    0.45
   3   2 -15    0.75    0.38
   3   2 -15    0.78    0.39
   2   2 -15    4.60    0.51
   2   2 -15    4.44    0.49
   1   2 -15   17.93    0.87
   1   2 -15   19.30    0.96
   0   2 -15   31.81    1.25
   0   2 -15   31.98    1.34
  -1   2 -15   16.81    0.87
  -1   2 -15   14.80    0.82
  -2   2 -15    3.58    0.49
  -2   2 -15    4.71    0.54
  -3   2 -15    5.41    0.60
  -3   2 -15    4.42    0.51
  -4   2 -15    0.25    0.41
  -4   2 -15    0.08    0.52
  -5   2 -15    0.48    0.43
  -5   2 -15   -0.07    0.55
  -6   2 -15    0.18    0.65
  -7   2 -15   -0.27    0.69
   8   1 -15    0.31    0.68
   7   1 -15   -0.19    0.45
   7   1 -15    0.05    0.57
   6   1 -15    0.53    0.45
   6   1 -15   -0.35    0.53
   5   1 -15   19.27    1.00
   5   1 -15   17.96    0.93
   4   1 -15   25.66    1.17
   4   1 -15   24.27    1.11
   3   1 -15   19.39    0.98
   3   1 -15   18.92    0.93
   2   1 -15    7.61    0.63
   2   1 -15    7.97    0.70
   1   1 -15    4.03    0.48
   1   1 -15    4.58    0.47
   0   1 -15   20.80    1.01
   0   1 -15   19.76    0.94
  -1   1 -15    9.95    0.71
  -1   1 -15    9.29    0.67
  -2   1 -15    3.13    0.46
  -2   1 -15    3.61    0.50
  -3   1 -15    0.09    0.42
  -3   1 -15    0.45    0.37
  -4   1 -15    3.12    0.51
  -4   1 -15    3.76    0.59
  -5   1 -15    3.69    0.61
  -6   1 -15    3.50    0.72
  -7   1 -15    4.40    0.81
   8   0 -15    1.04    0.65
   7   0 -15    1.07    0.59
   6   0 -15    8.59    0.73
   6   0 -15    7.87    0.71
   5   0 -15   16.70    1.00
   5   0 -15   16.64    0.92
   4   0 -15    3.62    0.52
   4   0 -15    2.94    0.49
   3   0 -15    3.94    0.47
   3   0 -15    2.89    0.49
   2   0 -15    0.32    0.34
   2   0 -15    0.29    0.35
   1   0 -15   -0.07    0.36
   1   0 -15    0.01    0.35
   0   0 -15    0.23    0.34
   0   0 -15    0.35    0.37
  -1   0 -15   18.01    0.88
  -1   0 -15   16.81    0.92
  -2   0 -15   27.45    1.16
  -2   0 -15   26.93    1.18
  -3   0 -15    6.69    0.60
  -3   0 -15    7.12    0.62
  -4   0 -15    4.48    0.61
  -5   0 -15   11.41    0.89
  -6   0 -15    3.58    0.70
  -7   0 -15    5.55    0.77
  -8   0 -15   -0.33    0.73
   8  -1 -15    8.17    0.83
   7  -1 -15    0.14    0.56
   6  -1 -15    1.42    0.53
   5  -1 -15    0.26    0.43
   4  -1 -15    0.36    0.40
   4  -1 -15    0.13    0.38
   3  -1 -15   -0.13    0.40
   3  -1 -15   -0.20    0.34
   2  -1 -15   18.88    0.90
   2  -1 -15   18.68    0.96
   1  -1 -15   26.31    1.12
   1  -1 -15   27.33    1.14
   0  -1 -15   16.83    0.86
   0  -1 -15   16.68    0.84
  -1  -1 -15   25.11    1.12
  -1  -1 -15   25.13    1.07
  -2  -1 -15   28.81    1.19
  -2  -1 -15   27.24    1.19
  -3  -1 -15   12.94    0.82
  -4  -1 -15    2.76    0.51
  -5  -1 -15    3.99    0.59
  -6  -1 -15    0.41    0.56
  -7  -1 -15    0.09    0.69
  -8  -1 -15    0.96    0.79
   9  -2 -15   -0.19    0.69
   8  -2 -15   -0.48    0.66
   7  -2 -15   11.46    1.00
   6  -2 -15    5.14    0.62
   5  -2 -15    5.13    0.60
   4  -2 -15    3.26    0.50
   3  -2 -15   12.31    0.75
   2  -2 -15   33.45    1.33
   2  -2 -15   33.92    1.38
   1  -2 -15   16.77    0.88
   1  -2 -15   15.88    0.86
   0  -2 -15    4.01    0.44
   0  -2 -15    4.40    0.51
  -1  -2 -15    3.49    0.47
  -1  -2 -15    3.78    0.43
  -2  -2 -15    1.03    0.36
  -3  -2 -15   -0.39    0.38
  -4  -2 -15    0.61    0.44
  -5  -2 -15   15.22    0.95
  -6  -2 -15    4.74    0.68
  -7  -2 -15   13.04    1.02
  -8  -2 -15    7.89    0.87
   9  -3 -15    0.42    0.75
   8  -3 -15    3.75    0.70
   7  -3 -15    3.75    0.68
   6  -3 -15    6.47    0.66
   5  -3 -15   10.27    0.79
   4  -3 -15    2.32    0.45
   3  -3 -15    3.16    0.45
   2  -3 -15    0.46    0.33
   1  -3 -15    0.05    0.30
   0  -3 -15    0.28    0.31
  -1  -3 -15    2.23    0.38
  -2  -3 -15   14.74    0.80
  -3  -3 -15    3.59    0.45
  -4  -3 -15   16.40    0.91
  -5  -3 -15   15.86    1.00
  -6  -3 -15    7.58    0.71
  -7  -3 -15    8.82    0.80
  -8  -3 -15    2.30    0.71
   9  -4 -15    2.13    0.72
   8  -4 -15    0.56    0.66
   7  -4 -15    1.12    0.57
   6  -4 -15    2.85    0.55
   5  -4 -15   -0.20    0.41
   4  -4 -15    6.17    0.55
   3  -4 -15    6.31    0.60
   2  -4 -15    0.95    0.33
   1  -4 -15    4.79    0.45
   0  -4 -15   29.94    1.22
  -1  -4 -15   47.86    1.76
  -2  -4 -15   26.85    1.13
  -3  -4 -15    4.13    0.48
  -4  -4 -15    0.18    0.38
  -5  -4 -15   -0.12    0.42
  -6  -4 -15    2.82    0.61
  -7  -4 -15   -0.06    0.59
  -8  -4 -15    0.88    0.64
  -9  -4 -15    2.14    0.78
   8  -5 -15    0.52    0.61
   7  -5 -15    1.14    0.60
   6  -5 -15    2.99    0.56
   5  -5 -15    4.84    0.55
   4  -5 -15    2.85    0.45
   3  -5 -15    4.92    0.48
   2  -5 -15    5.45    0.48
   1  -5 -15    6.02    0.58
   0  -5 -15    1.78    0.37
  -1  -5 -15   12.75    0.74
  -2  -5 -15    6.28    0.59
  -3  -5 -15    1.28    0.36
  -4  -5 -15    0.35    0.37
  -5  -5 -15    0.10    0.41
  -6  -5 -15    3.77    0.60
  -7  -5 -15    4.42    0.64
  -8  -5 -15    8.68    0.82
  -9  -5 -15    4.35    0.83
   8  -6 -15    6.92    0.77
   7  -6 -15   13.99    0.98
   6  -6 -15   14.77    0.94
   5  -6 -15   12.84    0.84
   4  -6 -15    2.32    0.46
   3  -6 -15    1.48    0.39
   2  -6 -15    4.45    0.45
   1  -6 -15    3.05    0.39
   0  -6 -15    2.59    0.38
  -1  -6 -15   -0.03    0.29
  -2  -6 -15    1.00    0.35
  -3  -6 -15    4.47    0.45
  -4  -6 -15   12.93    0.84
  -5  -6 -15   17.89    0.96
  -6  -6 -15    1.23    0.49
  -7  -6 -15    2.20    0.56
  -8  -6 -15    0.65    0.65
  -9  -6 -15    2.68    0.73
   8  -7 -15    3.42    0.71
   7  -7 -15    2.51    0.58
   6  -7 -15    0.19    0.51
   5  -7 -15   -0.40    0.42
   4  -7 -15    0.52    0.38
   3  -7 -15   -0.14    0.32
   2  -7 -15    1.74    0.37
   1  -7 -15   13.79    0.76
   0  -7 -15   10.12    0.66
  -1  -7 -15    6.68    0.64
  -2  -7 -15    9.40    0.65
  -3  -7 -15   25.40    1.09
  -4  -7 -15   14.64    0.81
  -5  -7 -15    2.76    0.47
  -6  -7 -15    0.29    0.48
  -7  -7 -15    0.33    0.51
  -8  -7 -15   -0.39    0.56
  -9  -7 -15   -0.23    0.70
   8  -8 -15    0.52    0.65
   7  -8 -15    3.23    0.61
   6  -8 -15    3.60    0.60
   5  -8 -15    7.50    0.71
   4  -8 -15   20.62    1.01
   3  -8 -15   15.58    0.86
   2  -8 -15    6.03    0.51
   1  -8 -15    3.03    0.39
  -1   8  15    2.41    0.45
   0  -8 -15    5.74    0.47
   0   8  15    5.16    0.53
  -1  -8 -15   22.57    1.01
   1   8  15   20.02    0.98
  -2  -8 -15    0.58    0.33
   2   8  15    0.53    0.40
   2   8  15    1.05    0.42
  -3  -8 -15    0.16    0.33
   3   8  15   -0.62    0.37
  -4  -8 -15   -0.35    0.33
  -5  -8 -15    0.73    0.38
  -6  -8 -15    0.04    0.41
  -7  -8 -15    4.29    0.62
  -8  -8 -15    0.72    0.60
  -9  -8 -15    3.34    0.74
   8  -9 -15    8.16    0.83
   7  -9 -15    2.67    0.62
   6  -9 -15    1.54    0.51
   5  -9 -15   18.67    0.98
   4  -9 -15    7.08    0.59
   3  -9 -15    6.33    0.60
  -3   9  15    7.27    0.64
   2  -9 -15    1.53    0.34
  -2   9  15    1.13    0.41
   1  -9 -15    1.81    0.36
  -1   9  15    1.75    0.43
   0  -9 -15    1.15    0.34
   0   9  15    1.25    0.41
  -1  -9 -15   11.01    0.67
   1   9  15   10.70    0.73
  -2  -9 -15    1.96    0.35
   2   9  15    1.16    0.41
   2   9  15    1.99    0.42
  -3  -9 -15   -0.68    0.27
   3   9  15   -0.11    0.37
  -4  -9 -15   17.38    0.91
   4   9  15   18.45    0.94
  -5  -9 -15    9.73    0.72
   5   9  15   10.17    0.72
  -6  -9 -15    8.03    0.65
  -7  -9 -15    9.52    0.88
  -8  -9 -15    2.60    0.59
  -9  -9 -15    0.30    0.60
   7 -10 -15    1.16    0.58
   6 -10 -15    0.97    0.48
   5 -10 -15    0.99    0.48
   4 -10 -15    2.39    0.44
  -4  10  15    1.85    0.50
   3 -10 -15    3.75    0.45
  -3  10  15    3.27    0.51
   2 -10 -15    6.43    0.56
  -2  10  15    6.74    0.61
   1 -10 -15    5.09    0.46
  -1  10  15    5.43    0.55
   0 -10 -15   -0.09    0.27
   0  10  15   -0.21    0.36
  -1 -10 -15   11.36    0.71
   1  10  15   10.89    0.68
  -2 -10 -15   10.48    0.66
   2  10  15   10.91    0.74
   2  10  15   10.04    0.71
  -3 -10 -15   23.93    1.08
   3  10  15   25.34    1.10
  -4 -10 -15   11.23    0.73
   4  10  15   10.40    0.74
  -5 -10 -15    1.50    0.40
   5  10  15    1.81    0.45
  -6 -10 -15    1.36    0.45
   6  10  15    2.07    0.45
  -7 -10 -15    2.14    0.52
   7  10  15    2.32    0.50
  -8 -10 -15    1.79    0.58
  -9 -10 -15    0.12    0.59
   7 -11 -15    7.80    0.76
   6 -11 -15    0.33    0.51
   5 -11 -15    8.81    0.76
  -5  11  15    9.11    0.72
   4 -11 -15    7.76    0.66
  -4  11  15    6.82    0.64
   3 -11 -15    9.64    0.67
  -3  11  15   10.01    0.74
   2 -11 -15   16.38    0.84
  -2  11  15   16.11    0.87
   1 -11 -15   16.73    0.82
  -1  11  15   14.72    0.81
   0 -11 -15   13.34    0.73
   0  11  15   13.22    0.78
  -1 -11 -15    2.88    0.38
   1  11  15    4.12    0.48
   1  11  15    3.23    0.45
  -2 -11 -15    0.55    0.29
   2  11  15   -0.02    0.34
  -3 -11 -15    0.48    0.31
   3  11  15   -0.40    0.32
  -4 -11 -15    0.44    0.32
   4  11  15    0.40    0.37
  -5 -11 -15    1.62    0.39
   5  11  15    1.56    0.41
  -6 -11 -15    2.44    0.46
   6  11  15    2.76    0.48
  -7 -11 -15    1.67    0.49
   7  11  15    2.22    0.46
  -8 -11 -15    2.58    0.57
   8  11  15    2.37    0.53
   6 -12 -15    1.63    0.54
   5 -12 -15    6.71    0.62
  -5  12  15    7.70    0.68
   4 -12 -15    2.42    0.46
  -4  12  15    3.16    0.50
   3 -12 -15    7.12    0.64
  -3  12  15    6.29    0.59
   2 -12 -15    4.32    0.43
  -2  12  15    2.98    0.49
   1 -12 -15    0.07    0.29
  -1  12  15    0.25    0.38
   0 -12 -15    1.50    0.32
   0  12  15    1.47    0.41
  -1 -12 -15   -0.07    0.28
   1  12  15    0.08    0.35
   1  12  15    0.51    0.36
  -2 -12 -15    4.49    0.43
   2  12  15    4.56    0.48
  -3 -12 -15    0.71    0.31
   3  12  15    0.97    0.37
  -4 -12 -15    5.63    0.48
   4  12  15    5.40    0.52
  -5 -12 -15   17.63    0.93
   5  12  15   16.87    0.87
  -6 -12 -15    3.69    0.47
   6  12  15    2.93    0.47
  -7 -12 -15   17.41    0.97
   7  12  15   14.64    0.87
  -8 -12 -15    3.59    0.58
   8  12  15    3.27    0.55
   6 -13 -15    0.31    0.51
  -6  13  15    0.68    0.55
   5 -13 -15   -0.39    0.44
  -5  13  15   -0.11    0.48
   4 -13 -15    0.58    0.40
  -4  13  15    0.11    0.43
   3 -13 -15    0.96    0.37
  -3  13  15    1.28    0.43
   2 -13 -15    7.60    0.62
  -2  13  15    8.69    0.64
   1 -13 -15   21.99    0.95
  -1  13  15   20.08    0.95
   0 -13 -15    7.00    0.56
   0  13  15    7.55    0.59
  -1 -13 -15   12.87    0.69
   1  13  15   12.17    0.70
   1  13  15   11.81    0.69
  -2 -13 -15   17.09    0.87
   2  13  15   18.24    0.86
  -3 -13 -15    5.18    0.46
   3  13  15    5.35    0.49
  -4 -13 -15    5.65    0.47
   4  13  15    5.69    0.52
  -5 -13 -15    5.33    0.48
   5  13  15    5.04    0.52
   6  13  15    0.60    0.41
   7  13  15    1.47    0.45
   8  13  15   -0.05    0.47
   5 -14 -15    0.55    0.46
  -5  14  15    0.32    0.56
   4 -14 -15    6.97    0.59
  -4  14  15    7.16    0.68
   3 -14 -15   12.42    0.79
  -3  14  15   10.79    0.74
   2 -14 -15    5.92    0.57
  -2  14  15    5.87    0.55
   1 -14 -15    4.32    0.41
  -1  14  15    4.14    0.46
   0  14  15    4.43    0.47
   0  14  15    5.22    0.48
   1  14  15   24.54    1.01
   2  14  15    8.89    0.59
   3  14  15    1.25    0.36
   4  14  15    0.41    0.33
   5  14  15    6.66    0.58
   6  14  15    0.83    0.41
   7  14  15    3.54    0.53
  -4  15  15    0.27    0.50
  -3  15  15    2.66    0.50
  -2  15  15    0.88    0.43
  -1  15  15    0.40    0.35
  -1  15  15    0.28    0.36
   0  15  15    0.48    0.31
   1  15  15    2.92    0.38
   2  15  15   11.00    0.64
   3  15  15    3.55    0.41
   4  15  15    4.73    0.46
   5  15  15   11.15    0.66
   6  15  15    5.88    0.54
   7  15  15   10.02    0.73
  -3  16  15    2.86    0.53
  -2  16  15    0.33    0.40
  -1  16  15   10.89    0.64
  -1  16  15   11.99    0.67
   0  16  15    6.34    0.50
   1  16  15    7.56    0.53
   2  16  15    7.17    0.51
   3  16  15    4.94    0.44
   4  16  15    5.44    0.47
   5  16  15    5.52    0.49
   6  16  15    3.88    0.46
  -2  17  15    2.23    0.36
  -2  17  15    2.38    0.38
  -1  17  15    7.20    0.46
   0  17  15    2.94    0.31
   0  17  15    2.22    0.31
   1  17  15    3.15    0.31
   1  17  15    2.79    0.29
   2  17  15    0.19    0.23
   2  17  15    0.16    0.22
   3  17  15    0.27    0.22
   3  17  15    0.34    0.23
   4  17  15   -0.19    0.22
   4  17  15   -0.03    0.23
   2  18  15    1.08    0.43
   3   6 -16    0.43    0.43
   2   6 -16    0.29    0.41
   1   6 -16   -0.14    0.41
   0   6 -16    0.55    0.43
  -1   6 -16    0.33    0.45
   5   5 -16    0.07    0.45
   4   5 -16    2.29    0.47
   3   5 -16    2.33    0.46
   2   5 -16    2.85    0.47
   1   5 -16    2.66    0.47
   0   5 -16    4.02    0.59
   0   5 -16    4.19    0.50
  -1   5 -16    3.09    0.50
  -1   5 -16    3.18    0.57
  -2   5 -16    1.73    0.48
  -2   5 -16    2.72    0.58
  -3   5 -16    1.06    0.59
  -3   5 -16    1.66    0.52
   6   4 -16    1.17    0.52
   5   4 -16    3.28    0.61
   5   4 -16    3.35    0.53
   4   4 -16    6.03    0.64
   4   4 -16    4.68    0.53
   3   4 -16    3.66    0.49
   3   4 -16    4.50    0.58
   2   4 -16    9.20    0.78
   2   4 -16    6.84    0.61
   1   4 -16    1.43    0.42
   1   4 -16    2.00    0.50
   0   4 -16    7.09    0.63
   0   4 -16    6.04    0.56
  -1   4 -16    0.86    0.42
  -1   4 -16    0.24    0.49
  -2   4 -16    0.23    0.44
  -2   4 -16    0.65    0.51
  -3   4 -16   -0.28    0.45
  -3   4 -16    0.56    0.57
  -4   4 -16    0.69    0.65
  -4   4 -16   -0.33    0.50
   6   3 -16    1.59    0.54
   6   3 -16    1.39    0.62
   5   3 -16    0.68    0.55
   5   3 -16    0.34    0.45
   4   3 -16    0.01    0.39
   4   3 -16    0.52    0.50
   3   3 -16    1.03    0.39
   3   3 -16    0.80    0.48
   2   3 -16    1.06    0.38
   2   3 -16    0.58    0.46
   1   3 -16    0.15    0.44
   1   3 -16    0.04    0.35
   0   3 -16    2.47    0.46
   0   3 -16    2.50    0.51
  -1   3 -16    8.20    0.68
  -1   3 -16    8.31    0.64
  -2   3 -16    3.00    0.49
  -2   3 -16    2.77    0.53
  -3   3 -16    3.31    0.52
  -3   3 -16    3.59    0.62
  -4   3 -16    1.89    0.61
  -4   3 -16    1.30    0.51
  -5   3 -16    1.89    0.74
  -5   3 -16    1.11    0.53
   7   2 -16    1.60    0.65
   7   2 -16    2.18    0.57
   6   2 -16   -0.33    0.47
   6   2 -16   -0.79    0.59
   5   2 -16    1.23    0.56
   5   2 -16    0.93    0.45
   4   2 -16    4.30    0.60
   4   2 -16    5.19    0.53
   3   2 -16    3.49    0.53
   3   2 -16    4.39    0.51
   2   2 -16   11.29    0.70
   2   2 -16   10.62    0.78
   1   2 -16    3.53    0.47
   1   2 -16    3.55    0.50
   0   2 -16    2.98    0.52
   0   2 -16    2.87    0.45
  -1   2 -16    5.18    0.54
  -1   2 -16    6.02    0.59
  -2   2 -16   25.67    1.15
  -2   2 -16   28.28    1.29
  -3   2 -16    9.13    0.70
  -3   2 -16    9.08    0.75
  -4   2 -16    2.36    0.60
  -4   2 -16    1.81    0.48
  -5   2 -16    0.68    0.63
  -5   2 -16   -0.44    0.41
  -6   2 -16   -0.16    0.67
   7   1 -16    0.45    0.50
   7   1 -16    0.36    0.63
   6   1 -16    6.30    0.74
   6   1 -16    4.14    0.59
   5   1 -16   12.19    0.82
   5   1 -16   12.50    0.96
   4   1 -16    9.86    0.72
   4   1 -16    9.74    0.80
   3   1 -16    6.83    0.60
   3   1 -16    7.48    0.63
   2   1 -16    2.63    0.43
   2   1 -16    3.06    0.49
   1   1 -16    5.00    0.53
   1   1 -16    4.72    0.53
   0   1 -16    0.96    0.40
   0   1 -16    0.73    0.45
  -1   1 -16    2.55    0.43
  -1   1 -16    3.35    0.49
  -2   1 -16    0.85    0.46
  -2   1 -16    1.44    0.43
  -3   1 -16    0.87    0.44
  -3   1 -16    1.08    0.51
  -4   1 -16    0.87    0.60
  -4   1 -16    0.73    0.44
  -5   1 -16    0.01    0.64
  -6   1 -16    0.61    0.72
   8   0 -16    0.10    0.72
   7   0 -16    3.23    0.73
   6   0 -16    9.92    0.82
   5   0 -16   18.14    0.98
   5   0 -16   18.41    1.04
   4   0 -16    2.22    0.54
   4   0 -16    2.72    0.47
   3   0 -16    0.31    0.46
   3   0 -16   -0.09    0.36
   2   0 -16    0.38    0.44
   2   0 -16   -0.78    0.34
   1   0 -16    0.07    0.35
   1   0 -16   -0.26    0.41
   0   0 -16    0.10    0.39
   0   0 -16    0.41    0.36
  -1   0 -16    8.62    0.74
  -1   0 -16    9.00    0.64
  -2   0 -16   19.20    1.01
  -2   0 -16   19.49    0.96
  -3   0 -16    2.47    0.46
  -3   0 -16    2.18    0.56
  -4   0 -16   21.82    1.15
  -5   0 -16    5.04    0.72
  -6   0 -16    4.17    0.74
  -7   0 -16    0.50    0.72
   8  -1 -16    2.39    0.77
   7  -1 -16    1.39    0.69
   6  -1 -16   -0.48    0.53
   5  -1 -16   -0.32    0.49
   4  -1 -16    4.07    0.59
   3  -1 -16    3.25    0.50
   3  -1 -16    3.44    0.50
   2  -1 -16   21.94    1.05
   2  -1 -16   20.39    0.98
   1  -1 -16   20.88    1.01
   1  -1 -16   20.78    0.98
   0  -1 -16    2.49    0.45
   0  -1 -16    2.81    0.45
  -1  -1 -16    5.70    0.56
  -1  -1 -16    7.30    0.68
  -2  -1 -16    4.96    0.55
  -3  -1 -16   11.34    0.85
  -4  -1 -16   13.39    0.93
  -5  -1 -16   11.60    0.94
  -6  -1 -16    0.29    0.67
  -7  -1 -16    0.94    0.70
   8  -2 -16    1.32    0.75
   7  -2 -16    6.45    0.76
   6  -2 -16    0.52    0.60
   5  -2 -16    7.38    0.71
   4  -2 -16   10.43    0.81
   3  -2 -16   13.20    0.84
   2  -2 -16   26.41    1.18
   1  -2 -16   16.03    0.88
   0  -2 -16   11.41    0.77
  -1  -2 -16    1.16    0.43
  -2  -2 -16    0.82    0.42
  -3  -2 -16   -0.04    0.43
  -4  -2 -16    8.63    0.81
  -5  -2 -16    2.99    0.63
  -6  -2 -16    4.82    0.71
  -7  -2 -16    3.70    0.76
  -8  -2 -16    6.06    0.87
   8  -3 -16    2.79    0.77
   7  -3 -16    3.96    0.74
   6  -3 -16    7.40    0.76
   5  -3 -16    4.53    0.64
   4  -3 -16   -0.13    0.43
   3  -3 -16    9.46    0.80
   2  -3 -16    0.08    0.41
   1  -3 -16   -0.30    0.37
   0  -3 -16    8.03    0.68
  -1  -3 -16   16.57    0.94
  -2  -3 -16    6.95    0.58
  -3  -3 -16    8.20    0.73
  -4  -3 -16   10.17    0.84
  -5  -3 -16   11.92    0.95
  -6  -3 -16    5.89    0.71
  -7  -3 -16   10.85    1.01
  -8  -3 -16    8.76    0.95
   8  -4 -16    0.90    0.72
   7  -4 -16    1.19    0.62
   6  -4 -16    1.01    0.54
   5  -4 -16    0.39    0.48
   4  -4 -16    5.23    0.58
   3  -4 -16    3.91    0.51
   2  -4 -16    9.82    0.72
   1  -4 -16   11.79    0.76
   0  -4 -16   22.51    1.04
  -1  -4 -16   32.00    1.32
  -2  -4 -16   28.74    1.23
  -3  -4 -16    4.88    0.53
  -4  -4 -16    0.73    0.49
  -5  -4 -16    0.48    0.54
  -6  -4 -16    0.06    0.55
  -7  -4 -16   -0.61    0.61
  -8  -4 -16    1.18    0.72
   8  -5 -16    1.54    0.69
   7  -5 -16    2.78    0.70
   6  -5 -16    4.07    0.66
   5  -5 -16    8.15    0.73
   4  -5 -16    3.73    0.53
   3  -5 -16    8.12    0.70
   2  -5 -16    1.10    0.39
   1  -5 -16    6.57    0.54
   0  -5 -16    1.57    0.38
  -1  -5 -16    1.90    0.40
  -2  -5 -16    0.93    0.38
  -3  -5 -16    0.76    0.43
  -4  -5 -16    1.33    0.46
  -5  -5 -16    7.62    0.69
  -6  -5 -16    6.57    0.70
  -7  -5 -16    5.86    0.74
  -8  -5 -16    2.73    0.76
   8  -6 -16   10.13    0.91
   7  -6 -16    8.80    0.85
   6  -6 -16    7.48    0.74
   5  -6 -16    2.69    0.55
   4  -6 -16    0.27    0.44
   3  -6 -16    2.37    0.45
   2  -6 -16    1.42    0.40
   1  -6 -16   -0.04    0.33
   0  -6 -16    0.91    0.36
  -1  -6 -16   12.13    0.76
  -2  -6 -16   35.39    1.44
  -3  -6 -16   12.42    0.80
  -4  -6 -16   23.48    1.12
  -5  -6 -16    7.23    0.67
  -6  -6 -16    1.24    0.57
  -7  -6 -16    1.47    0.65
  -8  -6 -16    0.50    0.66
   8  -7 -16    7.27    0.81
   7  -7 -16    0.43    0.59
   6  -7 -16   -0.19    0.51
   5  -7 -16    0.04    0.47
   4  -7 -16    2.45    0.49
   3  -7 -16    0.75    0.40
   2  -7 -16    1.59    0.40
   1  -7 -16   16.71    0.88
   0  -7 -16    0.06    0.33
  -1  -7 -16    2.79    0.41
  -2  -7 -16    0.82    0.38
  -3  -7 -16   11.44    0.82
  -4  -7 -16   23.95    1.16
  -5  -7 -16    4.83    0.58
  -6  -7 -16    0.60    0.54
  -7  -7 -16    0.01    0.55
  -8  -7 -16   -0.18    0.68
   7  -8 -16    8.49    0.82
   6  -8 -16    3.32    0.61
   5  -8 -16    9.01    0.80
   4  -8 -16   23.00    1.11
   3  -8 -16   20.78    1.02
   2  -8 -16   19.17    0.98
   1  -8 -16    0.17    0.35
   0  -8 -16    2.81    0.42
  -1  -8 -16    8.19    0.66
  -2  -8 -16    1.20    0.36
  -3  -8 -16    0.99    0.40
  -4  -8 -16    4.58    0.53
  -5  -8 -16    3.32    0.54
  -6  -8 -16    4.13    0.59
  -7  -8 -16    7.29    0.75
  -8  -8 -16    5.00    0.77
   7  -9 -16    8.75    0.80
   6  -9 -16    3.32    0.64
   5  -9 -16    5.77    0.64
   4  -9 -16    4.07    0.53
   3  -9 -16   10.84    0.76
   2  -9 -16    0.79    0.39
   1  -9 -16    1.17    0.35
  -1   9  16    1.33    0.43
   0  -9 -16    0.19    0.32
   0   9  16    0.48    0.40
  -1  -9 -16    1.43    0.36
   1   9  16    1.51    0.43
  -2  -9 -16    0.30    0.32
   2   9  16    0.83    0.42
   2   9  16    0.21    0.41
  -3  -9 -16    6.42    0.54
   3   9  16    5.11    0.56
  -4  -9 -16   12.77    0.79
  -5  -9 -16    8.67    0.75
  -6  -9 -16    2.82    0.53
  -7  -9 -16    8.23    0.76
  -8  -9 -16    2.60    0.64
   7 -10 -16    0.13    0.60
   6 -10 -16   -0.42    0.50
   5 -10 -16    0.65    0.50
   4 -10 -16    1.63    0.45
   3 -10 -16    2.98    0.48
   2 -10 -16   18.85    0.93
  -2  10  16   18.59    0.94
   1 -10 -16   15.01    0.84
  -1  10  16   15.96    0.88
   0 -10 -16   10.01    0.71
   0  10  16    9.46    0.68
  -1 -10 -16    7.83    0.62
   1  10  16    7.87    0.62
  -2 -10 -16   14.45    0.82
   2  10  16   12.52    0.81
   2  10  16   13.83    0.85
  -3 -10 -16    5.27    0.49
   3  10  16    4.13    0.52
  -4 -10 -16    2.09    0.43
   4  10  16    1.25    0.42
  -5 -10 -16    2.60    0.46
   5  10  16    1.27    0.46
  -6 -10 -16    0.50    0.48
  -7 -10 -16    1.46    0.55
  -8 -10 -16    0.98    0.58
   6 -11 -16    4.39    0.66
   5 -11 -16    7.40    0.68
   4 -11 -16    5.35    0.57
   3 -11 -16    9.50    0.77
  -3  11  16    8.93    0.69
   2 -11 -16   12.24    0.78
  -2  11  16   11.80    0.79
   1 -11 -16   21.80    1.00
  -1  11  16   20.74    1.01
   0 -11 -16    2.61    0.38
   0  11  16    3.03    0.47
  -1 -11 -16    1.62    0.37
   1  11  16    1.47    0.42
   1  11  16    1.70    0.42
  -2 -11 -16    3.10    0.41
   2  11  16    3.54    0.49
  -3 -11 -16    0.22    0.31
   3  11  16    0.70    0.38
  -4 -11 -16    5.94    0.53
   4  11  16    4.27    0.52
  -5 -11 -16    0.28    0.39
   5  11  16    0.20    0.40
  -6 -11 -16    0.79    0.44
   6  11  16    0.72    0.44
  -7 -11 -16    7.92    0.71
   7  11  16    7.49    0.68
  -8 -11 -16    4.30    0.66
   6 -12 -16   16.21    1.02
   5 -12 -16    6.86    0.68
   4 -12 -16    0.82    0.42
  -4  12  16    0.23    0.44
   3 -12 -16    1.16    0.43
  -3  12  16    1.61    0.46
   2 -12 -16    0.91    0.36
  -2  12  16    2.20    0.47
   1 -12 -16   -0.26    0.32
  -1  12  16    0.32    0.37
   0 -12 -16   -0.10    0.28
   0  12  16    0.12    0.38
  -1 -12 -16    2.00    0.37
   1  12  16    1.95    0.41
   1  12  16    1.97    0.44
  -2 -12 -16    7.55    0.65
   2  12  16    8.58    0.66
  -3 -12 -16    5.75    0.50
   3  12  16    5.10    0.53
  -4 -12 -16   17.97    0.94
   4  12  16   17.47    0.91
  -5 -12 -16    3.32    0.47
   5  12  16    3.57    0.50
  -6 -12 -16    3.29    0.51
   6  12  16    2.98    0.51
  -7 -12 -16    6.22    0.64
   7  12  16    4.87    0.60
  -8 -12 -16    1.39    0.57
   8  12  16    1.88    0.54
   5 -13 -16    0.48    0.46
  -5  13  16    0.22    0.51
   4 -13 -16    0.39    0.44
  -4  13  16   -0.08    0.44
   3 -13 -16    0.46    0.40
  -3  13  16   -0.03    0.41
   2 -13 -16    3.81    0.47
  -2  13  16    4.22    0.52
   1 -13 -16   13.69    0.77
  -1  13  16   12.60    0.77
   0 -13 -16    4.55    0.46
   0  13  16    5.47    0.52
  -1 -13 -16   22.76    1.00
   1  13  16   21.95    0.99
   1  13  16   20.00    0.97
  -2 -13 -16    9.97    0.69
   2  13  16   10.48    0.67
  -3 -13 -16    2.37    0.39
   3  13  16    2.54    0.43
  -4 -13 -16    0.43    0.36
   4  13  16    0.61    0.38
  -5 -13 -16    0.62    0.37
   5  13  16    1.03    0.40
  -6 -13 -16   -0.04    0.40
   6  13  16    0.24    0.41
   7  13  16    1.48    0.48
   5 -14 -16    4.86    0.61
  -5  14  16    5.05    0.68
   4 -14 -16    7.31    0.64
  -4  14  16    6.92    0.70
   3 -14 -16    4.28    0.53
  -3  14  16    4.37    0.56
   2 -14 -16    8.43    0.68
  -2  14  16    8.97    0.66
   1 -14 -16    2.55    0.41
  -1  14  16    2.43    0.46
   0 -14 -16    8.04    0.63
   0  14  16    7.02    0.63
   0  14  16    7.28    0.61
   1  14  16   10.96    0.67
   2  14  16    4.81    0.49
   3  14  16    1.11    0.39
   4  14  16    2.70    0.46
   5  14  16    1.74    0.43
   6  14  16    1.99    0.48
   7  14  16    2.68    0.54
  -4  15  16    2.18    0.59
  -3  15  16    3.06    0.55
  -2  15  16   -0.07    0.44
  -1  15  16   -0.17    0.38
   0  15  16   -0.25    0.35
   0  15  16    0.13    0.38
   1  15  16    4.05    0.46
   2  15  16    3.48    0.44
   3  15  16    4.53    0.49
   4  15  16    4.79    0.51
   5  15  16    2.85    0.46
   6  15  16    2.14    0.49
  -2  16  16   -0.09    0.43
  -1  16  16    2.89    0.46
  -1  16  16    2.92    0.48
   0  16  16    6.66    0.60
   1  16  16   11.72    0.67
   2  16  16   13.85    0.74
   3  16  16   11.47    0.66
   4  16  16    8.61    0.62
   5  16  16    4.53    0.50
  -1  17  16    9.60    0.64
   0  17  16    3.59    0.40
   1  17  16    1.27    0.30
   2  17  16    0.37    0.27
   3  17  16    0.20    0.25
   3   5 -17    0.68    0.46
   2   5 -17    3.49    0.53
   1   5 -17    3.03    0.51
   0   5 -17    2.25    0.53
  -1   5 -17    0.92    0.50
   4   4 -17    0.81    0.48
   3   4 -17    0.62    0.44
   3   4 -17    1.04    0.55
   2   4 -17    0.30    0.42
   2   4 -17    0.73    0.52
   1   4 -17    2.01    0.56
   1   4 -17    1.17    0.46
   0   4 -17    1.67    0.47
   0   4 -17    1.70    0.57
  -1   4 -17    0.43    0.46
  -1   4 -17    0.72    0.57
  -2   4 -17    0.34    0.60
  -2   4 -17    0.25    0.45
  -3   4 -17    0.41    0.64
  -3   4 -17   -0.37    0.46
   5   3 -17    0.29    0.50
   5   3 -17    0.28    0.61
   4   3 -17    0.52    0.57
   4   3 -17   -0.34    0.42
   3   3 -17    0.00    0.40
   3   3 -17    0.61    0.55
   2   3 -17    0.51    0.51
   2   3 -17    0.21    0.42
   1   3 -17    1.74    0.46
   1   3 -17    1.52    0.54
   0   3 -17    2.33    0.50
   0   3 -17    3.90    0.61
  -1   3 -17    1.98    0.49
  -1   3 -17    2.40    0.59
  -2   3 -17    4.55    0.57
  -2   3 -17    6.04    0.70
  -3   3 -17    1.37    0.52
  -3   3 -17    1.85    0.64
  -4   3 -17    4.22    0.63
  -4   3 -17    5.55    0.78
   6   2 -17   -0.43    0.54
   6   2 -17   -0.77    0.58
   5   2 -17    0.36    0.62
   5   2 -17   -0.37    0.48
   4   2 -17    2.13    0.52
   4   2 -17    2.91    0.62
   3   2 -17    1.41    0.43
   3   2 -17    1.77    0.53
   2   2 -17    7.85    0.70
   2   2 -17    7.91    0.64
   1   2 -17    3.97    0.60
   1   2 -17    3.51    0.49
   0   2 -17    2.92    0.47
   0   2 -17    2.93    0.55
  -1   2 -17    9.90    0.71
  -1   2 -17    9.34    0.84
  -2   2 -17    3.69    0.52
  -2   2 -17    4.17    0.64
  -3   2 -17    0.63    0.46
  -3   2 -17    0.64    0.60
  -4   2 -17   -0.44    0.65
  -4   2 -17   -0.40    0.44
  -5   2 -17   -0.18    0.73
   6   1 -17    6.56    0.71
   6   1 -17    8.20    0.81
   5   1 -17    9.64    0.77
   5   1 -17   11.14    0.99
   4   1 -17   10.78    0.94
   4   1 -17   10.19    0.75
   3   1 -17    3.30    0.57
   3   1 -17    2.72    0.49
   2   1 -17    2.69    0.57
   2   1 -17    1.87    0.45
   1   1 -17   -0.11    0.37
   1   1 -17    0.65    0.50
   0   1 -17    1.51    0.50
   0   1 -17    1.03    0.41
  -1   1 -17    1.03    0.42
  -1   1 -17    0.38    0.53
  -2   1 -17    0.83    0.43
  -2   1 -17    1.50    0.55
  -3   1 -17    3.14    0.53
  -3   1 -17    4.38    0.64
  -4   1 -17    4.53    0.71
  -5   1 -17    2.20    0.72
   7   0 -17    2.13    0.77
   6   0 -17    6.91    0.82
   5   0 -17    9.61    0.82
   5   0 -17    7.66    0.71
   4   0 -17    0.62    0.45
   4   0 -17    0.71    0.57
   3   0 -17    0.02    0.50
   3   0 -17   -0.20    0.41
   2   0 -17    0.40    0.48
   2   0 -17    1.44    0.43
   1   0 -17   -0.37    0.34
   1   0 -17    0.31    0.45
   0   0 -17    2.45    0.47
   0   0 -17    2.36    0.51
  -1   0 -17    2.66    0.46
  -1   0 -17    2.68    0.54
  -2   0 -17    1.96    0.56
  -2   0 -17    1.94    0.47
  -3   0 -17    7.52    0.71
  -4   0 -17    8.08    0.78
  -5   0 -17    6.00    0.78
  -6   0 -17    3.12    0.76
   7  -1 -17    0.04    0.72
   6  -1 -17    0.10    0.60
   5  -1 -17    1.92    0.63
   4  -1 -17    3.67    0.64
   3  -1 -17    3.92    0.61
   2  -1 -17   13.69    0.80
   2  -1 -17   14.06    0.91
   1  -1 -17   12.75    0.77
   1  -1 -17   13.64    0.88
   0  -1 -17   10.94    0.84
   0  -1 -17   10.78    0.77
  -1  -1 -17    9.06    0.81
  -2  -1 -17    4.01    0.57
  -3  -1 -17    0.70    0.51
  -4  -1 -17    1.24    0.62
  -5  -1 -17    0.42    0.64
  -6  -1 -17    0.17    0.69
   7  -2 -17    0.37    0.73
   6  -2 -17    1.66    0.68
   5  -2 -17   10.84    0.91
   4  -2 -17    8.65    0.83
   3  -2 -17   12.17    0.87
   2  -2 -17   10.23    0.88
   1  -2 -17    8.38    0.76
   0  -2 -17    1.50    0.47
  -1  -2 -17    0.39    0.45
  -2  -2 -17    0.22    0.45
  -3  -2 -17    0.02    0.48
  -4  -2 -17    3.60    0.63
  -5  -2 -17    2.10    0.64
  -6  -2 -17    9.89    0.93
  -7  -2 -17    7.52    0.94
   7  -3 -17    4.96    0.82
   6  -3 -17    6.45    0.75
   5  -3 -17    2.86    0.61
   4  -3 -17    4.73    0.62
   3  -3 -17    0.28    0.46
   2  -3 -17    0.11    0.47
   1  -3 -17    2.16    0.48
   0  -3 -17    4.88    0.55
  -1  -3 -17   10.32    0.80
  -2  -3 -17    5.94    0.60
  -3  -3 -17    8.21    0.79
  -4  -3 -17   23.51    1.26
  -5  -3 -17    1.92    0.62
  -6  -3 -17   11.97    1.10
  -7  -3 -17    2.48    0.75
   7  -4 -17   -0.22    0.70
   6  -4 -17    0.00    0.62
   5  -4 -17    0.07    0.54
   4  -4 -17    2.46    0.55
   3  -4 -17    1.56    0.49
   2  -4 -17   20.16    1.04
   1  -4 -17   13.74    0.93
   0  -4 -17   12.81    0.90
  -1  -4 -17   37.63    1.53
  -2  -4 -17   12.52    0.85
  -3  -4 -17    6.94    0.64
  -4  -4 -17   -0.19    0.50
  -5  -4 -17    1.19    0.62
  -6  -4 -17    0.38    0.61
  -7  -4 -17   -0.35    0.72
   7  -5 -17    3.63    0.73
   6  -5 -17    3.92    0.68
   5  -5 -17    5.66    0.67
   4  -5 -17    9.32    0.87
   3  -5 -17    4.28    0.57
   2  -5 -17   23.33    1.12
   1  -5 -17   11.17    0.80
   0  -5 -17    7.90    0.72
  -1  -5 -17    0.26    0.43
  -2  -5 -17    0.83    0.46
  -3  -5 -17    1.06    0.49
  -4  -5 -17    8.85    0.75
  -5  -5 -17    7.30    0.73
  -6  -5 -17    6.64    0.76
  -7  -5 -17    9.30    0.92
  -8  -5 -17    7.19    0.90
   7  -6 -17   24.47    1.33
   6  -6 -17    7.26    0.76
   5  -6 -17    0.29    0.53
   4  -6 -17    0.78    0.49
   3  -6 -17    3.71    0.53
   2  -6 -17    0.38    0.43
   1  -6 -17    0.61    0.41
   0  -6 -17    4.06    0.52
  -1  -6 -17   13.58    0.87
  -2  -6 -17    9.80    0.78
  -3  -6 -17   16.23    1.00
  -4  -6 -17   27.27    1.27
  -5  -6 -17   17.58    1.05
  -6  -6 -17    4.13    0.67
  -7  -6 -17    3.98    0.77
  -8  -6 -17    0.30    0.72
   7  -7 -17    2.48    0.70
   6  -7 -17    0.19    0.56
   5  -7 -17    0.59    0.53
   4  -7 -17    7.97    0.69
   3  -7 -17   -0.25    0.43
   2  -7 -17    5.93    0.58
   1  -7 -17    8.39    0.66
   0  -7 -17    8.86    0.74
  -1  -7 -17   22.69    1.14
  -2  -7 -17    9.61    0.77
  -3  -7 -17    3.98    0.53
  -4  -7 -17   11.99    0.92
  -5  -7 -17    0.39    0.51
  -6  -7 -17    0.75    0.58
  -7  -7 -17    2.42    0.67
  -8  -7 -17    5.35    0.85
   7  -8 -17    7.47    0.84
   6  -8 -17    9.56    0.92
   5  -8 -17   10.58    0.89
   4  -8 -17    4.08    0.57
   3  -8 -17    6.31    0.61
   2  -8 -17    8.33    0.73
   1  -8 -17    3.14    0.48
   0  -8 -17    5.45    0.55
  -1  -8 -17    2.94    0.45
  -2  -8 -17   -0.47    0.37
  -3  -8 -17    1.34    0.44
  -4  -8 -17   12.53    0.85
  -5  -8 -17   11.22    0.87
  -6  -8 -17    5.31    0.70
  -7  -8 -17    4.30    0.68
  -8  -8 -17    5.49    0.77
   7  -9 -17    4.16    0.76
   6  -9 -17   12.07    0.98
   5  -9 -17    8.91    0.78
   4  -9 -17    4.25    0.58
   3  -9 -17    7.80    0.75
   2  -9 -17   -0.06    0.39
   1  -9 -17    2.11    0.45
   0  -9 -17    1.58    0.44
  -1  -9 -17    0.26    0.40
  -2  -9 -17    1.15    0.41
  -3  -9 -17    3.29    0.48
  -4  -9 -17   19.55    1.08
  -5  -9 -17   14.03    0.93
  -6  -9 -17    9.23    0.80
  -7  -9 -17    6.76    0.75
  -8  -9 -17    1.20    0.70
   6 -10 -17    1.96    0.64
   5 -10 -17    0.57    0.52
   4 -10 -17    4.07    0.57
   3 -10 -17    5.11    0.58
   2 -10 -17   17.59    0.95
   1 -10 -17    7.03    0.66
   0 -10 -17    3.00    0.47
   0  10  17    3.62    0.50
  -1 -10 -17    3.93    0.50
   1  10  17    4.27    0.53
  -2 -10 -17   14.66    0.87
   2  10  17   14.28    0.86
   2  10  17   15.06    0.88
  -3 -10 -17    6.47    0.59
   3  10  17    6.39    0.61
  -4 -10 -17    2.24    0.50
  -5 -10 -17    0.34    0.48
  -6 -10 -17   -0.06    0.52
  -7 -10 -17   -0.57    0.54
   6 -11 -17    5.83    0.73
   5 -11 -17   13.55    1.02
   4 -11 -17   17.09    1.06
   3 -11 -17    4.48    0.57
   2 -11 -17    7.37    0.63
  -2  11  17    7.61    0.67
   1 -11 -17    8.70    0.74
  -1  11  17    9.33    0.69
   0 -11 -17    9.75    0.75
   0  11  17    9.27    0.70
  -1 -11 -17    5.50    0.53
   1  11  17    4.92    0.54
   1  11  17    5.11    0.54
  -2 -11 -17    0.63    0.37
   2  11  17    0.41    0.40
   2  11  17    0.70    0.43
  -3 -11 -17   -0.12    0.35
   3  11  17    0.43    0.42
  -4 -11 -17    0.66    0.41
   4  11  17    0.43    0.40
  -5 -11 -17    0.62    0.46
   5  11  17    0.29    0.44
  -6 -11 -17    5.20    0.64
  -7 -11 -17   12.23    1.02
   5 -12 -17   12.40    0.93
   4 -12 -17    2.81    0.56
   3 -12 -17    5.49    0.60
  -3  12  17    4.89    0.57
   2 -12 -17    1.24    0.44
  -2  12  17    1.12    0.43
   1 -12 -17    0.89    0.38
  -1  12  17    0.72    0.41
   0 -12 -17    6.36    0.61
   0  12  17    5.80    0.57
  -1 -12 -17    2.81    0.45
   1  12  17    2.44    0.49
   1  12  17    2.67    0.48
  -2 -12 -17    6.29    0.55
   2  12  17    5.69    0.57
  -3 -12 -17    5.66    0.55
   3  12  17    5.48    0.57
  -4 -12 -17    9.44    0.81
   4  12  17    9.43    0.72
  -5 -12 -17    3.22    0.52
   5  12  17    2.62    0.50
  -6 -12 -17    5.75    0.62
   6  12  17    4.75    0.60
  -7 -12 -17    7.40    0.72
   7  12  17    5.74    0.67
   5 -13 -17    0.88    0.55
   4 -13 -17    4.56    0.61
  -4  13  17    4.23    0.62
   3 -13 -17    1.43    0.48
  -3  13  17    0.99    0.48
   2 -13 -17    7.37    0.61
  -2  13  17    6.97    0.63
   1 -13 -17    6.48    0.55
  -1  13  17    5.84    0.59
   0 -13 -17    5.59    0.53
   0  13  17    6.17    0.57
  -1 -13 -17   17.64    0.91
   1  13  17   15.07    0.87
   1  13  17   17.77    0.90
  -2 -13 -17    2.39    0.43
   2  13  17    2.69    0.45
  -3 -13 -17    1.07    0.40
   3  13  17    1.47    0.44
  -4 -13 -17    8.97    0.77
   4  13  17    6.62    0.61
  -5 -13 -17    1.01    0.46
   5  13  17    0.86    0.44
  -6 -13 -17    1.84    0.50
   6  13  17    1.48    0.50
   4 -14 -17   24.40    1.23
  -4  14  17   24.98    1.24
   3 -14 -17   19.54    1.05
  -3  14  17   19.26    1.02
   2 -14 -17    6.11    0.58
  -2  14  17    6.06    0.62
   1 -14 -17    1.68    0.42
  -1  14  17    2.09    0.49
   0 -14 -17    3.97    0.46
   0  14  17    3.23    0.51
   0  14  17    4.03    0.53
  -1 -14 -17    5.88    0.53
   1  14  17    5.39    0.54
  -2 -14 -17    0.39    0.35
   2  14  17    0.27    0.37
   3  14  17    0.95    0.41
   4  14  17    3.87    0.53
   5  14  17    2.77    0.53
   6  14  17    2.27    0.51
  -3  15  17    3.27    0.60
  -2  15  17    1.60    0.53
  -1  15  17    0.47    0.45
   0  15  17    0.55    0.42
   0  15  17   -0.26    0.41
   1  15  17    2.69    0.47
   2  15  17    6.99    0.60
   3  15  17    6.17    0.59
   4  15  17    3.15    0.51
   5  15  17   -0.67    0.41
  -2  16  17    7.84    0.69
  -1  16  17    4.88    0.59
  -1  16  17    4.44    0.56
   0  16  17    2.92    0.48
   1  16  17    7.48    0.62
   2  16  17    5.20    0.54
   3  16  17    7.22    0.60
   4  16  17    6.96    0.60
   1  17  17    0.92    0.41
   2  17  17   -0.36    0.37
   2   4 -18    0.91    0.49
   1   4 -18    0.63    0.58
   1   4 -18    0.02    0.48
   0   4 -18    0.42    0.49
   0   4 -18   -0.41    0.57
   4   3 -18    1.15    0.53
   4   3 -18    1.28    0.65
   3   3 -18    0.51    0.59
   3   3 -18    0.92    0.47
   2   3 -18   -0.38    0.42
   2   3 -18   -0.15    0.58
   1   3 -18    1.06    0.59
   1   3 -18    0.34    0.46
   0   3 -18    0.41    0.58
   0   3 -18    0.75    0.50
  -1   3 -18    2.52    0.66
  -1   3 -18    2.46    0.52
  -2   3 -18    2.02    0.64
  -2   3 -18    2.17    0.55
   5   2 -18    1.02    0.53
   5   2 -18    1.25    0.69
   4   2 -18    2.21    0.53
   4   2 -18    3.05    0.68
   3   2 -18    3.22    0.67
   3   2 -18    4.08    0.58
   2   2 -18    4.73    0.59
   2   2 -18    6.28    0.70
   1   2 -18    0.93    0.45
   1   2 -18    0.26    0.58
   0   2 -18    0.31    0.43
   0   2 -18   -0.27    0.57
  -1   2 -18    2.38    0.51
  -1   2 -18    4.47    0.66
  -2   2 -18    4.53    0.61
  -2   2 -18    5.03    0.73
  -3   2 -18    1.47    0.70
  -3   2 -18    1.29    0.52
   5   1 -18    3.92    0.76
   5   1 -18    4.00    0.61
   4   1 -18    2.16    0.53
   4   1 -18    3.24    0.66
   3   1 -18    3.65    0.53
   3   1 -18    4.17    0.68
   2   1 -18    3.34    0.64
   2   1 -18    2.60    0.49
   1   1 -18    0.67    0.42
   1   1 -18    0.67    0.54
   0   1 -18    4.26    0.63
   0   1 -18    3.15    0.52
  -1   1 -18   -0.06    0.58
  -1   1 -18    0.60    0.43
  -2   1 -18    0.14    0.57
  -2   1 -18    0.27    0.41
  -3   1 -18    1.36    0.49
  -3   1 -18    0.30    0.61
  -4   1 -18    1.54    0.67
   6   0 -18    4.71    0.77
   5   0 -18    0.15    0.63
   4   0 -18    0.07    0.42
   4   0 -18    0.95    0.64
   3   0 -18   -0.18    0.40
   3   0 -18    0.22    0.58
   2   0 -18    1.00    0.54
   2   0 -18    0.84    0.42
   1   0 -18    0.97    0.45
   1   0 -18    0.44    0.56
   0   0 -18    4.15    0.53
   0   0 -18    4.98    0.63
  -1   0 -18    3.79    0.50
  -1   0 -18    3.81    0.66
  -2   0 -18    3.49    0.62
  -3   0 -18    5.25    0.72
  -4   0 -18    2.62    0.69
  -5   0 -18    2.16    0.74
   6  -1 -18    0.61    0.68
   5  -1 -18    4.51    0.76
   4  -1 -18    5.40    0.71
   3  -1 -18    2.74    0.63
   2  -1 -18    5.15    0.67
   1  -1 -18    2.73    0.58
   0  -1 -18    6.70    0.68
  -1  -1 -18    4.20    0.62
  -2  -1 -18    2.09    0.61
  -3  -1 -18    3.26    0.68
  -4  -1 -18    2.42    0.67
  -5  -1 -18    0.53    0.69
  -6  -1 -18    0.45    0.81
   6  -2 -18   10.06    0.92
   5  -2 -18   10.48    0.97
   4  -2 -18    6.32    0.75
   3  -2 -18    2.21    0.58
   2  -2 -18    3.94    0.60
   1  -2 -18    1.31    0.51
   0  -2 -18    1.10    0.51
  -1  -2 -18   -0.48    0.48
  -2  -2 -18    0.01    0.50
  -3  -2 -18    0.64    0.57
  -4  -2 -18    2.38    0.65
  -5  -2 -18    6.57    0.81
  -6  -2 -18    3.68    0.80
   7  -3 -18    5.49    0.89
   6  -3 -18    6.75    0.86
   5  -3 -18    1.39    0.68
   4  -3 -18    0.71    0.56
   3  -3 -18    0.05    0.55
   2  -3 -18    0.23    0.52
   1  -3 -18    2.30    0.54
   0  -3 -18    3.07    0.55
  -1  -3 -18    6.69    0.66
  -2  -3 -18    4.31    0.61
  -3  -3 -18    5.24    0.70
  -4  -3 -18    8.15    0.78
  -5  -3 -18    1.22    0.67
  -6  -3 -18    4.12    0.80
   7  -4 -18   -0.13    0.69
   6  -4 -18   -0.94    0.68
   5  -4 -18    0.26    0.64
   4  -4 -18    0.70    0.56
   3  -4 -18    8.82    0.77
   2  -4 -18   20.52    1.10
   1  -4 -18    6.30    0.64
   0  -4 -18    5.25    0.62
  -1  -4 -18   10.42    0.88
  -2  -4 -18    3.38    0.63
  -3  -4 -18    1.78    0.56
  -4  -4 -18    5.59    0.69
  -5  -4 -18   -0.53    0.65
  -6  -4 -18   -0.22    0.68
  -7  -4 -18    1.99    0.77
   7  -5 -18    1.14    0.78
   6  -5 -18    5.82    0.78
   5  -5 -18    9.79    0.94
   4  -5 -18    8.59    0.76
   3  -5 -18    3.97    0.62
   2  -5 -18   11.02    0.97
   1  -5 -18    2.25    0.52
   0  -5 -18    1.76    0.50
  -1  -5 -18    1.30    0.50
  -2  -5 -18   -0.05    0.48
  -3  -5 -18    0.33    0.54
  -4  -5 -18    0.92    0.56
  -5  -5 -18    5.21    0.71
  -6  -5 -18   13.55    1.09
  -7  -5 -18    7.02    0.92
   7  -6 -18    6.50    0.85
   6  -6 -18    5.13    0.75
   5  -6 -18    4.28    0.69
   4  -6 -18    3.23    0.60
   3  -6 -18   -0.49    0.48
   2  -6 -18    0.22    0.51
   1  -6 -18    0.96    0.48
   0  -6 -18    4.24    0.56
  -1  -6 -18   13.58    0.92
  -2  -6 -18   11.62    0.88
  -3  -6 -18    8.24    0.71
  -4  -6 -18    6.93    0.72
  -5  -6 -18    3.10    0.66
  -6  -6 -18    6.02    0.79
  -7  -6 -18    2.77    0.81
   6  -7 -18    0.36    0.63
   5  -7 -18    0.54    0.59
   4  -7 -18    6.22    0.71
   3  -7 -18    0.22    0.53
   2  -7 -18   13.91    0.91
   1  -7 -18    6.59    0.64
   0  -7 -18   27.19    1.26
  -1  -7 -18   22.70    1.19
  -2  -7 -18    2.34    0.52
  -3  -7 -18    6.02    0.64
  -4  -7 -18    7.99    0.75
  -5  -7 -18    3.02    0.66
  -6  -7 -18    0.13    0.63
  -7  -7 -18    1.54    0.72
   6  -8 -18    6.80    0.82
   5  -8 -18   12.22    0.98
   4  -8 -18    4.52    0.64
   3  -8 -18    6.51    0.69
   2  -8 -18   13.98    0.91
   1  -8 -18    1.63    0.49
   0  -8 -18   -0.57    0.42
  -1  -8 -18    1.20    0.49
  -2  -8 -18    1.18    0.48
  -3  -8 -18    0.69    0.49
  -4  -8 -18    5.12    0.63
  -5  -8 -18    5.38    0.67
  -6  -8 -18    4.55    0.70
  -7  -8 -18    5.87    0.79
   6  -9 -18    2.74    0.72
   5  -9 -18    6.88    0.74
   4  -9 -18    2.79    0.59
   3  -9 -18    2.49    0.55
   2  -9 -18    1.54    0.49
   1  -9 -18    1.17    0.46
   0  -9 -18    2.70    0.50
  -1  -9 -18    2.29    0.48
  -2  -9 -18    7.76    0.67
  -3  -9 -18   19.15    1.05
  -4  -9 -18   18.68    1.05
  -5  -9 -18    8.07    0.75
  -6  -9 -18    6.83    0.78
  -7  -9 -18    3.90    0.78
   6 -10 -18   -0.29    0.64
   5 -10 -18    0.64    0.60
   4 -10 -18    2.62    0.63
   3 -10 -18    6.41    0.69
   2 -10 -18    9.38    0.80
   1 -10 -18    1.60    0.51
   0 -10 -18    4.31    0.55
  -1 -10 -18   14.62    0.91
  -2 -10 -18    8.08    0.66
  -3 -10 -18    0.38    0.45
  -4 -10 -18    0.03    0.49
  -5 -10 -18    0.99    0.53
  -6 -10 -18    0.77    0.61
  -7 -10 -18    0.39    0.60
   5 -11 -18    5.58    0.69
   4 -11 -18   17.52    1.11
   3 -11 -18   20.52    1.15
   2 -11 -18    9.35    0.85
   1 -11 -18    2.03    0.48
   0 -11 -18    6.55    0.61
  -1 -11 -18    0.51    0.46
   1  11  18    0.89    0.46
  -2 -11 -18    1.97    0.49
   2  11  18    0.48    0.44
   2  11  18    0.98    0.46
  -3 -11 -18    0.14    0.43
  -4 -11 -18    0.90    0.50
  -5 -11 -18    0.32    0.52
  -6 -11 -18    6.40    0.72
  -7 -11 -18   17.69    1.20
   5 -12 -18    4.33    0.70
   4 -12 -18    2.33    0.56
   3 -12 -18    0.62    0.52
   2 -12 -18   -0.55    0.45
  -2  12  18   -0.27    0.42
   1 -12 -18    1.01    0.44
  -1  12  18    1.12    0.48
   0 -12 -18    1.15    0.45
   0  12  18    1.51    0.47
  -1 -12 -18    0.09    0.43
   1  12  18    0.54    0.45
   1  12  18    0.57    0.44
  -2 -12 -18    4.84    0.56
   2  12  18    3.69    0.54
  -3 -12 -18    5.68    0.59
   3  12  18    4.79    0.57
  -4 -12 -18   10.99    0.89
   4  12  18    8.85    0.77
  -5 -12 -18    1.69    0.53
   5  12  18    1.48    0.49
  -6 -12 -18    0.89    0.55
   4 -13 -18    2.50    0.55
   3 -13 -18    2.95    0.58
  -3  13  18    3.42    0.59
   2 -13 -18   17.90    1.05
  -2  13  18   18.40    0.99
   1 -13 -18   12.05    0.86
  -1  13  18   10.64    0.75
   0 -13 -18   11.84    0.82
   0  13  18    8.66    0.72
  -1 -13 -18   10.21    0.81
   1  13  18    9.33    0.72
   1  13  18    9.49    0.74
  -2 -13 -18    4.70    0.55
   2  13  18    4.25    0.53
  -3 -13 -18    5.23    0.58
   3  13  18    4.27    0.56
  -4 -13 -18    6.57    0.63
   4  13  18    5.53    0.61
  -5 -13 -18    0.28    0.49
   5  13  18   -0.62    0.45
  -6 -13 -18    0.80    0.54
   6  13  18   -0.20    0.50
   3 -14 -18    9.57    0.75
  -3  14  18    9.18    0.80
   2 -14 -18   13.52    0.92
  -2  14  18   11.39    0.84
   1 -14 -18   11.01    0.83
  -1  14  18    9.29    0.75
   0 -14 -18    4.55    0.54
   0  14  18    4.40    0.56
   0  14  18    5.30    0.58
  -1 -14 -18    1.20    0.43
   1  14  18    1.84    0.47
  -2 -14 -18    1.72    0.47
   2  14  18    1.01    0.44
  -3 -14 -18    0.42    0.42
   3  14  18   -0.10    0.42
   4  14  18    2.25    0.52
   5  14  18    4.16    0.58
  -2  15  18    0.46    0.54
  -1  15  18    2.77    0.53
   0  15  18    1.25    0.49
   0  15  18    0.53    0.47
   1  15  18    0.97    0.47
   2  15  18    6.91    0.64
   3  15  18    6.62    0.62
   4  15  18    2.70    0.54
   0  16  18    6.62    0.63
   1  16  18   11.49    0.78
   2  16  18    4.24    0.57
   3  16  18    3.77    0.54
   3   2 -19    2.71    0.71
   2   2 -19    4.54    0.60
   2   2 -19    4.77    0.71
   1   2 -19    0.77    0.65
   1   2 -19    0.96    0.49
   0   2 -19    3.41    0.58
   0   2 -19    3.52    0.72
  -1   2 -19    2.02    0.71
  -1   2 -19    1.66    0.54
   4   1 -19    2.20    0.69
   4   1 -19    2.11    0.58
   3   1 -19    2.98    0.57
   3   1 -19    3.73    0.74
   2   1 -19    2.03    0.68
   2   1 -19    1.62    0.50
   1   1 -19    1.19    0.46
   1   1 -19    0.16    0.64
   0   1 -19    0.80    0.47
   0   1 -19    0.25    0.63
  -1   1 -19    1.32    0.52
  -1   1 -19    1.28    0.68
  -2   1 -19    0.90    0.65
  -2   1 -19   -0.23    0.48
  -3   1 -19    0.71    0.72
   4   0 -19   -0.24    0.68
   3   0 -19    1.13    0.64
   2   0 -19    0.49    0.59
   1   0 -19    1.59    0.62
   0   0 -19    1.04    0.64
  -1   0 -19    2.78    0.71
  -2   0 -19    2.24    0.68
  -3   0 -19    1.63    0.74
  -4   0 -19    3.69    0.78
   5  -1 -19    3.07    0.75
   4  -1 -19    2.30    0.69
   3  -1 -19    3.40    0.72
   2  -1 -19    2.18    0.66
   1  -1 -19    2.50    0.67
   0  -1 -19    9.05    0.79
  -1  -1 -19    2.93    0.66
  -2  -1 -19    2.09    0.69
  -3  -1 -19    0.24    0.64
  -4  -1 -19   -0.34    0.67
   5  -2 -19   13.85    1.10
   4  -2 -19    6.90    0.80
   3  -2 -19    1.69    0.63
   2  -2 -19    3.57    0.68
   1  -2 -19    0.83    0.61
   0  -2 -19    0.17    0.55
  -1  -2 -19    1.10    0.59
  -2  -2 -19    2.11    0.64
  -3  -2 -19    2.01    0.70
  -4  -2 -19   -0.43    0.65
  -5  -2 -19    2.16    0.76
   6  -3 -19    0.92    0.74
   5  -3 -19    0.56    0.73
   4  -3 -19    0.70    0.67
   3  -3 -19    0.76    0.59
   2  -3 -19    0.30    0.55
   1  -3 -19    3.15    0.62
   0  -3 -19    2.89    0.60
  -1  -3 -19    2.16    0.61
  -2  -3 -19    5.90    0.75
  -3  -3 -19    1.85    0.68
  -4  -3 -19    0.63    0.66
  -5  -3 -19    1.44    0.74
   6  -4 -19    1.69    0.74
   5  -4 -19    6.54    0.86
   4  -4 -19    3.36    0.73
   3  -4 -19   11.60    0.96
   2  -4 -19    8.22    0.76
   1  -4 -19    3.04    0.62
   0  -4 -19    5.65    0.67
  -1  -4 -19    6.08    0.70
  -2  -4 -19    0.79    0.58
  -3  -4 -19    2.24    0.63
  -4  -4 -19    1.58    0.65
  -5  -4 -19    1.39    0.72
  -6  -4 -19   -0.27    0.75
   6  -5 -19    3.68    0.78
   5  -5 -19    5.79    0.82
   4  -5 -19    5.73    0.74
   3  -5 -19    8.26    0.80
   2  -5 -19    3.97    0.66
   1  -5 -19    1.22    0.55
   0  -5 -19    2.24    0.60
  -1  -5 -19   -0.47    0.51
  -2  -5 -19    1.01    0.55
  -3  -5 -19    0.75    0.58
  -4  -5 -19    2.17    0.66
  -5  -5 -19   -0.39    0.65
  -6  -5 -19    1.88    0.81
   6  -6 -19    1.98    0.73
   5  -6 -19    1.30    0.66
   4  -6 -19   -0.82    0.62
   3  -6 -19    0.93    0.61
   2  -6 -19   -0.16    0.51
   1  -6 -19    3.56    0.61
   0  -6 -19    3.29    0.60
  -1  -6 -19    7.95    0.72
  -2  -6 -19    3.05    0.61
  -3  -6 -19    8.32    0.78
  -4  -6 -19    3.74    0.72
  -5  -6 -19    2.42    0.70
  -6  -6 -19    5.54    0.82
   6  -7 -19    0.43    0.68
   5  -7 -19    0.56    0.69
   4  -7 -19    4.68    0.74
   3  -7 -19    8.86    0.83
   2  -7 -19    9.15    0.80
   1  -7 -19    3.42    0.59
   0  -7 -19   13.03    1.02
  -1  -7 -19   10.53    0.89
  -2  -7 -19    3.02    0.59
  -3  -7 -19    5.10    0.69
  -4  -7 -19    2.21    0.62
  -5  -7 -19    0.56    0.62
  -6  -7 -19    1.10    0.70
   5  -8 -19    5.63    0.77
   4  -8 -19    0.10    0.58
   3  -8 -19    7.12    0.73
   2  -8 -19   25.22    1.25
   1  -8 -19    0.44    0.51
   0  -8 -19    0.44    0.50
  -1  -8 -19    1.05    0.55
  -2  -8 -19   -0.15    0.54
  -3  -8 -19    2.03    0.58
  -4  -8 -19    8.64    0.80
  -5  -8 -19    6.63    0.76
  -6  -8 -19    0.37    0.66
   5  -9 -19    4.01    0.75
   4  -9 -19    1.65    0.61
   3  -9 -19    0.39    0.55
   2  -9 -19    0.77    0.53
   1  -9 -19    8.36    0.73
   0  -9 -19    3.70    0.58
  -1  -9 -19    4.80    0.64
  -2  -9 -19    8.46    0.76
  -3  -9 -19   12.88    0.97
  -4  -9 -19   13.21    0.98
  -5  -9 -19    3.58    0.71
  -6  -9 -19    3.99    0.76
   5 -10 -19    3.77    0.70
   4 -10 -19    6.64    0.78
   3 -10 -19    4.35    0.65
   2 -10 -19   11.59    0.91
   1 -10 -19    4.54    0.61
   0 -10 -19   11.67    0.90
  -1 -10 -19    7.47    0.68
  -2 -10 -19    1.08    0.51
  -3 -10 -19    3.92    0.63
  -4 -10 -19    2.99    0.62
  -5 -10 -19    0.64    0.62
  -6 -10 -19   -0.83    0.63
   4 -11 -19   13.86    1.03
   3 -11 -19   13.47    1.04
   2 -11 -19    2.97    0.59
   1 -11 -19    0.70    0.50
   0 -11 -19    4.76    0.59
  -1 -11 -19    0.06    0.51
  -2 -11 -19    0.30    0.48
  -3 -11 -19    5.43    0.64
  -4 -11 -19    2.70    0.58
  -5 -11 -19    5.51    0.69
  -6 -11 -19    7.67    0.80
   4 -12 -19    0.83    0.62
   3 -12 -19    0.57    0.54
   2 -12 -19    0.87    0.55
   1 -12 -19    3.05    0.59
   0 -12 -19    4.18    0.59
  -1 -12 -19    3.64    0.56
  -2 -12 -19    4.79    0.61
  -3 -12 -19    5.06    0.64
  -4 -12 -19    5.16    0.66
  -5 -12 -19    1.47    0.54
   3 -13 -19    4.79    0.68
   2 -13 -19   10.28    0.93
   1 -13 -19   18.21    1.09
  -1  13  19   19.05    1.04
   0 -13 -19   18.13    1.05
   0  13  19   18.28    0.99
  -1 -13 -19    7.83    0.67
   1  13  19    6.60    0.66
   1  13  19    7.47    0.68
  -2 -13 -19    4.73    0.60
   2  13  19    4.17    0.58
  -3 -13 -19    3.05    0.57
   3  13  19    3.26    0.56
  -4 -13 -19    0.70    0.52
   4  13  19    1.87    0.53
  -5 -13 -19   -0.02    0.53
   5  13  19   -0.27    0.49
   2 -14 -19    3.32    0.60
  -2  14  19    3.42    0.62
   1 -14 -19    2.13    0.54
  -1  14  19    1.64    0.54
   0 -14 -19    2.17    0.53
   0  14  19    3.78    0.57
   0  14  19    2.26    0.53
  -1 -14 -19    0.55    0.46
   1  14  19    0.40    0.46
  -2 -14 -19   -0.01    0.46
   2  14  19   -0.16    0.45
  -3 -14 -19    0.20    0.48
   3  14  19   -0.11    0.49
  -4 -14 -19    2.20    0.54
   4  14  19    1.44    0.53
   0  15  19    1.53    0.52
   0  15  19    1.30    0.51
   1  15  19    9.73    0.83
   2  15  19   19.31    1.02
   3  15  19    8.15    0.73
   2   0 -20    1.63    0.69
   1   0 -20   -0.03    0.70
   0   0 -20    0.46    0.70
  -1   0 -20    3.59    0.75
   3  -1 -20   10.46    0.93
   2  -1 -20    5.26    0.80
   1  -1 -20    4.25    0.75
   0  -1 -20    2.90    0.70
  -1  -1 -20    3.78    0.78
  -2  -1 -20    0.95    0.74
  -3  -1 -20   -0.14    0.69
   4  -2 -20    4.11    0.78
   3  -2 -20    6.29    0.82
   2  -2 -20    2.19    0.73
   1  -2 -20   -0.04    0.63
   0  -2 -20    0.23    0.62
  -1  -2 -20    0.37    0.65
  -2  -2 -20    0.68    0.68
  -3  -2 -20    0.83    0.69
   4  -3 -20    0.65    0.69
   3  -3 -20    0.02    0.69
   2  -3 -20    1.10    0.64
   1  -3 -20    3.52    0.70
   0  -3 -20    2.59    0.67
  -1  -3 -20    8.45    0.84
  -2  -3 -20    4.88    0.76
  -3  -3 -20    1.85    0.70
  -4  -3 -20    2.11    0.77
   5  -4 -20    4.70    0.87
   4  -4 -20    4.64    0.78
   3  -4 -20   18.06    1.17
   2  -4 -20   24.16    1.36
   1  -4 -20   10.47    0.98
   0  -4 -20    6.23    0.74
  -1  -4 -20    1.10    0.64
  -2  -4 -20    0.71    0.64
  -3  -4 -20    1.36    0.67
  -4  -4 -20    0.47    0.76
   5  -5 -20    4.20    0.84
   4  -5 -20    1.90    0.71
   3  -5 -20    6.47    0.79
   2  -5 -20    5.42    0.77
   1  -5 -20    1.87    0.64
   0  -5 -20   -0.08    0.58
  -1  -5 -20   -0.33    0.59
  -2  -5 -20   -0.36    0.65
  -3  -5 -20    2.23    0.68
  -4  -5 -20    6.17    0.82
  -5  -5 -20    7.38    0.92
   5  -6 -20    1.34    0.72
   4  -6 -20    1.31    0.72
   3  -6 -20    0.95    0.64
   2  -6 -20    1.18    0.61
   1  -6 -20    5.61    0.72
   0  -6 -20    5.05    0.69
  -1  -6 -20    6.18    0.76
  -2  -6 -20    6.42    0.76
  -3  -6 -20    3.89    0.71
  -4  -6 -20    5.30    0.82
  -5  -6 -20    2.63    0.81
   5  -7 -20   -0.39    0.68
   4  -7 -20    2.21    0.74
   3  -7 -20    5.09    0.74
   2  -7 -20    0.65    0.59
   1  -7 -20   23.36    1.26
   0  -7 -20   17.52    1.10
  -1  -7 -20    7.45    0.75
  -2  -7 -20    0.17    0.60
  -3  -7 -20    2.01    0.65
  -4  -7 -20    0.16    0.65
  -5  -7 -20    0.55    0.69
   4  -8 -20    4.53    0.75
   3  -8 -20    6.08    0.75
   2  -8 -20    8.60    0.80
   1  -8 -20   -0.54    0.53
   0  -8 -20    0.52    0.56
  -1  -8 -20    0.03    0.59
  -2  -8 -20   -0.54    0.56
  -3  -8 -20    0.14    0.59
  -4  -8 -20    4.16    0.71
  -5  -8 -20    4.74    0.77
   4  -9 -20    0.14    0.67
   3  -9 -20    0.60    0.61
   2  -9 -20    0.99    0.63
   1  -9 -20    6.03    0.71
   0  -9 -20   -0.32    0.58
  -1  -9 -20    8.36    0.79
  -2  -9 -20    4.61    0.67
  -3  -9 -20   14.53    1.05
  -4  -9 -20    9.25    0.86
  -5  -9 -20    3.20    0.71
   4 -10 -20    6.09    0.81
   3 -10 -20    8.26    0.85
   2 -10 -20    5.84    0.72
   1 -10 -20    2.42    0.60
   0 -10 -20   22.06    1.22
  -1 -10 -20    4.84    0.70
  -2 -10 -20    3.30    0.64
  -3 -10 -20   11.45    0.99
  -4 -10 -20    0.46    0.65
  -5 -10 -20    0.02    0.62
   3 -11 -20   20.85    1.22
   2 -11 -20    3.75    0.69
   1 -11 -20   -0.27    0.53
   0 -11 -20    0.60    0.58
  -1 -11 -20    0.36    0.57
  -2 -11 -20    0.17    0.57
  -3 -11 -20    2.31    0.64
  -4 -11 -20    0.43    0.58
  -5 -11 -20    6.97    0.76
   3 -12 -20   -0.35    0.57
   2 -12 -20    2.15    0.63
   1 -12 -20    1.60    0.61
   0 -12 -20    2.26    0.57
  -1 -12 -20    9.77    0.82
  -2 -12 -20    8.49    0.75
  -3 -12 -20    5.21    0.70
  -4 -12 -20    6.29    0.75
   2 -13 -20    7.51    0.78
   1 -13 -20   10.80    0.90
   0 -13 -20    5.41    0.68
  -1 -13 -20    7.08    0.72
  -2 -13 -20    2.08    0.59
  -3 -13 -20    2.13    0.60
   0 -14 -20    4.27    0.64
   0  14  20    3.73    0.63
   0  14  20    3.43    0.62
  -1 -14 -20    0.03    0.51
   1  14  20    0.20    0.51
  -2 -14 -20    5.08    0.65
   2  14  20    3.81    0.61
   1  -2 -21    3.17    0.81
   0  -2 -21    0.13    0.75
  -1  -2 -21   -0.27    0.76
   2  -3 -21    2.35    0.78
   1  -3 -21    9.31    0.96
   0  -3 -21   11.80    1.08
  -1  -3 -21   11.57    1.01
  -2  -3 -21    0.42    0.72
   3  -4 -21    4.74    0.85
   2  -4 -21    2.70    0.73
   1  -4 -21    9.78    0.92
   0  -4 -21   11.02    0.94
  -1  -4 -21    6.03    0.82
  -2  -4 -21    1.75    0.74
  -3  -4 -21   -0.35    0.73
   3  -5 -21    8.19    0.92
   2  -5 -21    1.62    0.69
   1  -5 -21    1.36    0.69
   0  -5 -21   -0.28    0.66
  -1  -5 -21    1.83    0.71
  -2  -5 -21    0.64    0.71
  -3  -5 -21    4.55    0.82
   3  -6 -21    0.75    0.69
   2  -6 -21    2.97    0.75
   1  -6 -21    4.39    0.80
   0  -6 -21   14.19    1.16
  -1  -6 -21   16.69    1.15
  -2  -6 -21    5.02    0.80
  -3  -6 -21    4.27    0.79
  -4  -6 -21    3.26    0.83
   3  -7 -21    2.75    0.77
   2  -7 -21    6.42    0.80
   1  -7 -21   10.36    0.99
   0  -7 -21   10.71    1.00
  -1  -7 -21    6.14    0.78
  -2  -7 -21    2.00    0.71
  -3  -7 -21    2.26    0.77
  -4  -7 -21    0.68    0.71
   3  -8 -21    3.33    0.78
   2  -8 -21   -0.01    0.68
   1  -8 -21    0.46    0.66
   0  -8 -21    2.01    0.71
  -1  -8 -21   -0.35    0.62
  -2  -8 -21    4.18    0.75
  -3  -8 -21    3.49    0.78
  -4  -8 -21    2.76    0.79
   3  -9 -21    0.24    0.65
   2  -9 -21    2.64    0.70
   1  -9 -21    1.92    0.66
   0  -9 -21    0.10    0.62
  -1  -9 -21   16.72    1.21
  -2  -9 -21   13.51    1.16
  -3  -9 -21    8.30    0.85
  -4  -9 -21    3.84    0.76
   2 -10 -21    3.04    0.70
   1 -10 -21    6.91    0.77
   0 -10 -21    2.83    0.68
  -1 -10 -21    3.20    0.73
  -2 -10 -21    6.42    0.77
  -3 -10 -21    6.68    0.83
   2 -11 -21    0.27    0.66
   1 -11 -21    0.75    0.66
   0 -11 -21    1.05    0.64
  -1 -11 -21    2.02    0.64
  -2 -11 -21   -0.59    0.62
  -3 -11 -21    4.03    0.71
   1 -12 -21    1.48    0.68
   0 -12 -21    1.50    0.65
  -1 -12 -21    2.79    0.68
  -2 -12 -21    5.34    0.75
   0  -6 -22   -0.13    0.70
  -1  -6 -22    2.57    0.77
   1  -7 -22    6.52    0.83
   0  -7 -22    2.27    0.79
  -1  -7 -22    2.29    0.81
   1  -8 -22   -0.59    0.66
   0  -8 -22    1.47    0.76
  -1  -8 -22    1.88    0.72
   0  -9 -22   15.68    1.17
  -1  -9 -22    8.72    0.93
   0   0   0    0.00    0.00
;
_shelx_hkl_checksum              69650
loop_
_space_group_symop_operation_xyz
'x, y, z'
'-x, -y, -z'
loop_
_atom_site_label
_atom_site_type_symbol
_atom_site_fract_x
_atom_site_fract_y
_atom_site_fract_z
_atom_site_U_iso_or_equiv
_atom_site_adp_type
_atom_site_occupancy
_atom_site_site_symmetry_order
_atom_site_calc_flag
_atom_site_refinement_flags_posn
_atom_site_refinement_flags_adp
_atom_site_refinement_flags_occupancy
Rh1 Rh 0.45899(2) 0.33669(2) 0.47949(2) 0.01850(8) Uani 1 1 d . . .
S1 S 0.12657(14) 0.33937(10) 0.44002(10) 0.0319(3) Uani 0.5 1 d . . P
C62' C 0.12657(14) 0.33937(10) 0.44002(10) 0.0319(3) Uani 0.5 1 d . . P
N1 N 0.5799(3) 0.22862(17) 0.45097(16) 0.0204(5) Uani 1 1 d . . .
N2 N 0.4108(3) 0.41709(17) 0.35014(16) 0.0197(5) Uani 1 1 d . . .
N3 N 0.3566(3) 0.45118(17) 0.50674(15) 0.0193(5) Uani 1 1 d . . .
N4 N 0.5044(3) 0.25649(17) 0.60876(16) 0.0207(5) Uani 1 1 d . . .
C1 C 0.6632(3) 0.1451(2) 0.5096(2) 0.0220(6) Uani 1 1 d . . .
C2 C 0.7532(3) 0.0972(2) 0.4631(2) 0.0266(7) Uani 1 1 d . . .
H2A H 0.8229 0.0392 0.4880 0.032 Uiso 1 1 calc R U .
C3 C 0.7211(3) 0.1492(2) 0.3776(2) 0.0261(7) Uani 1 1 d . . .
H3A H 0.7644 0.1350 0.3312 0.031 Uiso 1 1 calc R U .
C4 C 0.6091(3) 0.2304(2) 0.36918(19) 0.0220(6) Uani 1 1 d . . .
C5 C 0.5388(3) 0.2981(2) 0.29156(19) 0.0221(6) Uani 1 1 d . . .
C6 C 0.4394(3) 0.3820(2) 0.2849(2) 0.0229(6) Uani 1 1 d . . .
C7 C 0.3527(3) 0.4469(2) 0.2089(2) 0.0259(7) Uani 1 1 d . . .
H7A H 0.3504 0.4394 0.1549 0.031 Uiso 1 1 calc R U .
C8 C 0.2752(3) 0.5201(2) 0.2280(2) 0.0260(7) Uani 1 1 d . . .
H8A H 0.2074 0.5730 0.1902 0.031 Uiso 1 1 calc R U .
C9 C 0.3136(3) 0.5038(2) 0.31559(19) 0.0214(6) Uani 1 1 d . . .
C10 C 0.2647(3) 0.5668(2) 0.3590(2) 0.0218(6) Uani 1 1 d . . .
C11 C 0.2977(3) 0.5444(2) 0.44619(19) 0.0209(6) Uani 1 1 d . . .
C12 C 0.2644(3) 0.6125(2) 0.4902(2) 0.0235(7) Uani 1 1 d . . .
H12A H 0.2281 0.6825 0.4635 0.028 Uiso 1 1 calc R U .
C13 C 0.2938(3) 0.5593(2) 0.5753(2) 0.0222(6) Uani 1 1 d . . .
H13A H 0.2818 0.5847 0.6199 0.027 Uiso 1 1 calc R U .
C14 C 0.3470(3) 0.4565(2) 0.58730(19) 0.0201(6) Uani 1 1 d . . .
C15 C 0.3750(3) 0.3742(2) 0.6674(2) 0.0213(6) Uani 1 1 d . . .
C16 C 0.4448(3) 0.2789(2) 0.67576(19) 0.0219(6) Uani 1 1 d . . .
C17 C 0.4724(3) 0.1908(2) 0.7560(2) 0.0262(7) Uani 1 1 d . . .
H17A H 0.4395 0.1849 0.8117 0.031 Uiso 1 1 calc R U .
C18 C 0.5536(3) 0.1184(2) 0.7375(2) 0.0268(7) Uani 1 1 d . . .
H18A H 0.5897 0.0524 0.7778 0.032 Uiso 1 1 calc R U .
C19 C 0.5755(3) 0.1595(2) 0.6454(2) 0.0233(7) Uani 1 1 d . . .
C20 C 0.6568(3) 0.1087(2) 0.6003(2) 0.0226(6) Uani 1 1 d . . .
C21 C 0.5709(3) 0.2774(2) 0.2117(2) 0.0250(7) Uani 1 1 d . . .
C22 C 0.5561(4) 0.1831(2) 0.2101(2) 0.0299(7) Uani 1 1 d . . .
H22A H 0.5194 0.1336 0.2591 0.036 Uiso 1 1 calc R U .
C23 C 0.5937(4) 0.1611(3) 0.1387(2) 0.0321(8) Uani 1 1 d . . .
H23A H 0.5814 0.0969 0.1391 0.038 Uiso 1 1 calc R U .
C24 C 0.6491(4) 0.2310(3) 0.0663(2) 0.0327(8) Uani 1 1 d . . .
C25 C 0.6615(4) 0.3251(3) 0.0669(2) 0.0357(8) Uani 1 1 d . . .
H25A H 0.6968 0.3748 0.0173 0.043 Uiso 1 1 calc R U .
C26 C 0.6234(4) 0.3482(2) 0.1387(2) 0.0312(8) Uani 1 1 d . . .
H26A H 0.6335 0.4131 0.1375 0.037 Uiso 1 1 calc R U .
C27 C 0.6929(5) 0.2052(3) -0.0107(2) 0.0459(10) Uani 1 1 d . . .
H27A H 0.6763 0.1359 0.0010 0.069 Uiso 1 1 calc R U .
H27B H 0.6366 0.2525 -0.0627 0.069 Uiso 1 1 calc R U .
H27C H 0.7942 0.2106 -0.0203 0.069 Uiso 1 1 calc R U .
C31 C 0.1632(3) 0.6610(2) 0.31209(19) 0.0226(6) Uani 1 1 d . . .
C32 C 0.1940(4) 0.7363(2) 0.2351(2) 0.0267(7) Uani 1 1 d . . .
H32A H 0.2837 0.7295 0.2101 0.032 Uiso 1 1 calc R U .
C33 C 0.0958(4) 0.8215(2) 0.1937(2) 0.0299(7) Uani 1 1 d . . .
H33A H 0.1195 0.8722 0.1407 0.036 Uiso 1 1 calc R U .
C34 C -0.0361(4) 0.8350(2) 0.2276(2) 0.0313(8) Uani 1 1 d . . .
C35 C -0.0661(3) 0.7607(2) 0.3050(2) 0.0304(7) Uani 1 1 d . . .
H35A H -0.1551 0.7685 0.3303 0.036 Uiso 1 1 calc R U .
C36 C 0.0309(3) 0.6746(2) 0.3469(2) 0.0269(7) Uani 1 1 d . . .
H36A H 0.0070 0.6242 0.4000 0.032 Uiso 1 1 calc R U .
C37 C -0.1410(4) 0.9296(3) 0.1828(3) 0.0435(9) Uani 1 1 d . . .
H37A H -0.1012 0.9733 0.1289 0.065 Uiso 1 1 calc R U .
H37B H -0.2302 0.9109 0.1691 0.065 Uiso 1 1 calc R U .
H37C H -0.1596 0.9659 0.2215 0.065 Uiso 1 1 calc R U .
C41 C 0.3246(3) 0.3899(2) 0.74749(19) 0.0224(6) Uani 1 1 d . . .
C42 C 0.4146(4) 0.3695(2) 0.8176(2) 0.0277(7) Uani 1 1 d . . .
H42A H 0.5123 0.3458 0.8152 0.033 Uiso 1 1 calc R U .
C43 C 0.3663(4) 0.3826(2) 0.8919(2) 0.0326(8) Uani 1 1 d . . .
H43A H 0.4314 0.3680 0.9392 0.039 Uiso 1 1 calc R U .
C44 C 0.2247(4) 0.4165(3) 0.8982(2) 0.0345(8) Uani 1 1 d . . .
C45 C 0.1340(4) 0.4384(3) 0.8275(2) 0.0341(8) Uani 1 1 d . . .
H45A H 0.0365 0.4627 0.8300 0.041 Uiso 1 1 calc R U .
C46 C 0.1816(3) 0.4259(2) 0.7532(2) 0.0291(7) Uani 1 1 d . . .
H46A H 0.1167 0.4418 0.7055 0.035 Uiso 1 1 calc R U .
C47 C 0.1717(5) 0.4309(3) 0.9791(3) 0.0532(11) Uani 1 1 d . . .
H47A H 0.2508 0.4116 1.0219 0.080 Uiso 1 1 calc R U .
H47B H 0.1328 0.5021 0.9638 0.080 Uiso 1 1 calc R U .
H47C H 0.0971 0.3883 1.0039 0.080 Uiso 1 1 calc R U .
C51 C 0.7398(3) 0.0070(2) 0.65035(19) 0.0237(7) Uani 1 1 d . . .
C52 C 0.8558(4) -0.0048(2) 0.7040(2) 0.0324(8) Uani 1 1 d . . .
H52A H 0.8810 0.0523 0.7122 0.039 Uiso 1 1 calc R U .
C53 C 0.9360(4) -0.0992(3) 0.7459(2) 0.0360(8) Uani 1 1 d . . .
H53A H 1.0161 -0.1057 0.7820 0.043 Uiso 1 1 calc R U .
C54 C 0.9012(4) -0.1842(2) 0.7361(2) 0.0319(8) Uani 1 1 d . . .
C55 C 0.7848(4) -0.1722(2) 0.6829(2) 0.0316(8) Uani 1 1 d . . .
H55A H 0.7588 -0.2294 0.6754 0.038 Uiso 1 1 calc R U .
C56 C 0.7047(4) -0.0777(2) 0.6399(2) 0.0280(7) Uani 1 1 d . . .
H56A H 0.6254 -0.0711 0.6032 0.034 Uiso 1 1 calc R U .
C57 C 0.9903(4) -0.2866(3) 0.7804(3) 0.0478(10) Uani 1 1 d . . .
H57A H 1.0678 -0.2807 0.8153 0.072 Uiso 1 1 calc R U .
H57B H 0.9305 -0.3350 0.8183 0.072 Uiso 1 1 calc R U .
H57C H 1.0302 -0.3105 0.7362 0.072 Uiso 1 1 calc R U .
C61 C 0.2845(3) 0.2715(2) 0.4903(2) 0.0236(7) Uani 1 1 d . . .
C62 C 0.2858(2) 0.14991(16) 0.54752(13) 0.0623(5) Uani 0.5 1 d . . P
S1' S 0.2858(2) 0.14991(16) 0.54752(13) 0.0623(5) Uani 0.5 1 d . . P
C63 C 0.1205(4) 0.1510(3) 0.5289(2) 0.0367(8) Uani 1 1 d . . .
H63 H 0.0778 0.0908 0.5534 0.044 Uiso 1 1 calc R U .
C64 C 0.0439(4) 0.2389(3) 0.4781(3) 0.0398(9) Uani 1 1 d . . .
H64 H -0.0542 0.2430 0.4645 0.048 Uiso 1 1 calc R U .
C65 C 0.2452(6) 0.1479(4) 0.0523(4) 0.0755(15) Uani 1 1 d . . .
H65A H 0.2891 0.2110 0.0283 0.091 Uiso 1 1 calc R U .
H65B H 0.2444 0.1263 0.1164 0.091 Uiso 1 1 calc R U .
Cl1 Cl 0.34955(18) 0.05468(11) 0.02790(10) 0.0862(4) Uani 1 1 d . . .
Cl2 Cl 0.07072(17) 0.17352(14) 0.01153(11) 0.1014(5) Uani 1 1 d . . .
loop_
_atom_site_aniso_label
_atom_site_aniso_U_11
_atom_site_aniso_U_22
_atom_site_aniso_U_33
_atom_site_aniso_U_23
_atom_site_aniso_U_13
_atom_site_aniso_U_12
Rh1 0.02174(14) 0.01818(12) 0.01814(13) -0.01108(9) 0.00131(9) 0.00087(8)
S1 0.0231(7) 0.0399(7) 0.0453(8) -0.0284(6) 0.0086(6) -0.0106(6)
C62' 0.0231(7) 0.0399(7) 0.0453(8) -0.0284(6) 0.0086(6) -0.0106(6)
N1 0.0244(14) 0.0198(12) 0.0196(13) -0.0112(10) 0.0023(11) -0.0012(10)
N2 0.0186(13) 0.0233(13) 0.0210(13) -0.0138(10) 0.0008(10) 0.0006(10)
N3 0.0199(13) 0.0223(12) 0.0178(13) -0.0111(10) -0.0005(10) 0.0004(10)
N4 0.0231(14) 0.0213(12) 0.0212(13) -0.0133(10) 0.0042(11) 0.0001(10)
C1 0.0259(17) 0.0188(14) 0.0241(16) -0.0122(12) 0.0035(13) -0.0015(12)
C2 0.0286(18) 0.0224(15) 0.0292(18) -0.0130(13) 0.0032(14) 0.0041(12)
C3 0.0304(18) 0.0246(16) 0.0266(17) -0.0153(13) 0.0057(14) 0.0011(13)
C4 0.0260(17) 0.0229(15) 0.0223(16) -0.0143(12) 0.0045(13) -0.0039(12)
C5 0.0249(17) 0.0252(15) 0.0202(16) -0.0135(12) 0.0041(13) -0.0033(12)
C6 0.0258(17) 0.0256(15) 0.0221(16) -0.0150(13) 0.0007(13) -0.0021(12)
C7 0.0281(18) 0.0336(17) 0.0215(16) -0.0177(13) -0.0018(13) -0.0002(13)
C8 0.0257(17) 0.0309(17) 0.0221(16) -0.0129(13) -0.0042(13) 0.0018(13)
C9 0.0210(16) 0.0237(15) 0.0199(16) -0.0100(12) -0.0019(12) -0.0002(12)
C10 0.0195(16) 0.0246(15) 0.0226(16) -0.0121(12) 0.0018(13) 0.0006(12)
C11 0.0196(16) 0.0213(15) 0.0234(16) -0.0117(12) 0.0016(13) 0.0008(11)
C12 0.0231(17) 0.0226(15) 0.0278(17) -0.0144(13) 0.0004(13) 0.0008(12)
C13 0.0228(17) 0.0230(15) 0.0242(16) -0.0142(13) 0.0000(13) 0.0011(12)
C14 0.0197(16) 0.0249(15) 0.0190(15) -0.0136(12) 0.0011(12) 0.0011(12)
C15 0.0186(16) 0.0255(15) 0.0243(16) -0.0161(13) 0.0011(13) 0.0011(12)
C16 0.0203(16) 0.0270(16) 0.0205(16) -0.0122(12) 0.0017(13) -0.0012(12)
C17 0.0328(19) 0.0243(15) 0.0206(16) -0.0088(12) 0.0055(14) -0.0018(13)
C18 0.0337(19) 0.0211(15) 0.0232(17) -0.0072(12) 0.0029(14) 0.0000(13)
C19 0.0266(17) 0.0216(15) 0.0222(16) -0.0102(12) 0.0001(13) -0.0003(12)
C20 0.0275(17) 0.0190(14) 0.0239(16) -0.0117(12) 0.0019(13) -0.0017(12)
C21 0.0256(17) 0.0297(16) 0.0229(17) -0.0158(13) 0.0005(13) 0.0030(13)
C22 0.036(2) 0.0298(17) 0.0282(18) -0.0173(14) 0.0037(15) -0.0018(14)
C23 0.037(2) 0.0335(18) 0.0316(19) -0.0220(15) -0.0029(15) 0.0036(14)
C24 0.034(2) 0.0410(19) 0.0250(18) -0.0199(15) -0.0042(15) 0.0092(15)
C25 0.044(2) 0.0383(19) 0.0223(18) -0.0113(14) 0.0037(15) 0.0005(15)
C26 0.039(2) 0.0304(17) 0.0261(18) -0.0150(14) 0.0012(15) -0.0006(14)
C27 0.057(3) 0.055(2) 0.028(2) -0.0249(18) 0.0011(18) 0.0116(19)
C31 0.0244(17) 0.0269(16) 0.0208(16) -0.0162(13) -0.0028(13) 0.0034(12)
C32 0.0283(18) 0.0304(17) 0.0229(17) -0.0138(13) 0.0016(14) 0.0015(13)
C33 0.0316(19) 0.0304(17) 0.0276(18) -0.0134(14) -0.0029(15) 0.0022(14)
C34 0.0294(19) 0.0331(18) 0.0348(19) -0.0200(15) -0.0110(15) 0.0068(14)
C35 0.0212(17) 0.0393(19) 0.037(2) -0.0248(16) -0.0012(15) 0.0050(13)
C36 0.0266(18) 0.0318(17) 0.0251(17) -0.0150(14) 0.0015(14) -0.0014(13)
C37 0.034(2) 0.037(2) 0.053(2) -0.0148(17) -0.0123(18) 0.0102(16)
C41 0.0264(17) 0.0201(15) 0.0220(16) -0.0106(12) 0.0035(13) -0.0005(12)
C42 0.0268(18) 0.0298(17) 0.0267(18) -0.0136(13) 0.0026(14) 0.0030(13)
C43 0.038(2) 0.0353(18) 0.0243(18) -0.0146(14) -0.0017(15) 0.0046(15)
C44 0.043(2) 0.0342(18) 0.0310(19) -0.0187(15) 0.0113(16) -0.0035(15)
C45 0.0273(19) 0.0382(19) 0.042(2) -0.0234(16) 0.0103(16) 0.0001(14)
C46 0.0260(18) 0.0310(17) 0.0343(19) -0.0189(14) 0.0017(15) 0.0007(13)
C47 0.056(3) 0.069(3) 0.044(2) -0.035(2) 0.019(2) -0.003(2)
C51 0.0297(18) 0.0218(15) 0.0200(16) -0.0106(12) 0.0048(13) 0.0020(12)
C52 0.040(2) 0.0274(17) 0.0322(19) -0.0157(14) -0.0031(16) -0.0003(14)
C53 0.034(2) 0.0383(19) 0.035(2) -0.0166(16) -0.0075(16) 0.0041(15)
C54 0.035(2) 0.0263(17) 0.0278(18) -0.0070(13) 0.0043(15) 0.0068(14)
C55 0.039(2) 0.0217(16) 0.0343(19) -0.0118(14) 0.0063(16) -0.0019(14)
C56 0.0299(19) 0.0252(16) 0.0297(18) -0.0123(13) 0.0009(14) -0.0014(13)
C57 0.048(2) 0.031(2) 0.050(2) -0.0058(17) -0.0038(19) 0.0118(17)
C61 0.0243(17) 0.0298(16) 0.0241(17) -0.0184(13) 0.0067(13) -0.0053(13)
C62 0.0616(12) 0.0816(13) 0.0695(13) -0.0503(11) 0.0245(10) -0.0351(10)
S1' 0.0616(12) 0.0816(13) 0.0695(13) -0.0503(11) 0.0245(10) -0.0351(10)
C63 0.040(2) 0.0369(19) 0.046(2) -0.0284(17) 0.0150(17) -0.0128(16)
C64 0.030(2) 0.050(2) 0.054(2) -0.0360(19) 0.0106(18) -0.0083(16)
C65 0.069(3) 0.080(4) 0.077(4) -0.028(3) 0.000(3) -0.014(3)
Cl1 0.1057(12) 0.0838(9) 0.0739(9) -0.0403(8) -0.0204(8) 0.0029(8)
Cl2 0.0765(10) 0.1192(13) 0.0978(12) -0.0297(10) -0.0172(9) -0.0151(9)
loop_
_atom_type_symbol
_atom_type_description
_atom_type_scat_dispersion_real
_atom_type_scat_dispersion_imag
_atom_type_scat_source
C C 0.0033 0.0016 'International Tables Vol C Tables 4.2.6.8 and 6.1.1.4'
H H 0.0000 0.0000 'International Tables Vol C Tables 4.2.6.8 and 6.1.1.4'
N N 0.0061 0.0033 'International Tables Vol C Tables 4.2.6.8 and 6.1.1.4'
S S 0.1246 0.1234 'International Tables Vol C Tables 4.2.6.8 and 6.1.1.4'
Rh Rh -1.1178 0.9187 'International Tables Vol C Tables 4.2.6.8 and 6.1.1.4'
Cl Cl 0.1484 0.1585 'International Tables Vol C Tables 4.2.6.8 and 6.1.1.4'
loop_
_geom_angle_atom_site_label_1
_geom_angle_atom_site_label_2
_geom_angle_atom_site_label_3
_geom_angle
C61 Rh1 N3 92.76(11)
C61 Rh1 N1 93.11(11)
N3 Rh1 N1 174.13(10)
C61 Rh1 N4 89.50(11)
N3 Rh1 N4 89.35(9)
N1 Rh1 N4 90.72(9)
C61 Rh1 N2 89.86(11)
N3 Rh1 N2 90.32(9)
N1 Rh1 N2 89.68(9)
N4 Rh1 N2 179.26(10)
C64 S1 C61 92.43(18)
C1 N1 C4 106.9(2)
C1 N1 Rh1 125.66(19)
C4 N1 Rh1 126.97(19)
C9 N2 C6 107.0(2)
C9 N2 Rh1 125.35(19)
C6 N2 Rh1 125.72(19)
C14 N3 C11 107.1(2)
C14 N3 Rh1 126.81(19)
C11 N3 Rh1 125.66(19)
C16 N4 C19 106.8(2)
C16 N4 Rh1 126.32(19)
C19 N4 Rh1 125.51(19)
N1 C1 C20 126.0(3)
N1 C1 C2 109.1(3)
C20 C1 C2 124.8(3)
C3 C2 C1 107.6(3)
C2 C3 C4 107.6(3)
N1 C4 C5 125.5(3)
N1 C4 C3 108.7(3)
C5 C4 C3 125.8(3)
C4 C5 C6 124.0(3)
C4 C5 C21 117.0(3)
C6 C5 C21 119.0(3)
N2 C6 C5 125.4(3)
N2 C6 C7 108.7(3)
C5 C6 C7 125.9(3)
C8 C7 C6 107.7(3)
C7 C8 C9 107.6(3)
N2 C9 C10 124.9(3)
N2 C9 C8 108.9(3)
C10 C9 C8 126.1(3)
C11 C10 C9 124.0(3)
C11 C10 C31 116.7(3)
C9 C10 C31 119.2(3)
N3 C11 C10 125.8(3)
N3 C11 C12 108.4(3)
C10 C11 C12 125.6(3)
C13 C12 C11 107.7(3)
C12 C13 C14 107.8(3)
N3 C14 C15 125.4(3)
N3 C14 C13 108.6(2)
C15 C14 C13 125.9(3)
C14 C15 C16 123.4(3)
C14 C15 C41 117.3(2)
C16 C15 C41 119.2(3)
N4 C16 C15 125.0(3)
N4 C16 C17 109.1(3)
C15 C16 C17 125.8(3)
C18 C17 C16 107.3(3)
C17 C18 C19 107.4(3)
N4 C19 C20 125.4(3)
N4 C19 C18 109.2(3)
C20 C19 C18 125.3(3)
C1 C20 C19 124.4(3)
C1 C20 C51 116.3(3)
C19 C20 C51 119.3(3)
C26 C21 C22 117.7(3)
C26 C21 C5 121.4(3)
C22 C21 C5 120.7(3)
C23 C22 C21 121.2(3)
C22 C23 C24 121.2(3)
C25 C24 C23 117.9(3)
C25 C24 C27 121.4(3)
C23 C24 C27 120.7(3)
C24 C25 C26 121.4(3)
C21 C26 C25 120.6(3)
C32 C31 C36 117.7(3)
C32 C31 C10 123.0(3)
C36 C31 C10 119.3(3)
C31 C32 C33 120.7(3)
C34 C33 C32 121.8(3)
C35 C34 C33 117.5(3)
C35 C34 C37 121.2(3)
C33 C34 C37 121.2(3)
C34 C35 C36 121.3(3)
C35 C36 C31 120.9(3)
C42 C41 C46 117.4(3)
C42 C41 C15 122.1(3)
C46 C41 C15 120.5(3)
C41 C42 C43 121.6(3)
C44 C43 C42 121.0(3)
C45 C44 C43 117.7(3)
C45 C44 C47 121.2(3)
C43 C44 C47 121.2(3)
C44 C45 C46 121.6(3)
C45 C46 C41 120.7(3)
C52 C51 C56 118.5(3)
C52 C51 C20 121.7(3)
C56 C51 C20 119.7(3)
C51 C52 C53 120.6(3)
C54 C53 C52 121.1(3)
C55 C54 C53 118.0(3)
C55 C54 C57 120.9(3)
C53 C54 C57 121.1(3)
C54 C55 C56 121.3(3)
C51 C56 C55 120.5(3)
C62 C61 S1 117.03(19)
C62 C61 Rh1 121.49(19)
S1 C61 Rh1 121.48(17)
C63 C62 C61 94.9(2)
C64 C63 C62 118.4(3)
C63 C64 S1 117.3(3)
Cl1 C65 Cl2 113.6(3)
loop_
_geom_bond_atom_site_label_1
_geom_bond_atom_site_label_2
_geom_bond_distance
Rh1 C61 1.986(3)
Rh1 N3 2.010(2)
Rh1 N1 2.018(2)
Rh1 N4 2.033(2)
Rh1 N2 2.038(2)
S1 C64 1.644(4)
S1 C61 1.708(3)
N1 C1 1.374(4)
N1 C4 1.380(4)
N2 C9 1.378(4)
N2 C6 1.379(4)
N3 C14 1.378(4)
N3 C11 1.381(4)
N4 C16 1.374(4)
N4 C19 1.375(4)
C1 C20 1.398(4)
C1 C2 1.433(4)
C2 C3 1.346(4)
C3 C4 1.438(4)
C4 C5 1.396(4)
C5 C6 1.402(4)
C5 C21 1.495(4)
C6 C7 1.438(4)
C7 C8 1.345(4)
C8 C9 1.434(4)
C9 C10 1.402(4)
C10 C11 1.395(4)
C10 C31 1.496(4)
C11 C12 1.444(4)
C12 C13 1.339(4)
C13 C14 1.442(4)
C14 C15 1.400(4)
C15 C16 1.402(4)
C15 C41 1.502(4)
C16 C17 1.441(4)
C17 C18 1.347(4)
C18 C19 1.437(4)
C19 C20 1.402(4)
C20 C51 1.494(4)
C21 C26 1.387(4)
C21 C22 1.403(4)
C22 C23 1.379(4)
C23 C24 1.387(5)
C24 C25 1.388(5)
C24 C27 1.510(5)
C25 C26 1.395(5)
C31 C32 1.380(4)
C31 C36 1.396(4)
C32 C33 1.383(4)
C33 C34 1.385(5)
C34 C35 1.376(5)
C34 C37 1.511(4)
C35 C36 1.386(4)
C41 C42 1.373(4)
C41 C46 1.401(4)
C42 C43 1.388(4)
C43 C44 1.383(5)
C44 C45 1.380(5)
C44 C47 1.512(5)
C45 C46 1.382(5)
C51 C52 1.382(5)
C51 C56 1.389(4)
C52 C53 1.389(5)
C53 C54 1.388(5)
C54 C55 1.379(5)
C54 C57 1.512(4)
C55 C56 1.391(4)
C61 C62 1.641(4)
C62 C63 1.601(4)
C63 C64 1.341(5)
C65 Cl1 1.740(6)
C65 Cl2 1.737(5)
