#------------------------------------------------------------------------------
#$Date: 2016-05-04 18:59:27 +0300 (Wed, 04 May 2016) $
#$Revision: 182497 $
#$URL: svn://www.crystallography.net/cod/cif/4/12/49/4124935.cif $
#------------------------------------------------------------------------------
#
# This file is available in the Crystallography Open Database (COD),
# http://www.crystallography.net/
#
# All data on this site have been placed in the public domain by the
# contributors.
#
data_4124935
loop_
_publ_author_name
'Hong, Jung-Ho'
'Aslam, Adil S.'
'Ishida, Masatoshi'
'Mori, Shigeki'
'Furuta, Hiroyuki'
'Cho, Dong-Gyu'
_publ_section_title
;
 2-(Naphthalen-1-yl)thiophene as a New Motif for Porphyrinoids: Meso-Fused
 Carbaporphyrin.
;
_journal_issue                   15
_journal_name_full               'Journal of the American Chemical Society'
_journal_page_first              4992
_journal_page_last               4995
_journal_paper_doi               10.1021/jacs.6b01063
_journal_volume                  138
_journal_year                    2016
_chemical_formula_moiety         'C46 H32 N2 Pd S, C H4 O'
_chemical_formula_sum            'C47 H36 N2 O Pd S'
_chemical_formula_weight         783.24
_space_group_crystal_system      triclinic
_space_group_IT_number           2
_space_group_name_Hall           '-P 1'
_space_group_name_H-M_alt        'P -1'
_symmetry_space_group_name_Hall  '-P 1'
_symmetry_space_group_name_H-M   'P -1'
_atom_sites_solution_hydrogens   geom
_atom_sites_solution_primary     direct
_atom_sites_solution_secondary   difmap
_audit_creation_method           SHELXL-2014/7
_cell_angle_alpha                107.223(4)
_cell_angle_beta                 100.014(5)
_cell_angle_gamma                102.029(4)
_cell_formula_units_Z            2
_cell_length_a                   9.169(3)
_cell_length_b                   13.469(5)
_cell_length_c                   15.617(6)
_cell_measurement_reflns_used    6683
_cell_measurement_temperature    100(2)
_cell_measurement_theta_max      31.09
_cell_measurement_theta_min      2.35
_cell_volume                     1743.5(11)
_computing_cell_refinement       CrystalClear
_computing_data_collection       'CrystalClear (Rigaku Inc., 2008)'
_computing_data_reduction        CrystalClear
_computing_molecular_graphics    'CrystalStructure 4.1.1 (Rigaku, 2015)'
_computing_publication_material  'CrystalStructure 4.1.1'
_computing_structure_refinement  'SHELXL-2014/7 (Sheldrick, 2014)'
_computing_structure_solution    'SIR2011 (Burla, et al., 2012)'
_diffrn_ambient_temperature      100(2)
_diffrn_detector_area_resol_mean 7.111
_diffrn_measured_fraction_theta_full 0.999
_diffrn_measured_fraction_theta_max 0.997
_diffrn_measurement_device_type  'Rigaku Saturn724'
_diffrn_measurement_method       \w
_diffrn_radiation_type           MoK\a
_diffrn_radiation_wavelength     0.71075
_diffrn_reflns_av_R_equivalents  0.0369
_diffrn_reflns_av_unetI/netI     0.0376
_diffrn_reflns_Laue_measured_fraction_full 0.999
_diffrn_reflns_Laue_measured_fraction_max 0.997
_diffrn_reflns_limit_h_max       12
_diffrn_reflns_limit_h_min       -12
_diffrn_reflns_limit_k_max       17
_diffrn_reflns_limit_k_min       -17
_diffrn_reflns_limit_l_max       20
_diffrn_reflns_limit_l_min       -20
_diffrn_reflns_number            29774
_diffrn_reflns_point_group_measured_fraction_full 0.999
_diffrn_reflns_point_group_measured_fraction_max 0.997
_diffrn_reflns_theta_full        25.242
_diffrn_reflns_theta_max         28.000
_diffrn_reflns_theta_min         2.347
_diffrn_source                   'Varimax 50 kV 24 mA Rotating anode'
_exptl_absorpt_coefficient_mu    0.634
_exptl_absorpt_correction_T_max  0.987
_exptl_absorpt_correction_T_min  0.906
_exptl_absorpt_correction_type   multi-scan
_exptl_absorpt_process_details   'REQAB (Rigaku, 1998)'
_exptl_crystal_colour            green
_exptl_crystal_density_diffrn    1.492
_exptl_crystal_density_method    'not measured'
_exptl_crystal_description       platelet
_exptl_crystal_F_000             804
_exptl_crystal_size_max          0.180
_exptl_crystal_size_mid          0.090
_exptl_crystal_size_min          0.020
_refine_diff_density_max         0.966
_refine_diff_density_min         -0.840
_refine_diff_density_rms         0.089
_refine_ls_extinction_method     none
_refine_ls_goodness_of_fit_ref   1.072
_refine_ls_hydrogen_treatment    constr
_refine_ls_matrix_type           full
_refine_ls_number_parameters     494
_refine_ls_number_reflns         8377
_refine_ls_number_restraints     40
_refine_ls_restrained_S_all      1.099
_refine_ls_R_factor_all          0.0423
_refine_ls_R_factor_gt           0.0378
_refine_ls_shift/su_max          0.002
_refine_ls_shift/su_mean         0.000
_refine_ls_structure_factor_coef Fsqd
_refine_ls_weighting_details
'w=1/[\s^2^(Fo^2^)+(0.0240P)^2^+2.4250P] where P=(Fo^2^+2Fc^2^)/3'
_refine_ls_weighting_scheme      calc
_refine_ls_wR_factor_gt          0.0760
_refine_ls_wR_factor_ref         0.0785
_reflns_Friedel_coverage         0.000
_reflns_number_gt                7702
_reflns_number_total             8377
_reflns_threshold_expression     'I > 2\s(I)'
_cod_data_source_file            ja6b01063_si_003.cif
_cod_data_source_block           shelxl
_cod_depositor_comments
'Adding full bibliography for 4124934--4124935.cif.'
_cod_original_cell_volume        1743.6(11)
_cod_database_code               4124935
_shelx_shelxl_version_number     2014/7
_shelx_space_group_comment
;
The symmetry employed for this shelxl refinement is uniquely defined
by the following loop, which should always be used as a source of
symmetry information in preference to the above space-group names.
They are only intended as comments.
;
_shelx_estimated_absorpt_t_min   0.894
_shelx_estimated_absorpt_t_max   0.987
_shelx_res_file
;

    shelxl.res created by SHELXL-2014/7


TITL ProfFuruta
CELL  0.71075 9.16940 13.46890 15.61710 107.223 100.014 102.029
ZERR  2 0.00330 0.00510 0.00550 0.004 0.005 0.004
LATT 1
SFAC C H N PD S O
UNIT 94 72 4 2 2 2
SHEL 99999.000000 0.756965
L.S. 10
FMAP 2
PLAN -5
WPDB -2
HTAB
BOND $H
CONF
LIST 4
TEMP -173.0
ACTA
SIZE 0.180 0.090 0.020
DFIX 1.42 0.02 O1 C47
SIMU 0.008 0.016 O1 C47
ISOR 0.008 0.016 O1 C47
DELU 0.015 O1 C47
DFIX 1.42 0.02 O1A C47A
SIMU 0.008 0.016 O1A C47A
ISOR 0.008 0.016 O1A C47A
DELU 0.015 O1A C47A
WGHT    0.024000    2.425000
FVAR       0.88086   0.55098
PD1   4    0.301879    0.991350    0.397124    11.00000    0.01408    0.01013 =
         0.01419    0.00371    0.00457    0.00399
S1    5    0.307557    1.061059    0.544159    11.00000    0.01451    0.01100 =
         0.01499    0.00376    0.00445    0.00409
N1    3    0.302122    0.844074    0.423039    11.00000    0.01383    0.01019 =
         0.01654    0.00495    0.00438    0.00417
N2    3    0.328543    0.923393    0.268615    11.00000    0.01970    0.01046 =
         0.01535    0.00337    0.00934    0.00507
C1    1    0.192950    1.147270    0.562409    11.00000    0.01668    0.01341 =
         0.01432    0.00166    0.00169    0.00579
C2    1    0.091752    1.116566    0.611357    11.00000    0.01817    0.01623 =
         0.01555    0.00259    0.00493    0.00689
AFIX  43
H2    2    0.025082    1.157550    0.633869    11.00000   -1.20000
AFIX   0
C3    1    0.096753    1.017954    0.624861    11.00000    0.01582    0.01614 =
         0.01228    0.00308    0.00287    0.00386
AFIX  43
H3    2    0.034538    0.986674    0.658004    11.00000   -1.20000
AFIX   0
C4    1    0.200735    0.971392    0.585271    11.00000    0.01500    0.01490 =
         0.01311    0.00518    0.00290    0.00366
C5    1    0.230934    0.869652    0.574575    11.00000    0.01537    0.01445 =
         0.01494    0.00524    0.00337    0.00360
C6    1    0.288860    0.818324    0.502395    11.00000    0.01412    0.01247 =
         0.01474    0.00434    0.00145    0.00246
C7    1    0.336845    0.720800    0.496701    11.00000    0.01887    0.01473 =
         0.01932    0.00829    0.00334    0.00747
AFIX  43
H7    2    0.341079    0.686827    0.542060    11.00000   -1.20000
AFIX   0
C8    1    0.374113    0.687549    0.415465    11.00000    0.01652    0.01300 =
         0.01908    0.00512    0.00250    0.00495
AFIX  43
H8    2    0.410246    0.626008    0.393024    11.00000   -1.20000
AFIX   0
C9    1    0.349101    0.762732    0.368364    11.00000    0.01473    0.00946 =
         0.01891    0.00347    0.00447    0.00324
C10   1    0.367902    0.750182    0.279489    11.00000    0.01652    0.01145 =
         0.01937    0.00314    0.00506    0.00457
C11   1    0.345197    0.821995    0.232888    11.00000    0.01959    0.01305 =
         0.01745    0.00360    0.00778    0.00498
C12   1    0.331543    0.796594    0.134597    11.00000    0.02521    0.01651 =
         0.01837    0.00419    0.00823    0.00671
AFIX  43
H12   2    0.340378    0.731780    0.093009    11.00000   -1.20000
AFIX   0
C13   1    0.303990    0.881762    0.112872    11.00000    0.02172    0.01673 =
         0.01432    0.00288    0.00473    0.00538
AFIX  43
H13   2    0.285821    0.887049    0.052820    11.00000   -1.20000
AFIX   0
C14   1    0.307275    0.963754    0.198282    11.00000    0.01493    0.01446 =
         0.01595    0.00510    0.00587    0.00341
C15   1    0.301347    1.067843    0.209333    11.00000    0.01409    0.01475 =
         0.01727    0.00653    0.00558    0.00370
C16   1    0.317659    1.152780    0.296320    11.00000    0.01388    0.01160 =
         0.01670    0.00494    0.00240    0.00372
C17   1    0.293435    1.138741    0.379684    11.00000    0.01205    0.01077 =
         0.01729    0.00504    0.00138    0.00237
C18   1    0.280536    1.235251    0.449737    11.00000    0.01293    0.01195 =
         0.01796    0.00411    0.00101    0.00352
C19   1    0.226588    1.239143    0.532603    11.00000    0.01373    0.01239 =
         0.01671    0.00247    0.00060    0.00441
C20   1    0.208933    1.334367    0.591737    11.00000    0.02183    0.01561 =
         0.02162    0.00296    0.00573    0.00744
AFIX  43
H20   2    0.169003    1.331847    0.643492    11.00000   -1.20000
AFIX   0
C21   1    0.247714    1.432068    0.577312    11.00000    0.02594    0.01320 =
         0.02350    0.00129    0.00500    0.00907
AFIX  43
H21   2    0.237687    1.496284    0.619124    11.00000   -1.20000
AFIX   0
C22   1    0.300935    1.433162    0.500916    11.00000    0.02380    0.01251 =
         0.02383    0.00606    0.00337    0.00576
AFIX  43
H22   2    0.329007    1.499652    0.490295    11.00000   -1.20000
AFIX   0
C23   1    0.315409    1.338855    0.437546    11.00000    0.01677    0.01261 =
         0.01853    0.00367   -0.00013    0.00447
C24   1    0.365405    1.348415    0.359235    11.00000    0.02203    0.01274 =
         0.02269    0.00761    0.00212    0.00368
AFIX  43
H24   2    0.401356    1.417821    0.355016    11.00000   -1.20000
AFIX   0
C25   1    0.362151    1.259132    0.290471    11.00000    0.02045    0.01616 =
         0.01884    0.00847    0.00319    0.00367
AFIX  43
H25   2    0.390060    1.266465    0.236394    11.00000   -1.20000
AFIX   0
C26   1    0.191422    0.816809    0.641811    11.00000    0.01574    0.01690 =
         0.01785    0.00881    0.00633    0.00712
C27   1    0.096034    0.710841    0.610877    11.00000    0.02023    0.01836 =
         0.01807    0.00602    0.00286    0.00496
AFIX  43
H27   2    0.056803    0.671969    0.546330    11.00000   -1.20000
AFIX   0
C28   1    0.058484    0.662266    0.674156    11.00000    0.02088    0.01619 =
         0.02551    0.00916    0.00573    0.00425
AFIX  43
H28   2   -0.006165    0.590256    0.652267    11.00000   -1.20000
AFIX   0
C29   1    0.114067    0.717417    0.769097    11.00000    0.01792    0.02329 =
         0.02325    0.01254    0.00958    0.01029
C30   1    0.207897    0.822890    0.799354    11.00000    0.02056    0.02338 =
         0.01672    0.00702    0.00475    0.00541
AFIX  43
H30   2    0.246618    0.861799    0.863922    11.00000   -1.20000
AFIX   0
C31   1    0.245982    0.872351    0.736598    11.00000    0.02008    0.01697 =
         0.01886    0.00595    0.00560    0.00401
AFIX  43
H31   2    0.309763    0.944634    0.758691    11.00000   -1.20000
AFIX   0
C32   1    0.069013    0.663866    0.836734    11.00000    0.03060    0.02734 =
         0.03079    0.01684    0.01460    0.00949
AFIX 137
H32A  2   -0.037938    0.661906    0.838212    11.00000   -1.20000
H32B  2    0.136951    0.705070    0.898684    11.00000   -1.20000
H32C  2    0.078821    0.589908    0.817154    11.00000   -1.20000
AFIX   0
C33   1    0.413523    0.653299    0.228763    11.00000    0.02372    0.01380 =
         0.01774    0.00392    0.00704    0.00810
C34   1    0.322692    0.547831    0.205901    11.00000    0.02666    0.01654 =
         0.03056    0.00584    0.01277    0.00543
AFIX  43
H34   2    0.228695    0.535879    0.223999    11.00000   -1.20000
AFIX   0
C35   1    0.367512    0.459866    0.157031    11.00000    0.03213    0.01337 =
         0.03165    0.00352    0.00950    0.00530
AFIX  43
H35   2    0.303625    0.388753    0.142346    11.00000   -1.20000
AFIX   0
C36   1    0.503557    0.474000    0.129368    11.00000    0.03400    0.01898 =
         0.02145    0.00334    0.00612    0.01433
C37   1    0.595574    0.578640    0.153340    11.00000    0.02668    0.02374 =
         0.03163    0.00580    0.01321    0.01069
AFIX  43
H37   2    0.690380    0.590273    0.136089    11.00000   -1.20000
AFIX   0
C38   1    0.551140    0.666947    0.202319    11.00000    0.02515    0.01588 =
         0.02636    0.00469    0.01005    0.00570
AFIX  43
H38   2    0.616236    0.737895    0.217941    11.00000   -1.20000
AFIX   0
C39   1    0.549824    0.377585    0.075472    11.00000    0.04117    0.02320 =
         0.04092   -0.00052    0.01209    0.01708
AFIX 137
H39A  2    0.468333    0.335008    0.018852    11.00000   -1.20000
H39B  2    0.565302    0.332590    0.113525    11.00000   -1.20000
H39C  2    0.645855    0.402601    0.059069    11.00000   -1.20000
AFIX   0
C40   1    0.268797    1.093726    0.122331    11.00000    0.01914    0.01281 =
         0.01730    0.00415    0.00468    0.00355
C41   1    0.134039    1.123873    0.099538    11.00000    0.01945    0.01758 =
         0.01875    0.00633    0.00609    0.00504
AFIX  43
H41   2    0.069927    1.132797    0.141332    11.00000   -1.20000
AFIX   0
C42   1    0.093688    1.140765    0.016309    11.00000    0.01946    0.01990 =
         0.02455    0.00932    0.00303    0.00646
AFIX  43
H42   2    0.001821    1.161119    0.001848    11.00000   -1.20000
AFIX   0
C43   1    0.184867    1.128545   -0.046492    11.00000    0.02774    0.01861 =
         0.01753    0.00759    0.00324    0.00314
C44   1    0.320891    1.101857   -0.022225    11.00000    0.02753    0.01972 =
         0.01967    0.00716    0.01086    0.00481
AFIX  43
H44   2    0.386303    1.094832   -0.063336    11.00000   -1.20000
AFIX   0
C45   1    0.362594    1.085312    0.061183    11.00000    0.01805    0.01774 =
         0.02346    0.00768    0.00798    0.00562
AFIX  43
H45   2    0.456712    1.067976    0.076644    11.00000   -1.20000
AFIX   0
C46   1    0.136159    1.144538   -0.137610    11.00000    0.04214    0.04353 =
         0.02233    0.01682    0.00675    0.01146
AFIX 137
H46A  2    0.208775    1.127194   -0.175114    11.00000   -1.20000
H46B  2    0.135441    1.219983   -0.126208    11.00000   -1.20000
H46C  2    0.032590    1.096835   -0.170757    11.00000   -1.20000
AFIX   0
PART -1
O1    6   -0.009885    0.613754    0.137645    21.00000    0.01226    0.07757 =
         0.23448    0.12091    0.01484    0.01340
AFIX 147
H1    2   -0.042181    0.571463    0.164659    21.00000   -1.20000
AFIX   0
C47   1   -0.040710    0.562603    0.051895    21.00000    0.04073    0.03686 =
         0.19814    0.06526    0.00154    0.01446
AFIX 137
H47A  2    0.010447    0.504633    0.040964    21.00000   -1.20000
H47B  2   -0.004144    0.612130    0.020288    21.00000   -1.20000
H47C  2   -0.152401    0.531276    0.027764    21.00000   -1.20000
AFIX   0
PART -2
O1A   6   -0.018372    0.603359    0.054064   -21.00000    0.03574    0.01208 =
         0.06532    0.00130    0.00241    0.00359
AFIX 143
H1A   2    0.003650    0.613551    0.111064   -21.00000   -1.50000
AFIX   0
C47A  1    0.047727    0.518645    0.005580   -21.00000    0.11905    0.10227 =
         0.05139    0.05493   -0.00861    0.00820
AFIX 137
H47D  2    0.085810    0.537507   -0.044029   -21.00000   -1.50000
H47E  2   -0.031866    0.449178   -0.021042   -21.00000   -1.50000
H47F  2    0.133120    0.513005    0.049623   -21.00000   -1.50000
PART 0
AFIX   0
HKLF 4

REM  ProfFuruta
REM R1 =  0.0378 for    7702 Fo > 4sig(Fo)  and  0.0423 for all    8377 data
REM    494 parameters refined using     40 restraints

END

WGHT      0.0240      2.4250

REM No hydrogen bonds found for HTAB generation

REM Highest difference peak  0.966,  deepest hole -0.840,  1-sigma level  0.089
Q1    1   0.0926  1.0248 -0.1922  11.00000  0.05    0.97
Q2    1  -0.0404  0.5746  0.0890  11.00000  0.05    0.91
Q3    1   0.0901  0.9595  0.6625  11.00000  0.05    0.58
Q4    1  -0.0197  0.5415  0.0188  11.00000  0.05    0.50
Q5    1   0.1964  1.1876  0.5419  11.00000  0.05    0.46
;
_shelx_res_checksum              74946
_shelx_hkl_file
;
   0   0   2 3243.88   66.82
   0   0   2 3126.59   62.39
   0   0   2 3214.23   66.73
   0   0   2 3115.35   62.85
   0   0  -2 3196.63   63.92
   0   0  -2 3099.29   64.93
   0   0  -2 2976.12   60.22
   0   0  -2 3206.68   64.68
   0   0   3 1406.16   45.04
   0   0   3 1420.07   43.92
   0   0   3 1377.79   49.19
   0   0   3 1402.64   53.80
   0   0  -3 1342.03   41.60
   0   0  -3 1363.17   50.19
   0   0  -3 1365.80   42.85
   0   0  -3 1468.98   27.89
   0   0   4 6559.49   63.31
   0   0   4 6631.97   63.03
   0   0   4 6749.19   69.82
   0   0  -4 6469.32   56.76
   0   0  -4 6707.46   70.44
   0   0  -4 6664.60   65.27
   0   0   511135.22  107.64
   0   0  -510657.60   95.24
   0   0  -510994.02   94.23
   0   0  -510891.64  105.32
   0   0   6 5006.06   87.58
   0   0   6 5382.22   88.85
   0   0   6 5209.75   92.53
   0   0   6 4996.12   87.45
   0   0  -6 5125.29   84.24
   0   0  -6 5108.72   89.53
   0   0  -6 5265.22   97.40
   0   0  -6 4953.70   86.04
   0   0   7  715.80   31.30
   0   0   7  615.79   26.01
   0   0   7  694.29   44.34
   0   0  -7  683.18   27.67
   0   0  -7  708.21   28.51
   0   0  -7  630.95   31.38
   0   0   8 1068.73   51.57
   0   0   8 1003.60   41.92
   0   0   8 1070.37   66.19
   0   0  -8 1078.52   46.51
   0   0  -8 1121.84   54.65
   0   0   9 1355.82   56.76
   0   0   9 1274.66   73.18
   0   0  -9 1368.51   61.30
   0   0  -9 1239.68   56.92
   0   0  10 1517.14  104.17
   0   0  10 1550.69   87.70
   0   0 -10 1579.67   75.86
   0   0 -10 1522.13   75.73
   0   0  11  869.34   72.23
   0   0  11  863.30   43.60
   0   0 -11  834.35   20.97
   0   0 -11  907.48   50.13
   0   0  12  379.20   34.14
   0   0  12  363.88   20.84
   0   0 -12  319.93   34.89
   0   0 -12  479.72   70.41
   0   0  13  181.35   60.21
   0   0  13  170.42   23.30
   0   0 -13  176.71   21.46
   0   0 -13  218.83   49.41
   0   0  14  100.07   27.08
   0   0  14  142.68   43.54
   0   0 -14  142.52   21.53
   0   0 -14  120.93   35.63
   0   0  15  612.68   81.73
   0   0  15  596.32   59.20
   0   0 -15  736.75   35.47
   0   0 -15  682.41   52.61
   0   0  16  104.16   34.80
   0   0  16   89.28   28.21
   0   0 -16   99.11   28.02
   0   0 -16  136.37   45.61
   0   0  17   74.72   26.62
   0   0  17   23.93   20.87
   0   0 -17   31.71   14.96
   0   0  18  141.03   71.75
   0   0  18  219.11   76.09
   0   0 -18  266.61   79.07
   0   0  19  421.67   44.96
   0   0 -19  368.76   41.04
   0   0  20  270.23  112.94
   0   1 -20  342.25   70.23
   0  -1  20  188.65  114.96
   0   1 -19  145.06   38.43
   0  -1  19  184.58   60.57
   0   1 -18  145.36   30.84
   0  -1  18  165.88   56.29
   0  -1  18   90.19   40.47
   0   1 -17    5.86    4.16
   0   1 -17   -2.19   15.06
   0  -1  17   18.14   10.88
   0  -1  17   -0.82    6.93
   0   1 -16  135.88   31.27
   0   1 -16  148.59   53.83
   0  -1  16  207.27   57.56
   0  -1  16  158.55   50.33
   0   1 -15 1238.53   68.51
   0   1 -15 1265.04   77.22
   0  -1  15 1347.06   77.81
   0  -1  15 1106.80   64.75
   0   1 -14  840.29   44.14
   0   1 -14  822.68   90.51
   0  -1  14 1064.06   62.70
   0  -1  14  915.27   60.80
   0   1 -13  206.66   21.72
   0   1 -13  214.33   39.30
   0  -1  13  195.94   47.03
   0  -1  13  243.66   28.84
   0   1 -12  213.21   45.12
   0   1 -12  225.94   53.15
   0  -1  12  204.83   39.76
   0  -1  12  186.41   24.64
   0   1 -11  115.50   18.27
   0   1 -11  145.42   42.65
   0  -1  11  143.69   50.67
   0  -1  11  136.33   29.64
   0   1 -10  894.68   48.65
   0   1 -10  961.20   49.73
   0  -1  10  907.05   82.29
   0  -1  10 1021.71   55.01
   0   1  -9 1812.66   66.40
   0   1  -9 1685.21   72.01
   0  -1   9 1674.99   56.92
   0  -1   9 1777.04   67.41
   0  -1   9 1686.44   57.65
   0   1  -8   91.65   18.91
   0   1  -8   90.85   16.93
   0   1  -8  130.59   29.31
   0  -1   8  101.99   29.67
   0  -1   8   83.65   20.64
   0  -1   8   81.24   21.76
   0   1  -7 1008.50   35.06
   0   1  -7 1021.12   39.06
   0   1  -7 1041.11   38.18
   0  -1   7 1035.67   40.36
   0  -1   7  978.52   35.22
   0  -1   7 1035.17   35.44
   0   1  -6 6182.89   65.27
   0   1  -6 6395.03   70.69
   0   1  -6 6227.59   59.38
   0  -1   6 6370.81   68.04
   0  -1   6 6136.84   58.93
   0  -1   6 6176.24   64.81
   0  -1   6 6313.01   69.52
   0   1  -5 1906.59   45.69
   0   1  -5 1902.82   49.60
   0   1  -5 1840.73   42.78
   0   1  -5 1908.58   41.58
   0  -1   5 1990.48   55.97
   0  -1   5 1960.45   43.43
   0  -1   5 1947.99   46.27
   0  -1   5 1995.95   47.95
   0   1  -4   14.28    7.39
   0   1  -4   -7.07   10.22
   0   1  -4    4.39    6.04
   0   1  -4    8.66    3.31
   0  -1   4   10.82    9.63
   0  -1   4   27.30    8.08
   0  -1   4    5.40    5.60
   0  -1   4   15.22    9.54
   0   1  -3  581.15   20.89
   0   1  -3  575.98   19.58
   0   1  -3  595.52   22.32
   0  -1   3  610.73   22.75
   0  -1   3  567.53   22.32
   0  -1   3  599.77   19.72
   0   1  -2  852.31   26.41
   0   1  -2  752.62   24.21
   0   1  -2  789.12   25.32
   0   1  -2  752.41   23.42
   0  -1   2  786.89   25.59
   0  -1   2  850.94   27.84
   0  -1   2  779.73   24.52
   0  -1   2  785.76   27.50
   0   1   1 7035.53   58.49
   0   1   1 7066.01   58.23
   0  -1  -1 7208.51   59.53
   0  -1  -1 7165.01   59.27
   0  -1  -1 7060.49   60.09
   0   1   2 2097.53   44.02
   0   1   2 2021.75   45.71
   0   1   2 2071.48   44.92
   0   1   2 2137.75   47.66
   0  -1  -2 2065.21   44.96
   0  -1  -2 2079.78   45.58
   0  -1  -2 1973.82   44.32
   0  -1  -2 2087.81   46.32
   0   1   3 4485.98   45.48
   0   1   3 4471.33   40.86
   0   1   3 4477.51   43.70
   0   1   3 4517.10   44.72
   0   1   3 4463.93   45.55
   0  -1  -3 4535.81   41.51
   0  -1  -3 4592.23   50.91
   0   1   4 6669.34   58.92
   0   1   4 6909.73   72.68
   0   1   4 6475.59   64.09
   0  -1  -4 6772.33   73.18
   0  -1  -4 6891.86   78.52
   0   1   5 7700.08   77.15
   0   1   5 7717.90   71.85
   0   1   5 7515.62   70.93
   0   1   5 7731.22   83.74
   0  -1  -5 7903.58   71.14
   0   1   6 6030.33  106.11
   0   1   6 5792.32   95.31
   0   1   6 5733.91   98.35
   0  -1  -6 5874.75  106.33
   0  -1  -6 5721.40   92.87
   0  -1  -6 5881.58  108.09
   0   1   7  167.75   20.26
   0   1   7  142.01   23.62
   0   1   7  152.66   37.98
   0  -1  -7  155.12   14.56
   0  -1  -7  169.71   25.72
   0   1   8 1258.22   56.44
   0   1   8 1141.53   46.62
   0   1   8 1181.95   58.95
   0  -1  -8 1152.25   63.91
   0  -1  -8 1176.28   47.40
   0   1   9  458.90   33.12
   0   1   9  488.38   27.12
   0   1   9  521.48   49.86
   0  -1  -9  605.51   78.53
   0  -1  -9  512.51   33.70
   0   1  10 2095.20   97.57
   0   1  10 2241.16  110.83
   0  -1 -10 2442.72  103.74
   0  -1 -10 2140.26   96.41
   0   1  11   15.58   14.24
   0   1  11   14.27    6.63
   0  -1 -11   17.80    8.39
   0  -1 -11   17.02    7.24
   0   1  12  976.83   51.78
   0   1  12  908.48   53.00
   0  -1 -12  888.86   40.12
   0  -1 -12  901.97   62.32
   0   1  13  350.72   79.93
   0   1  13  272.00   24.75
   0  -1 -13  321.59   32.56
   0  -1 -13  290.06   26.95
   0   1  14 2518.75  128.69
   0   1  14 2440.88  106.98
   0  -1 -14 2449.96   97.42
   0  -1 -14 2439.62  109.39
   0   1  15 1180.22   54.81
   0   1  15 1257.71   69.40
   0  -1 -15 1210.03   51.28
   0  -1 -15 1252.86   85.43
   0   1  16   66.76   17.12
   0   1  16  142.41   40.82
   0  -1 -16   43.32   22.84
   0   1  17   24.59   15.17
   0   1  17   38.64   19.67
   0  -1 -17   28.12   16.91
   0   1  18  164.42   78.23
   0   1  18  139.34   63.51
   0  -1 -18  141.13   37.36
   0   1  19  392.41   53.56
   0   1  19  495.95   58.57
   0  -1 -19  343.58   94.73
   0   1  20  263.80   75.10
   0   2 -20  811.77   87.14
   0  -2  20  810.05   82.46
   0   2 -19  173.04   56.94
   0  -2  19  178.80   73.95
   0   2 -18   23.80   19.17
   0  -2  18   31.24   17.23
   0   2 -17   43.46   16.33
   0   2 -17   37.74   18.96
   0  -2  17   48.02   28.71
   0  -2  17   11.54   11.14
   0   2 -16  712.60   46.44
   0   2 -16  852.80   55.63
   0  -2  16  731.54   50.64
   0  -2  16  779.53   58.15
   0   2 -15 3837.64  129.00
   0   2 -15 3910.70  171.56
   0  -2  15 3936.66  137.26
   0  -2  15 3759.00  136.26
   0   2 -14 2298.84   76.02
   0   2 -14 2583.81   93.11
   0  -2  14 2455.82   89.57
   0  -2  14 2487.93   90.33
   0   2 -13  410.46   18.35
   0   2 -13  458.02   32.41
   0  -2  13  449.42   25.59
   0  -2  13  329.41   24.73
   0   2 -12    5.47   10.45
   0   2 -12   11.19   14.39
   0  -2  12   17.99   11.01
   0  -2  12   14.29    9.98
   0   2 -11  198.16   21.94
   0   2 -11  213.86   44.29
   0  -2  11  225.68   47.41
   0  -2  11  175.90   43.51
   0   2 -10 2017.67   88.53
   0   2 -10 2087.78   92.60
   0   2 -10 1968.01   84.67
   0  -2  10 2057.37   90.37
   0  -2  10 2203.12   98.32
   0   2  -9 4475.18   95.15
   0   2  -9 4253.40   81.06
   0   2  -9 4424.18   86.82
   0  -2   9 4588.39   90.83
   0  -2   9 4454.94   84.13
   0  -2   9 4406.84   90.91
   0   2  -8   81.38   26.54
   0   2  -8   83.67   17.06
   0   2  -8   96.81   29.99
   0  -2   8  101.24   34.71
   0  -2   8   82.40   18.03
   0  -2   8   83.47   19.15
   0   2  -7    5.18    7.03
   0   2  -7   10.71    8.50
   0   2  -7    6.81    3.55
   0  -2   7    4.88    9.58
   0  -2   7   12.52    9.27
   0  -2   7    9.66    5.58
   0  -2   7    6.02    7.50
   0   2  -6  202.64   13.03
   0   2  -6  224.36   19.84
   0   2  -6  186.39   17.19
   0  -2   6  199.28   16.54
   0  -2   6  173.40   17.41
   0  -2   6  169.42   19.60
   0  -2   6  165.65   25.91
   0   2  -5 6113.95   64.50
   0   2  -5 6347.59   67.65
   0   2  -5 6408.20   64.62
   0  -2   5 6409.29   63.73
   0  -2   5 6471.36   68.11
   0  -2   5 6392.24   56.42
   0   2  -4 4066.74   43.98
   0   2  -4 3815.29   80.01
   0   2  -4 4056.01   40.25
   0  -2   4 4031.09   35.39
   0  -2   4 3868.09   81.39
   0  -2   4 3962.06   84.24
   0  -2   4 3885.87   77.27
   0   2  -3  914.46   30.91
   0   2  -3  898.92   30.47
   0   2  -3  913.84   32.45
   0   2  -3  918.85   27.81
   0  -2   3  945.54   31.87
   0  -2   3  937.14   34.73
   0  -2   3  871.96   27.16
   0  -2   3  922.62   39.64
   0   2  -2 4069.96   40.32
   0   2  -2 3907.84   79.24
   0   2  -2 4003.57   31.63
   0   2  -2 3759.53   74.28
   0  -2   2 3748.79   76.36
   0  -2   2 3861.03   78.28
   0  -2   2 3811.12   77.43
   0  -2   2 3797.65   74.88
   0   2  -1   23.69   12.36
   0   2  -1   27.88    7.79
   0   2  -1   22.30   10.57
   0   2  -1   28.15    8.88
   0  -2   1   29.41   14.82
   0  -2   1   17.94   11.19
   0  -2   1   25.16   10.61
   0  -2   1   18.23    6.19
   0   2   0 1775.76   38.46
   0   2   0 1784.74   37.77
   0   2   0 1694.43   36.39
   0   2   0 1727.20   37.79
   0  -2   0 1746.23   37.22
   0  -2   0 1778.60   38.08
   0  -2   0 1694.90   36.72
   0  -2   0 1735.38   37.15
   0   2   1   18.39    8.03
   0   2   1   14.01    7.64
   0   2   1   11.40   11.49
   0   2   1    0.02   11.27
   0  -2  -1   13.66    6.95
   0  -2  -1   12.09    8.11
   0  -2  -1    9.32    7.75
   0  -2  -1   34.01   14.78
   0   2   2  300.48   12.76
   0   2   2  283.48   14.36
   0   2   2  303.76   14.75
   0   2   2  294.67   16.15
   0  -2  -2  289.46   11.66
   0  -2  -2  268.33   13.36
   0  -2  -2  329.79   25.20
   0  -2  -2  319.05   13.80
   0   2   3 1905.22   43.05
   0   2   3 1877.32   51.04
   0   2   3 2027.07   48.21
   0   2   3 2084.62   46.87
   0  -2  -3 1952.85   45.52
   0  -2  -3 1924.86   43.38
   0  -2  -3 2068.36   55.44
   0  -2  -3 1927.73   45.47
   0   2   4 4894.04   75.68
   0   2   4 4534.21   49.77
   0   2   4 4521.61   47.08
   0  -2  -4 4646.73   49.18
   0  -2  -4 4727.41   47.08
   0  -2  -4 4534.03   56.77
   0   2   5 4553.95   86.53
   0   2   5 4510.03   81.45
   0   2   5 4501.75   82.62
   0  -2  -5 4601.65   80.08
   0  -2  -5 4573.78   82.42
   0  -2  -5 4523.11   74.41
   0  -2  -5 4529.49   79.38
   0   2   6 3376.21   63.60
   0   2   6 3302.92   60.92
   0   2   6 3343.51   56.32
   0  -2  -6 3395.16   62.28
   0  -2  -6 3457.17   59.95
   0   2   7  682.07   36.11
   0   2   7  540.11   35.61
   0  -2  -7  579.54   31.69
   0  -2  -7  658.70   34.34
   0  -2  -7  647.14   34.32
   0   2   8  114.18   41.21
   0   2   8  146.12   35.08
   0  -2  -8  198.40   44.50
   0  -2  -8  180.31   28.76
   0  -2  -8  139.81   15.47
   0   2   9  289.91   55.79
   0   2   9  229.35   34.87
   0  -2  -9  259.07   57.06
   0  -2  -9  199.45   27.25
   0  -2  -9  145.19   18.35
   0   2  10  760.87   59.15
   0   2  10  747.49   61.37
   0  -2 -10  743.06   36.38
   0  -2 -10  852.21   42.59
   0   2  11  697.28   43.69
   0   2  11  677.16   40.85
   0  -2 -11  753.34   40.33
   0  -2 -11  795.24   57.89
   0   2  12    9.16   10.56
   0   2  12   16.09    8.34
   0  -2 -12   11.23    6.80
   0  -2 -12   17.14    7.50
   0   2  13  296.94   35.10
   0   2  13  227.77   59.72
   0  -2 -13  221.52   47.22
   0  -2 -13  272.98   66.89
   0   2  14  581.72   57.03
   0   2  14  594.61   52.86
   0  -2 -14  518.72   37.29
   0  -2 -14  638.86   58.78
   0   2  15  463.43   52.34
   0   2  15  439.26   50.92
   0  -2 -15  429.38   29.40
   0  -2 -15  505.61   42.00
   0   2  16   26.93    9.83
   0   2  16   17.90   22.97
   0  -2 -16   22.69    9.88
   0   2  17  143.49   67.01
   0   2  17  191.73   69.06
   0  -2 -17  142.89   64.02
   0   2  18  168.47   70.25
   0   2  18  227.54   85.37
   0  -2 -18  214.25   84.66
   0   2  19   49.04   36.37
   0   2  19   37.53   31.72
   0   3 -20  479.85   64.69
   0  -3  20  563.44   75.87
   0   3 -19  119.84   33.45
   0  -3  19  115.27   48.66
   0   3 -18   47.57   17.79
   0   3 -18   45.70   15.11
   0  -3  18   68.53   44.49
   0   3 -17  443.78   29.87
   0   3 -17  527.81   81.47
   0  -3  17  515.03  104.28
   0  -3  17  499.42   39.19
   0   3 -16 1750.11   88.78
   0   3 -16 1677.48   99.76
   0  -3  16 1827.99  158.72
   0  -3  16 1849.25   80.51
   0   3 -15 2438.24   99.04
   0   3 -15 2301.60   98.38
   0  -3  15 2506.81   97.42
   0  -3  15 2448.64   90.33
   0   3 -14 2747.05   89.06
   0   3 -14 2679.83  121.07
   0  -3  14 2999.66  103.60
   0  -3  14 2822.55   99.03
   0   3 -13  790.29   45.24
   0   3 -13  841.07   48.57
   0  -3  13  807.44   53.20
   0  -3  13  874.87   50.31
   0   3 -12  155.43   22.38
   0   3 -12  196.43   38.26
   0  -3  12  128.59   32.26
   0  -3  12  159.91   18.43
   0   3 -11  903.16   55.74
   0   3 -11  955.05   55.99
   0   3 -11  916.18   53.52
   0  -3  11  980.45   53.11
   0  -3  11 1025.86   64.59
   0   3 -10 1701.44   75.45
   0   3 -10 1597.61   82.28
   0   3 -10 1666.10   71.37
   0  -3  10 1599.38   71.81
   0  -3  10 1607.65   73.62
   0   3  -9 2018.01   74.74
   0   3  -9 2197.06   70.88
   0   3  -9 1958.87   65.30
   0  -3   9 2036.35   67.88
   0  -3   9 1951.84   69.44
   0   3  -8  390.66   37.60
   0   3  -8  323.83   19.65
   0   3  -8  349.73   22.68
   0  -3   8  375.76   40.42
   0  -3   8  365.18   21.81
   0  -3   8  345.82   18.92
   0   3  -7 1073.06   40.10
   0   3  -7  976.23   32.73
   0   3  -7  973.61   38.23
   0  -3   7 1045.53   43.91
   0  -3   7  968.22   36.61
   0  -3   7  990.07   36.24
   0   3  -6 4009.97   70.19
   0   3  -6 4049.79   75.07
   0   3  -6 4134.46   87.95
   0   3  -6 3867.53   62.13
   0  -3   6 3988.77   73.06
   0  -3   6 3853.27   66.62
   0  -3   6 3944.34   63.86
   0  -3   6 3883.27   71.52
   0   3  -5 2351.50   58.38
   0   3  -5 2368.22   53.39
   0   3  -5 2373.42   54.27
   0   3  -5 2185.41   44.99
   0  -3   5 2342.87   55.48
   0  -3   5 2371.87   53.91
   0  -3   5 2336.29   47.75
   0  -3   5 2314.60   51.61
   0   3  -4  484.31   19.91
   0   3  -4  459.12   18.66
   0   3  -4  509.47   24.10
   0   3  -4  431.19   14.14
   0   3  -4  438.13   15.91
   0  -3   4  433.30   17.12
   0  -3   4  448.11   41.20
   0  -3   4  483.35   20.59
   0   3  -3  188.65   12.28
   0   3  -3  216.04   18.17
   0   3  -3  211.14   21.54
   0   3  -3  208.49    9.05
   0  -3   3  192.93   11.64
   0  -3   3  212.83   30.73
   0  -3   3  235.71   31.65
   0  -3   3  198.11    5.99
   0   3  -2  611.20   23.26
   0   3  -2  646.95   32.62
   0   3  -2  674.65   22.92
   0   3  -2  630.73   22.93
   0  -3   2  609.32   22.25
   0  -3   2  621.29   24.59
   0  -3   2  634.29   28.35
   0  -3   2  642.07   22.74
   0   3  -113236.00  112.85
   0   3  -112798.19  112.45
   0   3  -113064.69  107.19
   0  -3   113332.87  113.21
   0  -3   112852.73  105.64
   0  -3   112992.09  107.76
   0   3   0 1460.29   27.58
   0   3   0 1416.05   46.63
   0   3   0 1460.48   22.55
   0   3   0 1380.37   43.73
   0  -3   0 1464.60   25.75
   0  -3   0 1389.01   48.67
   0  -3   0 1421.81   45.02
   0  -3   0 1440.45   45.66
   0   3   1 5147.40   53.66
   0   3   1 5258.29   53.72
   0   3   1 5310.79   48.44
   0   3   1 5177.57   54.28
   0  -3  -1 5320.08   52.33
   0  -3  -1 5136.36   55.35
   0  -3  -1 5147.15   53.98
   0   3   2  690.41   25.34
   0   3   2  776.87   51.95
   0   3   2  710.74   24.68
   0  -3  -2  710.97   29.67
   0  -3  -2  571.95   23.26
   0  -3  -2  642.15   22.47
   0   3   3 1676.72   42.45
   0   3   3 1604.89   41.57
   0   3   3 1743.75   44.69
   0   3   3 1597.98   51.56
   0  -3  -3 1624.06   44.60
   0  -3  -3 1603.14   38.83
   0  -3  -3 1659.90   46.24
   0  -3  -3 1717.72   41.95
   0   3   4 6944.18  117.35
   0   3   4 7063.25  118.93
   0   3   4 7003.59  116.35
   0   3   4 6878.17  114.52
   0  -3  -4 6989.18  112.95
   0  -3  -4 6999.12  116.24
   0  -3  -4 6699.15  112.45
   0   3   510197.85  165.99
   0   3   510186.43  165.51
   0  -3  -510166.64  164.23
   0  -3  -510000.42  163.28
   0   3   6 1672.02   58.67
   0   3   6 1737.04   64.18
   0  -3  -6 1869.61   67.84
   0  -3  -6 1704.78   56.36
   0  -3  -6 1769.81   62.62
   0   3   7    2.07   12.82
   0   3   7    8.25    5.08
   0  -3  -7   14.91   10.76
   0  -3  -7    4.19    3.42
   0  -3  -7    8.90    9.65
   0   3   8   54.58   21.19
   0   3   8   39.56   16.44
   0  -3  -8   78.74   32.66
   0  -3  -8   32.54   12.37
   0  -3  -8   33.36   12.35
   0   3   9 1255.49   66.52
   0   3   9 1299.16   83.41
   0  -3  -9 1183.19   54.02
   0  -3  -9 1268.37   73.87
   0   3  10 1301.04   96.39
   0   3  10 1302.47   61.38
   0  -3 -10 1291.63   57.12
   0  -3 -10 1307.66   61.38
   0   3  11  138.90   37.52
   0   3  11  116.35   27.70
   0  -3 -11  100.86   20.80
   0  -3 -11  107.37   30.71
   0   3  12   59.24   24.18
   0   3  12   30.02   23.31
   0  -3 -12   74.57   18.66
   0  -3 -12   67.97   22.08
   0   3  13  504.95   61.06
   0   3  13  592.65   42.61
   0  -3 -13  652.68   36.24
   0  -3 -13  653.63   50.81
   0   3  14  516.29   34.03
   0   3  14  542.01   60.05
   0  -3 -14  587.56   25.05
   0  -3 -14  604.97   73.96
   0   3  15  284.86   23.26
   0   3  15  413.77   39.38
   0  -3 -15  360.79   30.60
   0   3  16  126.40   41.51
   0  -3 -16   97.26   48.18
   0   3  17   84.21   48.03
   0   3  17   80.91   46.61
   0  -3 -17  154.53   45.64
   0   3  18  259.37   95.00
   0   3  18  240.28  110.88
   0  -3 -18  349.79   37.75
   0   3  19  258.30  110.22
   0   3  19  305.33   61.86
   0   4 -21  123.55   53.54
   0   4 -20  166.72   59.06
   0  -4  20  124.52   66.73
   0   4 -19  204.33   55.63
   0  -4  19  172.76   67.32
   0   4 -18    2.85   11.41
   0   4 -18    9.76    9.74
   0  -4  18   15.77   29.62
   0   4 -17  216.84   57.66
   0   4 -17  247.24   66.59
   0  -4  17  254.65   63.33
   0   4 -16 1551.05   86.87
   0   4 -16 1424.02  118.27
   0  -4  16 1518.66  117.28
   0  -4  16 1437.34   74.26
   0   4 -15 1716.89   73.43
   0   4 -15 1814.86   81.39
   0  -4  15 1959.26   91.03
   0  -4  15 1795.07   84.03
   0   4 -14  759.75   65.45
   0   4 -14  804.42   59.11
   0  -4  14  746.54   67.89
   0  -4  14  789.65   45.44
   0   4 -13  490.73   39.05
   0   4 -13  455.45   36.29
   0  -4  13  520.88   55.31
   0  -4  13  463.67   35.42
   0   4 -12  183.57   20.48
   0   4 -12  221.36   34.18
   0   4 -12  143.69   14.79
   0  -4  12  207.60   31.04
   0  -4  12  206.82   60.18
   0   4 -11 1866.44   88.04
   0   4 -11 1773.35   77.24
   0   4 -11 1712.87   75.78
   0  -4  11 1850.22   80.48
   0  -4  11 1965.78   96.31
   0   4 -10 6161.74  148.74
   0   4 -10 6145.55  175.04
   0   4 -10 5991.52  139.22
   0  -4  10 6020.07  140.21
   0  -4  10 5959.20  153.64
   0   4  -9 2515.87   81.95
   0   4  -9 2676.45   81.78
   0   4  -9 2641.77   74.94
   0  -4   9 2622.57   75.61
   0  -4   9 2663.55   86.53
   0   4  -8  877.86   38.56
   0   4  -8  940.14   52.11
   0   4  -8  863.93   34.70
   0  -4   8  837.86   33.87
   0  -4   8  860.02   56.83
   0   4  -7   95.93   13.76
   0   4  -7   90.80   12.52
   0   4  -7   91.81   30.85
   0  -4   7  137.21   29.22
   0  -4   7  101.92   15.32
   0  -4   7   73.75   12.36
   0   4  -6  480.47   36.73
   0   4  -6  468.25   26.38
   0   4  -6  468.96   22.47
   0   4  -6  436.30   15.89
   0  -4   6  406.29   44.36
   0  -4   6  437.95   18.82
   0  -4   6  463.35   16.66
   0  -4   6  445.50   31.33
   0   4  -5 1734.79   41.31
   0   4  -5 1672.25   39.58
   0   4  -5 1597.87   39.79
   0   4  -5 1637.82   34.81
   0   4  -5 1605.52   33.67
   0  -4   5 1646.41   41.50
   0  -4   5 1679.67   41.35
   0  -4   5 1633.03   41.60
   0   4  -4  149.32   36.80
   0   4  -4  105.64   10.30
   0   4  -4  116.82   13.28
   0   4  -4  121.15   10.35
   0  -4   4  125.63   35.25
   0  -4   4   91.97   25.13
   0  -4   4  128.62   27.81
   0   4  -3  169.14   17.10
   0   4  -3  169.92   11.91
   0   4  -3  188.96    9.65
   0  -4   3  236.96   60.29
   0  -4   3  181.99   28.63
   0  -4   3  186.95   21.69
   0  -4   3  174.21   11.18
   0  -4   3  177.83   11.64
   0   4  -2 1485.42   36.05
   0   4  -2 1409.05   43.72
   0   4  -2 1416.39   44.27
   0   4  -2 1379.95   45.44
   0  -4   2 1332.11   42.30
   0  -4   2 1406.27   45.65
   0  -4   2 1386.04   53.01
   0   4  -1 8600.53   80.10
   0   4  -1 8575.94   84.04
   0   4  -1 8695.47   80.78
   0  -4   1 8469.87   78.66
   0  -4   1 8794.66   78.42
   0  -4   1 8548.43   77.93
   0   4   0  258.19   36.28
   0   4   0  259.76    9.72
   0   4   0  272.09   32.70
   0   4   0  268.61   23.59
   0  -4   0  251.10   23.77
   0  -4   0  292.29   15.04
   0  -4   0  281.00   26.81
   0  -4   0  254.31   12.07
   0   4   1 9645.79   91.68
   0   4   1 9444.98   89.88
   0   4   1 9182.59   84.65
   0  -4  -1 9616.91   92.04
   0   4   2 1552.64   44.79
   0   4   2 1390.17   44.64
   0   4   2 1450.32   48.18
   0   4   2 1499.11   31.38
   0  -4  -2 1521.35   36.17
   0  -4  -2 1504.13   24.50
   0  -4  -2 1460.72   24.16
   0  -4  -2 1492.38   29.80
   0   4   3   36.01   16.32
   0   4   3   25.02   11.66
   0   4   3   19.57   14.10
   0   4   3   48.36   12.88
   0  -4  -3   22.69   12.48
   0  -4  -3   48.35    9.46
   0  -4  -3   24.99   11.51
   0  -4  -3   47.79   13.32
   0   4   4 1281.42   42.94
   0   4   4 1214.51   43.50
   0   4   4 1292.66   43.12
   0  -4  -4 1283.02   42.99
   0  -4  -4 1177.53   33.33
   0  -4  -4 1244.50   39.44
   0   4   5 2488.19   73.50
   0   4   5 2721.25   82.66
   0   4   5 2488.81   77.22
   0  -4  -5 2683.50   83.96
   0  -4  -5 2453.93   73.66
   0  -4  -5 2584.67   77.69
   0   4   6  260.25   24.93
   0   4   6  233.98   24.48
   0  -4  -6  266.71   29.40
   0  -4  -6  231.74   14.71
   0  -4  -6  237.68   28.50
   0   4   7   46.44   29.78
   0   4   7   12.78    6.25
   0  -4  -7   53.90   24.56
   0  -4  -7   23.19    9.27
   0  -4  -7   -0.72    4.32
   0   4   8  742.84   45.39
   0   4   8  764.92   56.91
   0  -4  -8  717.70   44.68
   0  -4  -8  699.88   23.87
   0   4   9 1460.13   70.34
   0   4   9 1487.53   69.13
   0  -4  -9 1426.43   62.71
   0  -4  -9 1479.64   69.70
   0   4  10  383.13   48.75
   0   4  10  417.97   41.38
   0  -4 -10  339.88   17.80
   0  -4 -10  442.56   38.82
   0   4  11    4.63   13.85
   0   4  11   10.48   29.94
   0  -4 -11   12.19   10.50
   0  -4 -11   34.79   15.41
   0   4  12    9.86   11.31
   0   4  12   29.59   24.05
   0  -4 -12    2.97    7.98
   0  -4 -12   13.77   12.65
   0   4  13  826.48   84.36
   0   4  13  869.26   50.98
   0  -4 -13  869.84   36.79
   0  -4 -13  913.76   63.92
   0   4  14  574.49   60.32
   0   4  14  542.02   52.84
   0  -4 -14  432.41   90.58
   0   4  15  444.04   51.64
   0   4  15  402.46   81.98
   0  -4 -15  396.28   72.25
   0   4  16   20.03   16.28
   0   4  16   18.28   20.29
   0  -4 -16   12.28   13.86
   0   4  17   25.13   14.56
   0   4  17    9.51   13.58
   0  -4 -17   80.35   33.57
   0   4  18  217.72   80.71
   0   5 -21   37.78   31.20
   0  -5  21   46.68   55.17
   0   5 -20  172.50   57.50
   0  -5  20  149.80   48.70
   0   5 -19  296.14   22.00
   0   5 -19  168.70   78.85
   0  -5  19  273.58   45.36
   0   5 -18    3.58   10.63
   0   5 -18   15.83   13.29
   0  -5  18   -1.00   19.02
   0   5 -17   28.02   15.33
   0   5 -17   31.71   25.51
   0  -5  17   30.79   21.60
   0   5 -16 1378.49   78.21
   0   5 -16 1193.59   88.34
   0  -5  16 1161.30   68.77
   0   5 -15  781.33   41.76
   0   5 -15  855.89   57.83
   0  -5  15  865.52   81.33
   0  -5  15  778.35   28.11
   0   5 -14  496.64   40.12
   0   5 -14  518.04   97.41
   0  -5  14  535.16   80.26
   0  -5  14  500.92   29.00
   0   5 -13  168.31   44.81
   0   5 -13  152.72   38.09
   0   5 -13   86.74   20.60
   0  -5  13  171.72   35.96
   0  -5  13  152.83   37.01
   0   5 -12   37.07   14.04
   0   5 -12   37.85   20.00
   0   5 -12   43.31    8.26
   0  -5  12   10.61    5.47
   0  -5  12   32.60   19.44
   0   5 -11 1817.54   78.69
   0   5 -11 2049.30   93.84
   0   5 -11 1978.68   81.02
   0  -5  11 1946.78   80.15
   0  -5  11 1996.31   87.94
   0   5 -10 5842.28  141.91
   0   5 -10 6049.65  163.24
   0   5 -10 5601.15  131.46
   0  -5  10 5698.08  132.93
   0  -5  10 5959.52  158.59
   0   5  -9 3334.28   88.96
   0   5  -9 3354.74  109.72
   0   5  -9 3217.34   75.86
   0  -5   9 3224.39   99.23
   0   5  -8  525.84   28.52
   0   5  -8  604.83   34.31
   0  -5   8  539.52   37.07
   0   5  -7  857.19   39.02
   0   5  -7  826.67   37.43
   0   5  -7  839.28   33.40
   0   5  -7  826.92   33.04
   0  -5   7  828.34   37.32
   0   5  -6   96.68   17.01
   0   5  -6   87.29   18.58
   0   5  -6   75.39    6.70
   0   5  -6   70.64   17.22
   0   5  -6   78.19   12.69
   0  -5   6   96.31   28.30
   0   5  -5 2833.22   87.66
   0   5  -5 2822.80   82.13
   0   5  -5 2677.30   73.93
   0   5  -5 2896.99   81.79
   0  -5   5 2806.63   95.77
   0  -5   5 2821.68   85.28
   0  -5   5 2837.14   83.00
   0  -5   5 2747.71   87.47
   0   5  -4 4129.00   82.09
   0   5  -4 4035.74   79.33
   0   5  -4 4272.01   69.41
   0  -5   4 4148.33   89.51
   0  -5   4 4191.65   77.47
   0  -5   4 4021.41   79.42
   0  -5   4 4107.72   75.93
   0  -5   4 4067.63   70.19
   0   5  -3   49.88   17.69
   0   5  -3   60.32    9.87
   0   5  -3   57.05    9.37
   0   5  -3   46.36   15.52
   0  -5   3   54.46   20.38
   0  -5   3   72.74   17.51
   0  -5   3   64.36   15.57
   0  -5   3   50.96   12.60
   0   5  -2 3054.46   68.21
   0   5  -2 2909.91   61.86
   0   5  -2 2998.76   65.23
   0   5  -2 2757.57   67.62
   0  -5   2 2972.01   70.54
   0  -5   2 3003.47   67.15
   0  -5   2 2978.02   78.51
   0  -5   2 2926.48   67.99
   0   5  -1 8253.09   78.78
   0   5  -1 8046.72   72.89
   0   5  -1 8416.54   80.82
   0  -5   1 8425.33   81.40
   0  -5   1 8194.22   85.06
   0  -5   1 8231.00   80.28
   0   5   0  310.04   27.22
   0   5   0  268.54   10.27
   0   5   0  269.32   21.37
   0   5   0  278.50   18.83
   0  -5   0  277.84   16.09
   0  -5   0  245.80   17.88
   0  -5   0  246.11   23.11
   0  -5   0  268.49   29.07
   0   5   1  677.17   32.80
   0   5   1  641.89   25.39
   0   5   1  635.37   38.52
   0   5   1  675.28   26.98
   0  -5  -1  650.12   24.95
   0  -5  -1  655.02   28.83
   0  -5  -1  689.33   49.78
   0  -5  -1  661.99   27.42
   0   5   2  911.28   45.09
   0   5   2  924.89   35.82
   0   5   2  967.54   34.44
   0  -5  -2  986.07   39.59
   0  -5  -2  934.30   39.02
   0  -5  -2  898.79   35.43
   0   5   3  855.50   41.31
   0   5   3  831.73   35.12
   0  -5  -3  898.26   44.42
   0  -5  -3  812.65   36.45
   0   5   4 2127.79   82.09
   0   5   4 2072.62   84.89
   0   5   4 2148.28   74.50
   0  -5  -4 2096.22   73.14
   0  -5  -4 2209.96   78.81
   0  -5  -4 2038.84   69.69
   0   5   5 2242.40   97.43
   0   5   5 2085.96   91.86
   0  -5  -5 2363.96  101.30
   0  -5  -5 2125.28   91.73
   0  -5  -5 2062.40   93.64
   0   5   6  397.96   26.97
   0   5   6  556.78   54.25
   0  -5  -6  374.20   21.49
   0  -5  -6  414.96   32.21
   0   5   7   15.87    9.98
   0   5   7    9.52   11.08
   0  -5  -7    9.87    6.40
   0  -5  -7   12.87    8.13
   0   5   8   88.94   24.16
   0   5   8  127.23   28.58
   0  -5  -8   79.16   13.27
   0  -5  -8  107.03   20.87
   0   5   9  865.67   87.60
   0   5   9  845.64   59.72
   0  -5  -9  849.45   55.69
   0  -5  -9  785.67   64.12
   0   5  10    4.64   10.46
   0   5  10   22.51   14.94
   0  -5 -10   16.18    9.05
   0  -5 -10   -1.68   13.37
   0   5  11   47.71   23.26
   0  -5 -11   96.40   31.69
   0  -5 -11   65.83   16.23
   0   5  12  295.05   66.92
   0   5  12  321.07   95.56
   0  -5 -12  214.33   51.18
   0  -5 -12  281.14   31.59
   0   5  13  420.31   97.29
   0   5  13  430.95   74.18
   0  -5 -13  485.44   63.85
   0   5  14    6.37   12.94
   0   5  14   53.29   28.20
   0  -5 -14   36.04   22.72
   0   5  15  133.39   32.27
   0   5  15  118.29   39.43
   0  -5 -15  101.09   50.58
   0   5  16   18.08   18.56
   0   5  16    5.86   16.41
   0   5  17    4.23   17.01
   0   5  17   14.45   10.99
   0  -5 -17   14.65   15.24
   0   6 -21   -0.12    9.04
   0  -6  21   10.49   23.43
   0   6 -20  513.88   77.05
   0  -6  20  398.25  122.83
   0   6 -19  179.14   68.97
   0   6 -19  166.58   72.78
   0  -6  19  276.17   43.25
   0   6 -18   47.79   24.31
   0   6 -18   43.32   32.53
   0  -6  18   55.82   22.72
   0   6 -17  298.23   34.84
   0   6 -17  250.42   25.69
   0  -6  17  227.29   74.15
   0   6 -16  651.89   35.19
   0   6 -16  687.89   84.78
   0  -6  16  619.12   61.56
   0   6 -15 1072.49   52.06
   0   6 -15 1066.89  100.75
   0  -6  15 1117.43   68.79
   0   6 -14  877.24   58.70
   0   6 -14  828.95   50.65
   0  -6  14  866.15   56.32
   0  -6  14  849.43   41.76
   0   6 -13   11.60   16.18
   0   6 -13    8.73    9.69
   0   6 -13    0.52    4.45
   0  -6  13   10.55    5.32
   0  -6  13   25.63   19.43
   0   6 -12 1556.40   97.62
   0   6 -12 1693.10   82.62
   0  -6  12 1744.04   81.29
   0   6 -11 4544.93  134.74
   0   6 -11 4239.14  130.10
   0   6 -11 3950.36  105.35
   0  -6  11 4137.59  108.99
   0  -6  11 4081.92  119.82
   0   6 -10 4681.00  124.28
   0   6 -10 4454.75  102.57
   0  -6  10 4865.11  141.90
   0   6  -9 1929.15   87.96
   0   6  -9 1755.15   78.34
   0   6  -9 1753.99   72.53
   0   6  -9 1759.30   72.10
   0  -6   9 1779.73   90.61
   0   6  -8  147.22   36.78
   0   6  -8  112.89   23.51
   0   6  -8  119.26   10.93
   0   6  -8  106.33    8.30
   0  -6   8  146.34   45.52
   0   6  -7 1251.95   52.74
   0   6  -7 1328.57   57.86
   0   6  -7 1175.81   46.32
   0  -6   7 1195.28   52.46
   0   6  -6  187.30   16.71
   0   6  -6  251.01   17.19
   0  -6   6  226.22   37.49
   0  -6   6  223.46   56.15
   0   6  -511305.24  184.06
   0   6  -511732.08  188.48
   0   6  -511619.81  181.75
   0  -6   511669.24  195.03
   0  -6   511524.89  185.02
   0  -6   511852.56  184.34
   0   6  -4 3741.61   79.85
   0   6  -4 3530.71   69.68
   0   6  -4 3653.85   62.77
   0  -6   4 3718.72   68.55
   0  -6   4 3618.33   70.00
   0  -6   4 3506.71   66.83
   0   6  -3  845.72   34.64
   0   6  -3  791.00   31.56
   0   6  -3  769.99   32.49
   0  -6   3  909.55   35.70
   0  -6   3  826.39   39.27
   0  -6   3  802.42   29.97
   0   6  -2  109.67   36.45
   0   6  -2  110.61   26.04
   0   6  -2   98.28   12.18
   0  -6   2   59.75   22.92
   0  -6   2   97.85   20.81
   0  -6   2  103.59   26.65
   0  -6   2   93.69   15.45
   0   6  -1 8830.41  146.10
   0   6  -1 8769.22  144.11
   0   6  -1 8629.74  140.40
   0  -6   1 8749.33  140.87
   0  -6   1 8692.60  147.01
   0  -6   1 8485.45  142.41
   0  -6   1 8828.54  146.55
   0   6   0 3658.57   80.60
   0   6   0 3478.59   64.54
   0   6   0 3398.02   62.19
   0  -6   0 3267.24   94.81
   0  -6   0 3461.64   73.04
   0  -6   0 3465.67   72.34
   0  -6   0 3750.76   73.79
   0   6   1  609.68   51.98
   0   6   1  657.10   56.84
   0   6   1  606.85   33.60
   0  -6  -1  582.75   35.74
   0  -6  -1  624.05   33.39
   0  -6  -1  674.70   34.88
   0   6   2  201.07   17.23
   0   6   2  203.53   14.73
   0   6   2  279.29   33.20
   0  -6  -2  213.83   37.00
   0  -6  -2  222.52   28.84
   0   6   3  942.95   43.86
   0   6   3  812.29   35.35
   0   6   3  853.65   52.95
   0  -6  -3  836.48   38.29
   0  -6  -3  976.53   45.10
   0   6   4 5598.55  146.32
   0   6   4 5243.09  124.58
   0  -6  -4 5769.50  141.89
   0   6   5 5157.28  135.46
   0  -6  -5 5395.61  134.69
   0   6   6 1260.85   59.80
   0   6   6 1170.72   59.08
   0  -6  -6 1292.44   63.33
   0  -6  -6 1444.79   70.15
   0   6   7  106.53   29.22
   0   6   7  140.84   42.02
   0  -6  -7  159.95   33.44
   0  -6  -7  150.91   46.88
   0   6   8  541.39   60.93
   0   6   8  571.64   48.67
   0  -6  -8  502.41   42.37
   0  -6  -8  598.49   47.04
   0   6   9  112.02   24.69
   0   6   9   77.23   26.07
   0  -6  -9   89.60   17.87
   0  -6  -9   95.20   31.87
   0   6  10  850.45   51.40
   0   6  10  922.85   61.39
   0  -6 -10  784.66   41.93
   0  -6 -10  817.55   39.14
   0   6  11  468.39   91.72
   0   6  11  493.15   59.91
   0  -6 -11  448.77   32.32
   0  -6 -11  444.26   45.55
   0   6  12   24.22   13.47
   0   6  12   -4.52   16.49
   0  -6 -12   16.10    9.71
   0  -6 -12   33.66   25.78
   0   6  13   93.42   52.97
   0   6  13  137.32   45.22
   0  -6 -13  158.49   56.57
   0   6  14   37.20   28.88
   0   6  14   83.59   26.05
   0  -6 -14   32.61   25.52
   0   6  15    1.73   10.65
   0  -6 -15    6.70   16.59
   0   6  16    2.83   17.24
   0   6  16   22.99   11.38
   0  -6 -16   20.46   22.15
   0   6  17    9.54   16.82
   0   7 -21   15.77   14.30
   0  -7  21   19.86   22.69
   0   7 -20  295.98   68.78
   0   7 -20  347.31  102.44
   0  -7  20  412.34   62.15
   0   7 -19  111.57   32.44
   0   7 -19  121.64   49.84
   0  -7  19   94.69   47.21
   0   7 -18    6.97   15.91
   0   7 -18   30.72   20.16
   0  -7  18   35.57   20.31
   0   7 -17    4.72   13.16
   0   7 -17   16.98   17.83
   0  -7  17   13.45   19.46
   0   7 -16  593.50   36.94
   0   7 -16  578.38   62.62
   0  -7  16  641.24  117.59
   0   7 -15  163.62   43.81
   0   7 -15  171.15   39.39
   0  -7  15  138.42   38.35
   0   7 -14  290.42   71.23
   0   7 -14  325.76   75.75
   0  -7  14  298.54   62.88
   0   7 -13   20.85   27.53
   0   7 -13   16.70   18.03
   0   7 -13    3.46    2.85
   0  -7  13   12.93   10.65
   0   7 -12 1303.68   66.72
   0   7 -12 1356.57   75.18
   0   7 -12 1201.97   48.59
   0  -7  12 1257.15   86.38
   0   7 -11 3336.42  109.99
   0   7 -11 3325.74  102.42
   0   7 -11 3265.30   86.04
   0  -7  11 3217.55  103.11
   0   7 -10 3482.99  102.70
   0   7 -10 3289.39   94.05
   0  -7  10 3396.59   92.26
   0   7  -9 1060.65   61.43
   0   7  -9 1110.95   82.36
   0   7  -9  967.35   48.97
   0  -7   9 1103.12   91.47
   0   7  -8 1199.53   58.32
   0   7  -8 1037.59   42.38
   0   7  -8 1163.56   46.61
   0  -7   8 1106.09   50.10
   0  -7   8 1071.64   63.64
   0   7  -7 2602.53  116.51
   0   7  -7 2227.97   92.08
   0   7  -7 2447.54  102.35
   0  -7   7 2363.72  116.63
   0  -7   7 2426.09  109.96
   0   7  -6 3495.95  106.86
   0   7  -6 3282.65   92.59
   0  -7   6 3234.58   93.66
   0  -7   6 3378.65  108.81
   0   7  -5  842.22   40.46
   0   7  -5  843.88   35.26
   0  -7   5  882.84   44.85
   0  -7   5  821.80   37.84
   0  -7   5  821.97   34.42
   0   7  -4  448.57   39.00
   0   7  -4  424.61   23.76
   0   7  -4  411.85   23.07
   0  -7   4  421.30   26.14
   0  -7   4  443.96   24.86
   0  -7   4  408.56   21.07
   0   7  -3  313.36   21.85
   0   7  -3  347.11   19.82
   0   7  -3  374.12   22.03
   0  -7   3  420.09   35.01
   0  -7   3  375.35   21.91
   0  -7   3  380.55   21.63
   0   7  -2 1810.32   63.65
   0   7  -2 1900.13   66.11
   0   7  -2 1859.32   63.13
   0  -7   2 1919.72   66.55
   0  -7   2 1809.19   62.79
   0  -7   2 1786.45   64.70
   0   7  -1 2877.88   85.29
   0   7  -1 2886.85   83.37
   0   7  -1 2981.30   93.10
   0  -7   1 3066.40   99.16
   0  -7   1 2948.81   87.62
   0   7   0 3899.37  111.82
   0   7   0 3662.43  105.10
   0   7   0 4057.36   80.42
   0  -7   0 3873.08  114.63
   0  -7   0 3828.12  108.50
   0   7   1  930.97   65.65
   0   7   1  874.95   48.70
   0   7   1  889.18   58.25
   0  -7  -1  895.73   45.46
   0  -7  -1  902.77   39.66
   0   7   2  -19.74   13.72
   0   7   2   11.36    8.31
   0   7   2  -11.39   13.68
   0  -7  -2   -1.18   12.47
   0  -7  -2   -0.31    6.54
   0   7   3 1476.77   83.18
   0   7   3 1296.79   57.42
   0   7   3 1426.24   83.86
   0  -7  -3 1431.36   85.67
   0  -7  -3 1487.37   64.27
   0   7   4 4703.61  136.96
   0   7   4 4368.02  130.36
   0  -7  -4 4715.47  122.03
   0  -7  -4 4616.07  117.19
   0   7   5 4723.59  136.72
   0   7   5 4564.18  151.15
   0  -7  -5 4452.59  125.38
   0   7   6  556.50   46.00
   0   7   6  513.96   45.03
   0  -7  -6  691.52   29.53
   0  -7  -6  593.14   68.14
   0   7   7   47.07   21.32
   0   7   7   56.44   18.73
   0  -7  -7   58.06   13.43
   0  -7  -7   57.06   15.70
   0   7   8  536.02   30.67
   0   7   8  633.04   45.76
   0  -7  -8  656.10   33.39
   0  -7  -8  590.49   29.47
   0   7   9 3886.19  132.05
   0   7   9 3949.90  139.91
   0  -7  -9 3833.91  126.21
   0  -7  -9 4019.93  142.65
   0   7  10 2814.14  106.00
   0   7  10 2715.95  182.68
   0  -7 -10 2828.60  108.22
   0  -7 -10 2859.97  122.99
   0   7  11  719.96   37.10
   0   7  11  700.28   62.71
   0  -7 -11  717.79   23.59
   0  -7 -11  829.72  102.04
   0   7  12   38.86   29.86
   0   7  12   36.26   21.08
   0  -7 -12   41.70   31.08
   0   7  13   32.53   17.80
   0   7  13   59.68   32.59
   0  -7 -13   66.24   20.65
   0   7  14  126.79   70.94
   0   7  14  176.72   60.62
   0  -7 -14  264.93   60.36
   0   7  15    9.87   15.58
   0  -7 -15   11.63   13.70
   0   7  16   12.16   13.70
   0   8 -21   23.89   22.66
   0   8 -20   82.66   48.27
   0   8 -20   73.95   56.58
   0  -8  20  103.84   67.81
   0   8 -19  187.81   44.85
   0   8 -19  193.69   83.57
   0  -8  19  250.45   35.21
   0   8 -18  204.27   43.67
   0   8 -18  161.84   70.51
   0  -8  18  253.67   67.18
   0   8 -17   93.16   36.44
   0   8 -17  118.85   41.39
   0  -8  17  124.82   40.35
   0   8 -16  395.78   22.46
   0   8 -16  381.11   92.73
   0  -8  16  390.05   36.51
   0   8 -15  784.05   35.56
   0   8 -15  939.51   51.57
   0  -8  15  794.15   43.27
   0   8 -14  775.94   60.10
   0   8 -14  671.79   55.78
   0  -8  14  678.32   36.27
   0   8 -13  216.67   53.17
   0   8 -13  306.34   56.08
   0  -8  13  321.48   67.55
   0   8 -12   96.20   29.13
   0   8 -12  102.11   29.15
   0  -8  12   74.10   20.46
   0   8 -11    1.96   15.80
   0   8 -11   10.95    7.80
   0  -8  11   18.65   17.35
   0   8 -10 1727.68   79.40
   0  -8  10 1685.72   78.81
   0   8  -9 1818.27   85.21
   0   8  -9 1737.12   15.09
   0   8  -9 1814.21   73.76
   0  -8   9 1844.91   81.16
   0  -8   9 1615.01   86.67
   0   8  -8  496.14   42.31
   0   8  -8  506.68   31.89
   0   8  -8  502.91   33.50
   0  -8   8  560.22   67.14
   0  -8   8  594.54  109.97
   0   8  -7  616.67   55.38
   0   8  -7  556.90   30.07
   0   8  -7  543.34   29.38
   0  -8   7  612.08   41.03
   0  -8   7  544.45   35.61
   0   8  -6  991.02   48.13
   0   8  -6 1023.71   46.61
   0  -8   6  992.61   45.42
   0  -8   6 1010.68   60.55
   0  -8   6 1044.64   44.95
   0   8  -5 2121.23  102.45
   0   8  -5 2151.17   93.92
   0  -8   5 2224.98  102.79
   0  -8   5 2249.99   97.69
   0  -8   5 2060.72   89.32
   0   8  -4 1301.07   69.80
   0   8  -4 1240.34   60.29
   0  -8   4 1292.90   56.25
   0  -8   4 1341.99   74.24
   0  -8   4 1220.22   52.68
   0   8  -3   35.52   16.23
   0   8  -3   28.78    7.14
   0   8  -3   40.83   15.18
   0  -8   3   42.05   23.03
   0  -8   3   58.14   13.90
   0  -8   3   44.68   10.78
   0   8  -2  351.41   25.55
   0   8  -2  360.64   24.64
   0   8  -2  368.46   20.34
   0  -8   2  317.56   33.32
   0  -8   2  360.03   30.17
   0   8  -1  527.07   54.45
   0   8  -1  587.88   34.96
   0   8  -1  598.97   48.60
   0  -8   1  568.84   37.72
   0  -8   1  547.86   29.61
   0   8   0 1252.98   60.43
   0   8   0 1349.66   55.62
   0   8   0 1326.02   60.37
   0  -8   0 1372.25   67.99
   0  -8   0 1267.56   55.46
   0   8   1   64.59   47.37
   0   8   1   18.06    6.67
   0   8   1   20.73   20.57
   0  -8  -1   48.27   18.90
   0  -8  -1   61.69   23.48
   0   8   2   44.23   16.82
   0   8   2   61.67   11.72
   0   8   2   74.42   23.28
   0  -8  -2   43.17   28.35
   0  -8  -2   89.12   20.16
   0   8   3 6784.36  170.93
   0   8   3 6942.65   84.87
   0  -8  -3 6811.25  163.21
   0  -8  -3 6970.87   95.45
   0   8   4 3957.17  120.57
   0   8   4 3747.66  122.61
   0  -8  -4 3936.51  119.17
   0  -8  -4 4057.76  117.01
   0   8   5  266.81   27.57
   0   8   5  254.05   26.26
   0  -8  -5  282.32   33.67
   0  -8  -5  245.60   40.58
   0   8   6 1544.45   68.19
   0   8   6 1611.14   77.79
   0  -8  -6 1446.07   65.83
   0  -8  -6 1452.58   80.07
   0   8   7  118.29   23.53
   0   8   7   75.31   23.94
   0  -8  -7   68.02   19.71
   0  -8  -7   76.99   34.26
   0   8   8 1077.75   60.47
   0   8   8 1014.01   96.83
   0  -8  -8 1063.90   44.36
   0  -8  -8 1055.39   54.78
   0   8   9 1455.89   78.81
   0   8   9 1582.09  124.42
   0  -8  -9 1399.43   75.45
   0  -8  -9 1477.16   88.24
   0   8  10  773.92   51.51
   0   8  10  937.89   94.53
   0  -8 -10  888.57   26.68
   0  -8 -10  874.17   58.85
   0   8  11  248.12   77.35
   0   8  11  334.87   68.99
   0  -8 -11  320.24   40.17
   0   8  12   63.19   17.35
   0   8  12   58.42   28.49
   0  -8 -12   38.94   12.81
   0   8  13  133.53   48.14
   0   8  13   99.07   34.15
   0  -8 -13  124.09   44.77
   0   8  14  681.26   81.00
   0  -8 -14  612.11  110.04
   0   9 -21  210.81   84.11
   0   9 -21  355.81   44.23
   0   9 -20  161.53   51.48
   0   9 -20  113.11   70.37
   0  -9  20  161.87   98.83
   0   9 -19   20.26   15.18
   0   9 -19   15.10   15.41
   0  -9  19   56.86   45.35
   0   9 -18   65.59   51.51
   0   9 -18   71.81   20.50
   0  -9  18   59.22   22.04
   0   9 -17   93.69   35.14
   0   9 -17   79.36   24.68
   0  -9  17   92.86   37.56
   0   9 -16  516.34   44.91
   0   9 -16  532.33   50.48
   0  -9  16  563.28   69.41
   0   9 -15 1148.59   65.92
   0   9 -15 1135.49   71.77
   0  -9  15 1082.19   83.06
   0   9 -14  266.57   30.98
   0   9 -14  327.25   65.57
   0  -9  14  322.05   48.51
   0   9 -13   25.66   10.32
   0   9 -13   11.04    9.51
   0  -9  13   -2.38   17.59
   0   9 -12 1175.82   82.19
   0  -9  12 1131.23   53.53
   0   9 -11 2965.68  125.20
   0  -9  11 2858.59  107.64
   0  -9  11 2691.07  100.54
   0   9 -10 1929.69   84.53
   0   9 -10 1882.74   74.15
   0   9 -10 1941.27   66.04
   0  -9  10 1951.61   76.86
   0  -9  10 1927.39  102.70
   0   9  -9  647.37   58.74
   0   9  -9  578.12   27.44
   0   9  -9  588.97   29.03
   0  -9   9  614.45   37.51
   0  -9   9  669.00   44.74
   0   9  -8  743.52   61.58
   0   9  -8  617.80   33.39
   0  -9   8  657.22   40.53
   0  -9   8  594.54   72.26
   0   9  -7 1011.76   75.13
   0   9  -7  916.48   49.72
   0  -9   7  994.91   80.60
   0  -9   7  892.67   80.40
   0  -9   7  876.64   48.72
   0   9  -6 4698.44  140.41
   0   9  -6 4640.76  111.27
   0  -9   6 4894.85  125.70
   0  -9   6 4724.82  119.94
   0  -9   6 4661.17  112.59
   0   9  -5 3530.05  108.79
   0   9  -5 3371.20   82.45
   0  -9   5 3735.03  140.86
   0  -9   5 3676.27  113.10
   0  -9   5 3113.19   93.11
   0   9  -4 2310.28  101.80
   0   9  -4 2354.80   97.31
   0  -9   4 2557.97  125.67
   0  -9   4 2467.23  106.37
   0   9  -3  121.04   43.63
   0   9  -3  140.36   34.21
   0  -9   3  182.88   27.70
   0  -9   3  170.71   57.22
   0   9  -2  787.97   51.66
   0   9  -2  739.22   42.12
   0  -9   2  765.91   47.63
   0  -9   2  734.02   62.64
   0   9  -1  685.04   61.00
   0   9  -1  722.54   51.61
   0  -9   1  690.07   54.81
   0  -9   1  768.82   45.92
   0   9   0 2102.96  128.01
   0   9   0 2215.05   98.43
   0  -9   0 2147.72   96.46
   0  -9   0 2134.58   94.98
   0   9   1  200.92   51.79
   0   9   1  173.62   21.46
   0  -9  -1  234.56   27.46
   0  -9  -1  207.70   52.99
   0   9   2   45.34   14.93
   0   9   2   20.75   11.68
   0  -9  -2   56.94   14.12
   0  -9  -2   77.35   17.77
   0   9   3  890.69   68.61
   0   9   3  806.07   47.84
   0  -9  -3  875.22   49.76
   0  -9  -3  899.55   52.25
   0   9   4 3784.30  134.32
   0   9   4 3358.59  122.70
   0  -9  -4 3272.24  126.23
   0  -9  -4 3381.44  132.27
   0   9   5 1219.09   64.36
   0   9   5 1312.95   63.36
   0  -9  -5 1204.19   70.41
   0   9   6   72.51   29.84
   0   9   6   44.86   27.39
   0  -9  -6   90.81   22.92
   0  -9  -6  114.27   34.98
   0   9   7    1.67   10.57
   0   9   7    6.82   22.12
   0  -9  -7    8.70    6.21
   0  -9  -7    2.72   14.65
   0   9   8  349.98   39.62
   0   9   8  339.99   38.26
   0  -9  -8  271.48   16.24
   0  -9  -8  319.91   35.84
   0   9   9  938.96   61.33
   0   9   9 1045.03   67.82
   0  -9  -9  963.38   56.20
   0  -9  -9 1146.39   70.89
   0   9  10  334.57   52.66
   0   9  10  234.60  103.88
   0  -9 -10  286.48   57.06
   0  -9 -10  376.02   35.23
   0   9  11   10.49   12.24
   0   9  11    3.99   11.60
   0  -9 -11   17.02    9.72
   0   9  12   43.21   29.88
   0  -9 -12   20.14   22.03
   0   9  13   13.91   10.90
   0  -9 -13   17.79    8.72
   0  10 -21  353.70   51.80
   0  10 -20  328.21   61.58
   0  10 -20  338.80   45.42
   0 -10  20  364.80   72.41
   0  10 -19   99.77   59.56
   0  10 -19  149.54   43.93
   0 -10  19  165.59   80.96
   0  10 -18   26.41   16.31
   0  10 -18   10.44   19.57
   0 -10  18   14.96   11.10
   0  10 -17   61.81   18.67
   0  10 -17   29.65   14.52
   0 -10  17   83.68   40.22
   0  10 -16  141.33   48.82
   0  10 -16  197.40   38.12
   0 -10  16  132.76   51.06
   0  10 -15  691.02   36.64
   0  10 -15  796.54  100.49
   0 -10  15  809.62   80.70
   0  10 -14  236.80   51.37
   0 -10  14  201.99   67.66
   0 -10  14  310.12   43.06
   0  10 -13   52.90   19.73
   0 -10  13   70.15   28.25
   0 -10  13   28.34   21.19
   0  10 -12 2102.18  120.10
   0 -10  12 2212.31   89.64
   0 -10  12 2056.24   78.82
   0  10 -11 4609.54  172.14
   0 -10  11 4650.60  162.17
   0 -10  11 4399.97  154.09
   0  10 -10 1911.81   88.33
   0 -10  10 1806.19   78.92
   0 -10  10 1825.03   83.96
   0  10  -9  763.89   70.54
   0  10  -9  623.26   43.96
   0  10  -9  749.85   40.56
   0 -10   9  753.51   45.84
   0 -10   9  842.75   58.18
   0  10  -8  440.97   36.85
   0  10  -8  373.67   21.09
   0 -10   8  432.05   38.87
   0 -10   8  365.20   23.10
   0  10  -7  411.00   69.89
   0  10  -7  415.99   34.02
   0 -10   7  447.54   41.25
   0 -10   7  437.25   35.16
   0 -10   7  358.34   26.54
   0  10  -6 5019.64  190.26
   0  10  -6 4956.02  140.69
   0 -10   6 5102.45  141.94
   0 -10   6 4903.60  155.97
   0 -10   6 4745.61  130.97
   0  10  -5 2117.56   98.59
   0  10  -5 2156.49   89.14
   0 -10   5 2350.49   74.79
   0 -10   5 2188.64   93.11
   0  10  -4 1478.87   99.95
   0  10  -4 1398.98   68.21
   0 -10   4 1432.25   72.68
   0 -10   4 1485.76   70.08
   0  10  -3   37.48   25.86
   0  10  -3   35.04   16.37
   0 -10   3   22.57   12.28
   0 -10   3   27.58   16.27
   0  10  -2  314.25   35.66
   0  10  -2  358.06   38.31
   0 -10   2  348.52   33.99
   0 -10   2  435.47   63.54
   0  10  -1  613.17   38.22
   0  10  -1  649.83   36.44
   0 -10   1  672.70   45.13
   0 -10   1  706.98   59.29
   0  10   0   12.36    7.56
   0  10   0   -1.85   12.70
   0 -10   0    7.41    6.82
   0 -10   0    9.94   13.80
   0  10   1  684.08   31.94
   0  10   1  603.08   78.01
   0 -10  -1  647.80   55.67
   0 -10  -1  616.75   53.98
   0  10   2   33.16   15.47
   0  10   2   26.93    9.58
   0 -10  -2   37.91   14.20
   0 -10  -2   28.60   10.25
   0  10   3 1904.51   89.23
   0  10   3 1915.80   84.16
   0 -10  -3 1857.77   78.88
   0 -10  -3 1840.38   89.40
   0  10   4 2051.45  105.99
   0  10   4 2061.03   74.27
   0 -10  -4 1928.22   81.12
   0 -10  -4 2005.31   62.54
   0  10   5   13.15   15.35
   0  10   5   25.32   15.55
   0 -10  -5   13.28   11.60
   0  10   6  145.76   34.39
   0  10   6  124.73   36.56
   0 -10  -6   97.66   46.74
   0 -10  -6  159.15   36.27
   0  10   7  565.99   27.59
   0  10   7  722.92   43.24
   0 -10  -7  641.58   40.33
   0 -10  -7  526.14   64.85
   0  10   8 1969.54  136.70
   0  10   8 1935.98  172.88
   0 -10  -8 1752.39  120.92
   0 -10  -8 1959.69  143.79
   0  10   9 1542.18   88.75
   0  10   9 1742.53  103.83
   0 -10  -9 1644.25   97.90
   0 -10  -9 1700.81  103.49
   0  10  10  511.08   60.02
   0 -10 -10  449.26   48.32
   0  10  11    9.16   21.87
   0 -10 -11   15.31   12.14
   0  10  12   61.83   42.09
   0 -10 -12  122.60   37.44
   0  11 -20  365.34   70.92
   0  11 -20  466.38   65.21
   0 -11  20  475.29   64.32
   0  11 -19  847.62   50.03
   0  11 -19  683.56   51.29
   0 -11  19  592.68   88.49
   0  11 -18  119.24   39.90
   0 -11  18   70.91   30.03
   0  11 -17  134.06   40.26
   0 -11  17   62.04   38.03
   0 -11  17   95.98   32.02
   0  11 -16  364.73   37.37
   0 -11  16  370.86  106.64
   0 -11  16  363.14   41.98
   0  11 -15  471.73   42.14
   0 -11  15  583.67   33.49
   0 -11  15  517.85   41.91
   0  11 -14   78.30   19.94
   0 -11  14   31.55   25.28
   0 -11  14   54.58   29.11
   0  11 -13    7.98   15.82
   0 -11  13   -4.85   17.19
   0 -11  13   26.32   21.36
   0  11 -12  765.94   71.88
   0 -11  12  750.78   36.39
   0 -11  12  675.14   59.29
   0  11 -11 3227.30  106.00
   0 -11  11 3090.66  110.15
   0 -11  11 3203.70  100.47
   0  11 -10 1560.55   67.09
   0  11 -10 1380.87   48.79
   0 -11  10 1576.36   74.57
   0 -11  10 1446.10   60.68
   0  11  -9  486.66   41.97
   0  11  -9  573.10   31.64
   0 -11   9  569.41   44.77
   0 -11   9  568.02   39.22
   0  11  -8   33.88   14.75
   0 -11   8   31.71   14.39
   0 -11   8   43.78   13.66
   0  11  -7   72.59   18.09
   0  11  -7   43.55   13.86
   0 -11   7   54.22   17.36
   0 -11   7   38.92   15.56
   0  11  -6 2056.34   84.18
   0  11  -6 1957.69   80.16
   0 -11   6 2136.92   86.48
   0 -11   6 2068.18   80.40
   0  11  -5 2523.35  103.41
   0  11  -5 2581.56   93.43
   0 -11   5 2511.80   96.21
   0 -11   5 2532.18   99.01
   0  11  -4  872.57   72.41
   0  11  -4  755.50   45.06
   0 -11   4  797.73   48.60
   0 -11   4  783.40   72.47
   0  11  -3   13.49    8.54
   0  11  -3    2.42    6.04
   0 -11   3    2.49    6.78
   0 -11   3    3.83   11.75
   0  11  -2   43.45   22.16
   0  11  -2   18.85   18.44
   0 -11   2   22.77   10.91
   0 -11   2   29.27   17.32
   0  11  -1  258.86   28.17
   0  11  -1  311.40   22.37
   0 -11   1  288.33   28.55
   0 -11   1  318.39   32.19
   0  11   0  442.67   49.88
   0  11   0  486.90   32.99
   0 -11   0  506.71   32.80
   0 -11   0  450.73   22.88
   0  11   1   53.26   17.54
   0  11   1   14.85   20.82
   0 -11  -1   20.73    7.78
   0 -11  -1   26.33   15.79
   0  11   2  393.96   73.33
   0  11   2  338.99   74.19
   0 -11  -2  349.15   35.15
   0 -11  -2  353.90   54.86
   0  11   3  346.91   63.91
   0  11   3  294.61   80.68
   0 -11  -3  294.42   42.58
   0 -11  -3  348.77   79.22
   0  11   4   25.71   11.60
   0  11   4   20.57   20.26
   0 -11  -4   39.40   16.07
   0 -11  -4   26.41   16.87
   0  11   5   18.81   13.59
   0  11   5   27.97   29.89
   0  11   5   16.50   11.87
   0 -11  -5   28.31   12.58
   0  11   6  140.24   41.97
   0  11   6  284.51   45.81
   0 -11  -6  203.18   47.44
   0 -11  -6  184.11   39.39
   0  11   7  370.53   45.59
   0 -11  -7  460.64   56.44
   0 -11  -7  472.99   31.38
   0  11   8 1482.48   85.51
   0 -11  -8 1586.08  101.47
   0 -11  -8 1388.31   91.15
   0  11   9  932.09   82.15
   0 -11  -9 1056.44   65.26
   0  11  10  446.01   77.25
   0 -11 -10  330.25  114.15
   0  11  11   17.61   21.47
   0 -11 -11   19.82   17.13
   0  12 -21  672.44  104.13
   0  12 -20  498.63   73.84
   0  12 -19  422.08  101.48
   0 -12  19  568.26   61.19
   0 -12  19  639.85   35.82
   0  12 -18   14.79   13.71
   0 -12  18   13.45   21.73
   0 -12  18   33.25   27.07
   0  12 -17  234.40   57.73
   0 -12  17  179.23   58.24
   0 -12  17  171.38   65.61
   0  12 -16  863.71   76.11
   0 -12  16  883.44   57.82
   0 -12  16  847.41   56.90
   0  12 -15  242.79   88.76
   0 -12  15  341.97  117.32
   0 -12  15  327.50   46.43
   0  12 -14   69.39   29.28
   0 -12  14   92.55   55.84
   0 -12  14  158.21   51.68
   0  12 -13  131.25   43.66
   0 -12  13  139.71   51.33
   0 -12  13  113.52   34.29
   0  12 -12  903.94   80.33
   0 -12  12  838.81   49.68
   0 -12  12  809.59   77.64
   0  12 -11 1373.43  110.88
   0 -12  11 1637.93   81.30
   0 -12  11 1480.36   92.43
   0  12 -10  471.14   45.47
   0 -12  10  368.96   44.72
   0 -12  10  358.86   26.76
   0  12  -9  113.55   34.95
   0  12  -9   93.45   22.74
   0 -12   9   85.30   27.63
   0 -12   9   88.98   41.29
   0  12  -8  718.38   51.05
   0  12  -8  595.70   33.84
   0 -12   8  638.11   36.75
   0 -12   8  591.63   70.80
   0  12  -7 1472.34   66.27
   0  12  -7 1327.82   60.00
   0 -12   7 1453.20   58.60
   0 -12   7 1380.75   69.47
   0  12  -6 2318.55   81.27
   0  12  -6 2235.73   81.09
   0 -12   6 2385.85   76.11
   0 -12   6 2242.89   81.40
   0  12  -5 1365.74   66.91
   0  12  -5 1075.46   60.07
   0 -12   5 1203.66   55.25
   0 -12   5 1077.68   59.85
   0  12  -4  192.96   26.82
   0  12  -4  171.49   34.78
   0 -12   4  161.09   24.86
   0 -12   4  119.25   52.04
   0  12  -3  142.59   36.40
   0  12  -3   84.68   20.32
   0 -12   3   85.92   27.56
   0 -12   3  117.75   36.91
   0  12  -2   41.87   27.73
   0  12  -2   55.24   20.99
   0 -12   2   18.82   10.11
   0 -12   2   55.64   21.24
   0  12  -1 2096.43   80.34
   0  12  -1 2072.79   82.50
   0 -12   1 1962.62   78.93
   0 -12   1 2105.51   77.66
   0  12   0 1247.28   67.12
   0  12   0 1226.69   57.84
   0 -12   0 1205.79   45.25
   0 -12   0 1169.06   64.08
   0  12   1  468.19   42.26
   0  12   1  472.75   51.49
   0 -12  -1  450.89   44.45
   0 -12  -1  511.86   51.25
   0  12   2   21.99   16.91
   0  12   2   34.82   16.97
   0 -12  -2    8.52    8.17
   0 -12  -2   27.36   29.31
   0  12   3  317.08   41.63
   0  12   3  318.05   22.77
   0 -12  -3  263.32   36.04
   0 -12  -3  322.95   91.14
   0  12   4  236.99   55.15
   0  12   4  203.08   59.67
   0 -12  -4  192.25   30.21
   0 -12  -4  257.12   35.75
   0  12   5   93.02   23.58
   0  12   5   92.46   34.96
   0 -12  -5  194.88   44.20
   0  12   6  124.21   43.22
   0 -12  -6   75.87   28.26
   0 -12  -6   42.02   20.89
   0  12   7  248.51   91.56
   0 -12  -7  296.83   58.68
   0 -12  -7  201.11   55.15
   0  12   8  431.38   50.42
   0 -12  -8  370.03   46.41
   0  12   9  804.61   45.17
   0 -12  -9  802.09   36.90
   0  13 -20   92.04   37.99
   0  13 -19  177.60   72.70
   0 -13  19  149.02  101.57
   0 -13  19  190.84   43.66
   0  13 -18   21.23   15.28
   0 -13  18   15.65   18.04
   0 -13  18   38.86   21.42
   0  13 -17  122.62   35.09
   0 -13  17  100.36   41.02
   0 -13  17   98.88   47.51
   0  13 -16  289.21  104.98
   0 -13  16  420.73   45.56
   0 -13  16  345.06   49.92
   0  13 -15  552.14   70.58
   0 -13  15  532.85   39.68
   0 -13  15  487.16   58.51
   0  13 -14  354.50   36.81
   0 -13  14  334.63   87.38
   0 -13  14  351.91   87.91
   0  13 -13   59.14   20.13
   0 -13  13   64.12   34.70
   0 -13  13   58.71   20.66
   0  13 -12   79.77   26.40
   0 -13  12   62.06   26.60
   0 -13  12   94.56   28.45
   0  13 -11  700.49   53.82
   0 -13  11  816.64   51.52
   0 -13  11  809.44   86.71
   0  13 -10  409.30   41.64
   0 -13  10  367.82   40.31
   0 -13  10  430.69   44.22
   0  13  -9   39.90   30.51
   0 -13   9   65.63   31.36
   0 -13   9   94.61   25.90
   0  13  -8  666.04   51.07
   0  13  -8  679.59   40.89
   0 -13   8  702.59   41.92
   0 -13   8  725.57   44.84
   0  13  -7 3545.18  123.89
   0  13  -7 3577.87  115.43
   0 -13   7 3659.95  122.75
   0 -13   7 3667.40  150.36
   0  13  -6 4243.15  156.02
   0  13  -6 4010.34  130.25
   0 -13   6 4060.76  129.33
   0 -13   6 4096.51  154.53
   0  13  -5  678.15   56.02
   0  13  -5  646.86   49.19
   0 -13   5  683.28   52.97
   0 -13   5  751.12   83.19
   0  13  -4  245.41   80.15
   0  13  -4  297.15   18.32
   0 -13   4  256.15   36.82
   0 -13   4  247.94   58.61
   0  13  -3   13.46   21.22
   0  13  -3   10.23   12.52
   0 -13   3    3.47    9.64
   0 -13   3   23.17   20.08
   0  13  -2 1529.88   86.11
   0  13  -2 1302.20  100.42
   0 -13   2 1403.96   77.23
   0 -13   2 1529.72   84.29
   0  13  -1 1216.55   84.94
   0  13  -1 1207.82   67.53
   0 -13   1 1163.78   68.10
   0 -13   1 1254.45   74.76
   0  13   0  486.94   79.27
   0  13   0  351.51   60.42
   0 -13   0  372.35   45.07
   0 -13   0  354.73   75.54
   0  13   1   40.09   23.44
   0  13   1   11.64   11.47
   0 -13  -1    9.83    5.82
   0 -13  -1   30.51   19.40
   0  13   2  156.41   33.44
   0  13   2  146.52   45.37
   0 -13  -2  120.53   39.99
   0  13   3  278.98   23.49
   0  13   3  287.20   68.05
   0 -13  -3  247.84   65.19
   0  13   4  334.57   67.59
   0  13   4  308.92   43.38
   0 -13  -4  206.86   90.92
   0  13   5  221.32   39.72
   0  13   5  246.33   90.38
   0 -13  -5  301.61   69.54
   0  13   6  111.21   43.18
   0 -13  -6  127.81   31.33
   0 -13  -6   61.27   23.20
   0  13   7  226.35   71.39
   0 -13  -7  168.65   80.64
   0  13   8  283.16   44.29
   0 -13  -8  295.52   39.25
   0 -14  19  288.17   48.19
   0  14 -18  407.94   50.52
   0 -14  18  469.55  120.95
   0 -14  18  239.49  116.67
   0  14 -17   14.93   24.86
   0 -14  17   22.46   18.62
   0 -14  17   15.07   15.68
   0  14 -16   50.64   31.25
   0 -14  16   73.56   44.82
   0 -14  16   75.34   40.21
   0  14 -15   43.71   28.23
   0 -14  15   40.08   20.35
   0 -14  15   37.19   26.21
   0  14 -14  101.52   28.14
   0 -14  14  111.37   61.42
   0 -14  14   67.32   23.93
   0  14 -13   13.40   23.16
   0 -14  13   20.45   14.57
   0 -14  13   14.89   12.65
   0  14 -12   68.92   45.40
   0 -14  12   48.26   28.79
   0 -14  12   39.25   14.74
   0  14 -11  431.01   39.66
   0 -14  11  334.85   52.47
   0 -14  11  430.59   63.64
   0  14 -10  122.56   36.25
   0 -14  10  138.28   52.24
   0 -14  10  136.50   23.65
   0  14  -9   50.08   43.30
   0 -14   9   30.85   14.86
   0 -14   9   35.07   16.88
   0  14  -8  124.83   47.38
   0 -14   8  181.83   31.43
   0 -14   8  136.05   39.29
   0  14  -7 1190.15   64.52
   0  14  -7 1113.27   54.38
   0 -14   7 1187.79   50.60
   0 -14   7 1096.82  112.64
   0  14  -6 1743.07   74.37
   0  14  -6 1556.07   66.48
   0 -14   6 1729.19   75.78
   0 -14   6 1678.92   85.01
   0  14  -5  836.46   47.05
   0  14  -5  940.04   46.39
   0 -14   5  904.46   39.36
   0 -14   5  918.64   47.87
   0  14  -4    4.67   10.65
   0  14  -4   10.13   11.74
   0 -14   4   25.17   11.83
   0 -14   4   28.57   13.88
   0  14  -3   51.71   25.78
   0  14  -3   43.40   12.75
   0 -14   3   52.17   17.21
   0 -14   3   61.01   19.76
   0  14  -2 2371.72  136.20
   0  14  -2 2289.00  129.15
   0 -14   2 2385.16  143.04
   0  14  -1 2039.88  127.83
   0  14  -1 1778.34  140.44
   0 -14   1 1998.13  122.32
   0  14   0  613.56   68.62
   0  14   0  663.46   34.14
   0 -14   0  661.79   76.15
   0  14   1   91.40   39.62
   0  14   1  120.15   39.21
   0 -14  -1  145.71   34.91
   0  14   2  274.35   69.66
   0  14   2  200.04   76.94
   0 -14  -2  241.91   29.87
   0  14   3  305.63   80.01
   0  14   3  371.80   42.24
   0 -14  -3  239.80   88.59
   0  14   4  328.44   45.35
   0  14   4  313.65   88.47
   0 -14  -4  367.82   46.25
   0  14   5   55.71   24.65
   0 -14  -5   68.09   39.40
   0  14   6    9.91   29.14
   0 -14  -6   20.61   22.41
   0  14   7  111.36   73.43
   0 -15  18  241.92   39.00
   0  15 -17   25.02   17.23
   0 -15  17   45.37   42.20
   0  15 -16  370.46  167.05
   0 -15  16  751.54   46.23
   0 -15  16  424.36   78.34
   0  15 -15  175.68   72.01
   0 -15  15  173.99   83.18
   0 -15  15  250.82   40.41
   0  15 -14   97.01   31.00
   0 -15  14   31.79   14.36
   0 -15  14   77.56   45.75
   0  15 -13   13.30   25.25
   0 -15  13    1.72   20.78
   0 -15  13   10.55   12.73
   0  15 -12   33.00   14.13
   0 -15  12   40.68   31.90
   0 -15  12   12.25   15.05
   0  15 -11  113.41   47.83
   0 -15  11  122.23   58.76
   0 -15  11  104.40   30.58
   0  15 -10  171.27   62.02
   0 -15  10  198.97   48.90
   0 -15  10  217.61   29.30
   0  15  -9   16.38   21.07
   0 -15   9    8.90    8.86
   0 -15   9    9.28   14.27
   0  15  -8  240.70  122.35
   0 -15   8  357.15   90.84
   0 -15   8  222.12   22.18
   0  15  -7 1191.74  109.04
   0 -15   7 1227.54   98.33
   0 -15   7 1085.23   69.91
   0  15  -6  606.54   70.63
   0  15  -6  602.23   35.26
   0 -15   6  657.56   47.29
   0 -15   6  635.36   31.19
   0  15  -5  529.51   41.81
   0  15  -5  565.51   28.87
   0 -15   5  609.83   78.95
   0  15  -4   32.95   13.17
   0  15  -4    5.17    8.46
   0 -15   4   26.59   17.15
   0  15  -3   76.70   34.84
   0  15  -3   84.90   41.83
   0 -15   3  130.01   37.91
   0  15  -2  191.49   69.26
   0  15  -2  180.23   69.39
   0 -15   2  235.47   53.94
   0  15  -1  342.56   78.28
   0  15  -1  325.75   36.23
   0 -15   1  331.33   36.51
   0  15   0 1038.78   91.93
   0  15   0 1007.00  101.31
   0 -15   0  956.63   87.28
   0  15   1   20.86   12.60
   0  15   1   69.29   31.14
   0 -15  -1   34.07   20.67
   0  15   2   97.77   43.99
   0  15   2   99.68   34.86
   0 -15  -2   75.58   34.28
   0  15   3  144.59   78.19
   0  15   3  180.13   75.13
   0 -15  -3  293.10   49.25
   0  15   4  319.21   56.50
   0  15   4  339.85   40.52
   0  15   5   61.34   46.42
   0 -16  16 1113.64   83.91
   0 -16  16 1020.21  101.11
   0  16 -15  453.00  107.41
   0 -16  15  518.34   91.47
   0 -16  15  498.53   77.54
   0  16 -14    7.24   21.95
   0 -16  14    7.77   21.10
   0 -16  14   -6.65   12.54
   0  16 -13    2.86   15.46
   0 -16  13  -16.18   18.35
   0 -16  13   28.89   11.56
   0  16 -12   50.98   23.64
   0 -16  12   48.00   12.06
   0 -16  12   62.09   19.07
   0  16 -11   32.89   31.49
   0 -16  11   76.06   32.16
   0 -16  11   55.89   26.00
   0  16 -10  145.05   63.85
   0 -16  10  182.07   70.10
   0 -16  10  178.95   28.87
   0  16  -9   24.23   13.83
   0 -16   9   46.47   29.33
   0 -16   9   57.15   30.64
   0  16  -8   69.57   29.96
   0 -16   8   70.89   24.83
   0  16  -7  524.33  100.73
   0 -16   7  583.96   88.63
   0  16  -6 1015.11  111.68
   0 -16   6  950.12   53.81
   0  16  -5  109.75   40.10
   0  16  -5  119.59   36.86
   0 -16   5  138.43   50.86
   0  16  -4   16.28   26.95
   0 -16   4   17.69   23.80
   0  16  -3  130.51   42.46
   0  16  -3   92.68   32.07
   0 -16   3  168.23   84.78
   0  16  -2  821.37   70.26
   0  16  -2  975.58   61.71
   0 -16   2  947.20   60.06
   0  16  -1  844.15   50.87
   0  16  -1  939.10   62.77
   0 -16   1  886.86   95.42
   0  16   0  369.11   54.15
   0  16   0  261.55  100.29
   0 -16   0  409.10   89.11
   0  16   1   86.82   39.26
   0  16   1   91.72   25.56
   0 -16  -1  115.53   43.73
   0  16   2   13.80   12.73
   0  16   2   22.19   16.04
   0 -16  -2   43.87   25.37
   0  16   3  184.84   76.52
   0  16   3  164.75   80.03
   0 -17  14  520.20   79.30
   0  17 -13   -7.07   21.38
   0 -17  13   31.08   39.54
   0  17 -12   82.33   41.51
   0 -17  12   63.79   59.99
   0  17 -11   20.65   18.32
   0 -17  11    6.00   14.23
   0  17 -10  105.66   39.52
   0 -17  10   96.33   52.37
   0  17  -9   15.16   23.58
   0 -17   9   -4.87   11.38
   0 -17   8   28.29   29.97
   0  17  -7   36.24   13.87
   0 -17   7   28.97   25.88
   0  17  -6   32.26   19.38
   0 -17   6   33.79   20.84
   0  17  -5  186.25   84.85
   0 -17   5  236.28   90.68
   0  17  -4   14.90   15.87
   0 -17   4   21.17   12.58
   0  17  -3  361.67   87.78
   0  17  -3  453.06   34.98
   0 -17   3  427.73   80.81
   0  17  -2  772.43   44.72
   0  17  -2  773.97   37.09
   0 -17   2  837.69   62.91
   0  17  -1 1003.28  112.65
   0  17  -1 1050.04   68.02
   0 -17   1  894.75  115.74
   0  17   0  232.55   91.82
   0  17   0  348.32   76.15
   0  17   1   46.21   17.74
   0  17   1   11.61   14.78
   0  17   2   71.12   78.57
   0 -18  10  577.88   88.34
   0  18  -9    4.57   12.27
   0 -18   9    9.00   12.23
   0  18  -8   92.44   37.58
   0 -18   8   75.76   42.39
   0  18  -7  112.49   62.05
   0 -18   7  145.67   68.69
   0  18  -6  113.34   71.96
   0 -18   6  121.03   99.13
   0  18  -5   55.39   23.99
   0 -18   5   78.19   36.55
   0  18  -3  126.47   53.25
   0  18  -2  363.11   88.98
   0  18  -1  338.85   85.13
   0  18  -1  467.85   55.28
   0  18   0   86.01   54.48
  -1  18   1   61.42   36.42
  -1  18   0  352.65   68.25
  -1  18  -1  498.44   57.37
  -1  18  -1  465.18   72.30
  -1  18  -3  280.84   84.93
   1 -18   4  147.65   64.52
  -1  18  -4  203.40   64.26
   1 -18   5  145.66   64.76
  -1  18  -5  155.54   57.89
   1 -18   6   35.12   21.14
  -1  18  -6   74.54   29.57
   1 -18   7   40.03   28.25
  -1  18  -7   35.20   27.03
   1 -18   8  714.83   74.85
  -1  18  -8  755.21   42.89
   1 -18   9  547.78   61.16
  -1  18  -9  652.61   71.88
   1 -18  10 1394.06  103.82
  -1  18 -10 1337.40   96.75
  -1  17   3   25.89   12.06
  -1  17   3   24.47   20.67
  -1  17   2   20.02   16.64
  -1  17   1  388.78   72.15
  -1  17   1  488.20   50.92
   1 -17   0  467.50   60.56
  -1  17   0  304.29   84.20
  -1  17   0  419.04   69.44
  -1  17  -1  226.64   74.20
  -1  17  -1  147.83   79.33
  -1  17  -2   -5.52   15.69
  -1  17  -2   12.28   13.43
   1 -17   3  114.89   62.89
  -1  17  -3  175.76   65.00
  -1  17  -3   94.34   26.93
   1 -17   4  570.60   72.46
  -1  17  -4  656.42   48.23
   1 -17   5  190.25   72.45
  -1  17  -5  143.52   78.84
   1 -17   6    8.68   21.59
  -1  17  -6   14.31   20.86
   1 -17   7   41.14   23.35
  -1  17  -7   12.05   14.02
   1 -17   8  193.43   81.19
  -1  17  -8  191.06   75.68
   1 -17   9  634.33   46.06
  -1  17  -9  635.86   45.94
   1 -17  10  207.14   78.69
  -1  17 -10  155.79   94.55
   1 -17  11   77.64   45.29
  -1  17 -11   73.92   41.72
   1 -17  12   19.12   18.58
  -1  17 -12   12.62   19.35
   1 -17  13  161.98   76.80
  -1  17 -13  287.99   45.21
   1 -17  14  108.38   41.67
  -1  17 -14  101.57   51.39
  -1  16   4  107.38   39.15
   1 -16  -3   10.95   10.82
  -1  16   3   20.32   10.88
  -1  16   3   14.37   10.52
  -1  16   2  174.51   58.68
  -1  16   2  141.48   78.21
   1 -16  -1 1042.38   66.56
  -1  16   1  854.26   56.11
  -1  16   1  917.77   49.09
   1 -16   0  504.80   95.48
  -1  16   0  531.52   48.41
  -1  16   0  360.04   67.46
   1 -16   1  440.16   45.00
  -1  16  -1  481.09   41.87
  -1  16  -1  396.41   50.46
   1 -16   2   44.62   20.06
  -1  16  -2   40.99   20.20
  -1  16  -2   33.02   11.09
   1 -16   3   74.30   45.25
  -1  16  -3   34.11   25.83
  -1  16  -3   45.43   23.66
   1 -16   4   68.65   21.71
  -1  16  -4   53.35   20.85
  -1  16  -4   36.33   20.53
   1 -16   5   50.82   33.99
  -1  16  -5   36.28   17.77
   1 -16   6   17.20   10.85
  -1  16  -6    9.95   17.87
   1 -16   7  136.70   38.38
  -1  16  -7   31.29   24.11
   1 -16   8  486.28   82.91
  -1  16  -8  473.81   43.30
   1 -16   9  630.66  100.22
  -1  16  -9  608.76  110.33
   1 -16  10  206.71   84.21
  -1  16 -10  335.59   45.81
   1 -16  11   10.69   10.63
   1 -16  11   21.80   13.02
  -1  16 -11   23.87   16.44
   1 -16  12   47.95   25.31
   1 -16  12   35.57   30.38
  -1  16 -12   39.95   29.80
   1 -16  13  558.34   42.06
   1 -16  13  658.98   76.69
  -1  16 -13  638.89   68.14
   1 -16  14  523.71   77.43
   1 -16  14  451.62   74.44
  -1  16 -14  566.04   74.28
   1 -16  15  808.36  101.04
   1 -16  16  323.07   50.93
  -1  16 -16  372.32   67.45
   1 -16  18  165.80   60.34
   1 -15  -6  700.77   61.65
  -1  15   6  550.58   83.52
   1 -15  -5  679.34   30.29
   1 -15  -5  594.63  144.99
  -1  15   5  756.28   93.23
   1 -15  -4  157.01   56.97
  -1  15   4  123.76   54.13
  -1  15   4   99.81   20.17
   1 -15  -3  103.87   29.48
  -1  15   3   89.83   39.47
  -1  15   3  100.92   36.40
   1 -15  -2  270.76   43.58
  -1  15   2  288.04   56.33
  -1  15   2  281.81   76.22
   1 -15  -1 1143.28   40.48
  -1  15   1 1045.87  102.49
  -1  15   1 1053.54   95.92
   1 -15   0  290.00   37.89
  -1  15   0  351.41   65.36
  -1  15   0  317.38   42.33
   1 -15   1  404.61   92.94
  -1  15  -1  415.51  101.74
  -1  15  -1  339.31   42.92
   1 -15   2   -8.60   17.75
  -1  15  -2   20.34   14.33
  -1  15  -2   16.53   20.23
   1 -15   3   82.43   23.03
  -1  15  -3    5.22   23.41
  -1  15  -3   53.29   21.63
   1 -15   4  194.76   56.00
  -1  15  -4  168.39   37.65
  -1  15  -4  176.28   44.93
   1 -15   5  160.68   62.91
  -1  15  -5  200.85   80.33
  -1  15  -5  182.07   38.63
   1 -15   6  174.23   56.33
  -1  15  -6  134.32   50.14
  -1  15  -6  109.27   30.69
   1 -15   7   22.51   11.77
   1 -15   7   35.11    9.66
  -1  15  -7   19.13   16.22
   1 -15   8  348.89   46.94
   1 -15   8  346.05   76.53
  -1  15  -8  365.62   39.42
   1 -15   9  850.01   56.85
   1 -15   9  925.73   53.45
  -1  15  -9  858.75   50.12
   1 -15  10  254.23   30.20
   1 -15  10  283.29   64.65
  -1  15 -10  314.28   36.38
   1 -15  11    3.02   13.19
   1 -15  11   24.18   26.96
  -1  15 -11   15.12   20.85
   1 -15  12   25.40   20.69
   1 -15  12   36.72   26.90
  -1  15 -12   42.87   34.49
   1 -15  13  708.15   33.33
   1 -15  13  803.85   49.07
  -1  15 -13  637.81   71.66
   1 -15  14 1262.36   99.41
   1 -15  14 1421.65  112.94
  -1  15 -14 1181.33  111.33
   1 -15  15 1349.74   63.41
   1 -15  15 1193.78  107.74
  -1  15 -15 1369.89   68.38
   1 -15  16  218.24   72.45
   1 -15  16  193.74  134.00
  -1  15 -16  273.98   67.97
  -1  15 -17   19.12   16.19
   1 -15  18  111.88   78.37
  -1  15 -18   86.47   72.62
   1 -14  -7   63.97   16.60
   1 -14  -7   50.45   26.39
  -1  14   7   64.97   41.25
   1 -14  -6 1177.05   63.86
   1 -14  -6 1269.64   63.21
  -1  14   6 1331.53   77.79
   1 -14  -5 1480.40   96.67
  -1  14   5 1300.92  132.53
   1 -14  -4  673.28   43.13
  -1  14   4  616.82   63.07
  -1  14   4  606.33   77.77
   1 -14  -3   11.33   18.25
  -1  14   3   10.96    7.87
  -1  14   3    5.65    9.27
   1 -14  -2  456.84   52.33
  -1  14   2  372.68   75.53
  -1  14   2  528.07   60.32
   1 -14  -1 1596.41  115.01
  -1  14   1 1894.34  138.61
  -1  14   1 2062.89  149.09
   1 -14   0  861.40   73.13
  -1  14   0  893.12   41.26
  -1  14   0  767.08   40.12
   1 -14   1  595.11   84.01
  -1  14  -1  607.51  112.05
  -1  14  -1  612.84   32.83
   1 -14   2   30.82   33.35
  -1  14  -2   18.75   19.17
  -1  14  -2   19.78   12.61
   1 -14   3  447.53   45.99
  -1  14  -3  476.09   41.63
  -1  14  -3  480.08   27.43
   1 -14   4  595.95   30.34
   1 -14   4  676.25   79.20
  -1  14  -4  684.28   71.80
  -1  14  -4  669.88   35.60
   1 -14   5  762.30   34.76
   1 -14   5  639.66   39.01
  -1  14  -5  766.42   81.29
  -1  14  -5  707.10   34.07
   1 -14   6   27.56   14.53
   1 -14   6   45.67   16.24
  -1  14  -6   28.88   22.71
  -1  14  -6   66.32   20.69
   1 -14   7   64.47   17.38
   1 -14   7   39.76   23.84
  -1  14  -7   64.81   28.27
  -1  14  -7   52.25   14.25
   1 -14   8   40.75   13.25
   1 -14   8   59.20   16.88
  -1  14  -8   15.64   13.63
   1 -14   9  668.15   34.32
   1 -14   9  735.15   72.33
  -1  14  -9  684.18   88.52
   1 -14  10  144.30   39.94
   1 -14  10  134.08   47.57
  -1  14 -10   90.76   72.98
   1 -14  11   44.50   18.73
   1 -14  11   19.64   20.14
  -1  14 -11   18.88   22.15
   1 -14  12  405.82   51.37
   1 -14  12  345.27  104.74
  -1  14 -12  364.40   33.10
   1 -14  13  891.27   82.17
   1 -14  13  878.86  103.53
  -1  14 -13  954.46  106.68
   1 -14  14  746.03   35.60
   1 -14  14  801.06   62.72
  -1  14 -14  736.63   55.07
   1 -14  15  735.87   40.07
   1 -14  15  619.14   70.64
  -1  14 -15  612.69   77.44
   1 -14  16   39.50   24.86
   1 -14  16   58.61   29.15
  -1  14 -16   63.29   19.92
   1 -14  17   30.88   18.23
  -1  14 -17   44.67   25.61
   1 -14  18   86.74   67.10
   1 -14  18  153.99   61.13
  -1  14 -18   97.64   64.28
   1 -14  19   44.78   34.33
  -1  14 -19   81.19   44.48
   1 -13  -9  153.35   56.73
   1 -13  -8  342.22   48.35
   1 -13  -8  454.32   79.93
  -1  13   8  437.22   95.60
   1 -13  -7  279.67   55.23
   1 -13  -7  312.91   58.57
  -1  13   7  210.95   92.39
   1 -13  -6  916.37   46.04
   1 -13  -6  825.42   70.45
  -1  13   6  851.74  120.15
   1 -13  -5  501.30   49.86
  -1  13   5  456.43   66.94
  -1  13   5  491.77   63.71
   1 -13  -4  172.72   44.91
  -1  13   4  140.39   37.53
  -1  13   4  187.65   64.50
   1 -13  -3  188.36   52.89
  -1  13   3  158.17   63.80
  -1  13   3  171.56   82.77
   1 -13  -2 1420.95   70.21
  -1  13   2 1479.74   67.64
  -1  13   2 1432.26  116.37
   1 -13  -1 2932.33  118.26
  -1  13   1 2755.34  123.17
  -1  13   1 2930.00  112.65
   1 -13   0 1855.68   81.79
  -1  13   0 2096.56  154.39
  -1  13   0 1945.62   80.57
   1 -13   1  249.17   18.47
   1 -13   1  275.67   33.79
  -1  13  -1  298.56   41.94
  -1  13  -1  292.07   41.07
   1 -13   2  187.21   48.54
  -1  13  -2  139.43   45.71
  -1  13  -2  139.48   37.84
   1 -13   3 1362.52   68.28
   1 -13   3 1422.43   65.57
  -1  13  -3 1349.99   65.57
  -1  13  -3 1330.21   66.10
   1 -13   4 1565.34   62.55
   1 -13   4 1806.80   79.42
  -1  13  -4 1545.32   70.04
  -1  13  -4 1586.81   74.82
   1 -13   5 1185.21   45.79
   1 -13   5 1247.46   67.51
  -1  13  -5 1176.48   53.24
  -1  13  -5 1191.44   51.86
   1 -13   6   73.78   17.89
   1 -13   6   66.05   38.12
  -1  13  -6  106.67   36.31
  -1  13  -6   70.77   20.85
   1 -13   7  457.65   45.18
   1 -13   7  422.37   68.44
  -1  13  -7  545.93   60.99
  -1  13  -7  432.41   15.68
   1 -13   8  801.83   47.93
   1 -13   8  820.43  100.03
  -1  13  -8  815.23   55.42
   1 -13   9 1090.32   47.03
   1 -13   9 1073.64   48.41
  -1  13  -9 1023.56   57.93
   1 -13  10  381.07   38.64
   1 -13  10  374.03   49.76
  -1  13 -10  532.23   36.21
   1 -13  11   15.05   11.08
   1 -13  11   19.03   19.34
  -1  13 -11   23.61   16.59
   1 -13  12  269.12   36.80
   1 -13  12  256.13   78.94
  -1  13 -12  267.82   61.76
   1 -13  13  932.75   63.99
   1 -13  13 1003.60   62.69
  -1  13 -13 1002.66   62.25
   1 -13  14  965.06   71.38
   1 -13  14  997.10   57.10
  -1  13 -14 1002.11   59.65
   1 -13  15  427.60   33.84
   1 -13  15  411.67   65.68
  -1  13 -15  447.81   80.04
   1 -13  16   39.20   29.73
   1 -13  16   29.20   24.99
  -1  13 -16   27.90   24.97
   1 -13  17   52.90   34.26
   1 -13  17   30.02   34.48
  -1  13 -17  125.51   49.20
   1 -13  18  421.42  117.96
   1 -13  18  372.07  106.67
  -1  13 -19   56.39   28.64
  -1  13 -20  504.08   78.10
   1 -12 -10  533.85   53.15
  -1  12  10  574.09   69.66
   1 -12  -9    7.18   11.70
   1 -12  -9   20.34   16.11
  -1  12   9   19.98   13.82
   1 -12  -8  198.63   45.45
   1 -12  -8  225.60   63.71
  -1  12   8  146.12   62.40
   1 -12  -7  317.68   52.93
   1 -12  -7  299.37   39.91
  -1  12   7  248.64   87.23
   1 -12  -6  642.80   53.67
   1 -12  -6  838.69   49.08
  -1  12   6  746.53   58.58
   1 -12  -5  163.74   45.56
  -1  12   5  121.58   26.57
  -1  12   5   72.15   28.65
   1 -12  -4   12.67   16.45
  -1  12   4   -2.62   14.71
  -1  12   4   14.96   17.66
   1 -12  -3  464.03   28.02
  -1  12   3  530.63   62.06
  -1  12   3  491.29   52.15
   1 -12  -2 2695.63   89.52
   1 -12  -2 2813.14  105.47
  -1  12   2 2824.15  123.43
  -1  12   2 2952.64  108.27
   1 -12  -1 2069.28   73.10
   1 -12  -1 2023.24   74.36
  -1  12   1 1963.94   74.01
  -1  12   1 2070.42   77.60
   1 -12   0 3400.94  106.96
   1 -12   0 2955.91  105.84
  -1  12   0 3388.46  129.44
  -1  12   0 3369.07  105.84
   1 -12   1  538.12   26.81
   1 -12   1  528.47   77.08
  -1  12  -1  574.90   48.48
  -1  12  -1  546.10   27.41
   1 -12   2 1509.43   69.30
   1 -12   2 1562.96   69.88
  -1  12  -2 1708.18   99.45
  -1  12  -2 1628.55   79.82
   1 -12   3  437.70   33.70
   1 -12   3  405.85   23.52
  -1  12  -3  445.69   29.96
  -1  12  -3  458.14   37.02
   1 -12   4   93.06   28.07
   1 -12   4   86.75   26.95
  -1  12  -4  141.42   54.05
  -1  12  -4  119.04   34.18
   1 -12   5 3008.39  108.87
   1 -12   5 2860.11  125.36
  -1  12  -5 3196.18  115.22
  -1  12  -5 3106.43  121.38
   1 -12   6  326.34   18.48
   1 -12   6  345.31   74.80
  -1  12  -6  380.98   31.46
  -1  12  -6  335.98   30.22
   1 -12   7  728.72   70.83
   1 -12   7  658.66   35.06
  -1  12  -7  704.29   42.25
  -1  12  -7  619.20   33.26
   1 -12   8 1468.91   60.67
   1 -12   8 1499.75  123.91
  -1  12  -8 1412.20   64.27
  -1  12  -8 1515.39   58.70
   1 -12   9  472.43   27.81
   1 -12   9  434.25   43.96
  -1  12  -9  454.55  110.75
   1 -12  10   69.74   29.51
   1 -12  10   80.02   33.70
  -1  12 -10   54.25   22.28
   1 -12  11   97.69   26.29
   1 -12  11   63.33   31.87
  -1  12 -11   85.25   25.59
   1 -12  12  669.73   69.61
   1 -12  12  667.10   78.23
  -1  12 -12  687.07   60.81
   1 -12  13 1010.81   91.12
   1 -12  13  966.98   50.78
  -1  12 -13 1004.87   71.76
   1 -12  14  642.35   58.61
   1 -12  14  623.41   89.86
  -1  12 -14  516.27   83.01
   1 -12  15  226.42   49.25
   1 -12  15  243.57   76.49
  -1  12 -15  327.64   82.10
   1 -12  16   53.22   37.51
   1 -12  16   75.23   44.00
  -1  12 -16   63.03   26.10
   1 -12  17  198.95   84.90
   1 -12  17  175.18   69.79
  -1  12 -17  243.69   77.54
   1 -12  18 1120.27   58.92
   1 -12  18  822.72  102.26
  -1  12 -18 1070.42   60.81
   1 -12  19  470.88   76.05
   1 -12  19  580.09   85.19
  -1  12 -19  497.96   66.89
   1 -11 -11  311.55   37.80
  -1  11  11  242.66   79.34
   1 -11 -10  346.57   56.97
   1 -11 -10  423.96   46.97
  -1  11  10  530.45   71.78
   1 -11  -9  173.24   61.74
   1 -11  -9  120.88   38.07
  -1  11   9  166.50   53.78
   1 -11  -8  182.26   51.85
   1 -11  -8  189.72   44.19
  -1  11   8  178.36   84.98
   1 -11  -7  434.89   29.59
   1 -11  -7  525.62   74.70
  -1  11   7  562.74   32.10
   1 -11  -6  509.83   29.27
   1 -11  -6  422.22   38.89
  -1  11   6  488.59   33.40
   1 -11  -5   95.58   36.40
  -1  11   5   66.49   45.12
  -1  11   5   81.20   13.62
  -1  11   5   73.07   25.50
   1 -11  -4   30.03   24.43
  -1  11   4   -3.16   12.02
  -1  11   4   11.18    7.67
  -1  11   4    8.13    6.97
   1 -11  -3  736.43   41.54
   1 -11  -3  731.85   46.35
  -1  11   3  736.01   43.76
  -1  11   3  658.61   90.27
   1 -11  -2 1525.11   58.52
   1 -11  -2 1699.76   69.21
  -1  11   2 1488.62   67.87
  -1  11   2 1743.64   75.75
   1 -11  -1 4313.99  144.31
   1 -11  -1 4321.54  178.64
  -1  11   1 4243.05  149.83
  -1  11   1 4196.66  167.02
   1 -11   0 5076.55  168.51
   1 -11   0 5289.88  195.70
  -1  11   0 4920.69  178.76
  -1  11   0 5088.36  186.22
   1 -11   1   12.29    8.44
   1 -11   1   21.14   16.33
  -1  11  -1    8.49   11.18
  -1  11  -1    4.34    6.80
  -1  11  -1   19.31   17.03
   1 -11   2  342.28   21.87
   1 -11   2  372.12   32.94
  -1  11  -2  355.64   32.00
  -1  11  -2  334.84   30.99
   1 -11   3  255.98   25.88
   1 -11   3  202.85   57.53
  -1  11  -3  272.52   56.87
  -1  11  -3  222.76   26.26
   1 -11   4 1797.27   81.83
   1 -11   4 1874.70   87.02
  -1  11  -4 1740.10   78.69
  -1  11  -4 1807.58   84.53
   1 -11   5  948.60   66.85
   1 -11   5  903.26   51.99
  -1  11  -5  975.45   55.50
  -1  11  -5  933.25   57.65
   1 -11   6  734.88   45.71
   1 -11   6  799.79   47.94
   1 -11   6  830.83   56.35
  -1  11  -6  811.03   46.34
  -1  11  -6  691.06   32.64
   1 -11   7    7.02   10.67
   1 -11   7    6.30   14.28
   1 -11   7    4.39    3.35
  -1  11  -7    3.87    8.49
   1 -11   8  894.46   42.20
   1 -11   8  740.09   72.51
  -1  11  -8  811.53   62.66
  -1  11  -8  876.49   34.83
   1 -11   9  208.72   48.41
   1 -11   9  213.20   65.34
  -1  11  -9  203.95   28.68
   1 -11  10  351.57   43.48
   1 -11  10  357.81   43.61
  -1  11 -10  374.00   35.99
   1 -11  11  479.21   54.22
   1 -11  11  433.38   44.39
  -1  11 -11  440.47   37.39
   1 -11  12  970.58   60.68
   1 -11  12 1013.51   51.38
  -1  11 -12 1085.52   48.40
   1 -11  13  622.93   75.06
   1 -11  13  594.42   71.71
  -1  11 -13  583.28   36.65
   1 -11  14  569.94   41.69
   1 -11  14  530.48   52.44
  -1  11 -14  623.98   51.37
   1 -11  15  217.10   66.22
   1 -11  15  216.48   66.71
  -1  11 -15  182.74   71.66
   1 -11  16   60.22   36.95
  -1  11 -16  105.41   36.80
   1 -11  17  498.14   46.32
   1 -11  18  359.40  112.59
  -1  11 -18  559.16   52.98
  -1  11 -18  540.90   50.41
   1 -11  19  348.67  134.29
  -1  11 -19  491.80   52.68
  -1  11 -19  355.51  114.90
   1 -11  20  598.12   83.36
  -1  11 -20  670.25   77.99
   1 -10 -12  534.53   46.91
  -1  10  12  556.90   72.28
   1 -10 -11  334.25  102.60
  -1  10  11  515.39   51.58
   1 -10 -10  242.48   39.53
   1 -10 -10  243.35   57.07
  -1  10  10  291.52   65.76
   1 -10  -9   81.80   36.46
   1 -10  -9  112.39   29.42
  -1  10   9   63.51   34.39
   1 -10  -8   91.46   25.61
   1 -10  -8  103.95   35.90
  -1  10   8   53.78   22.37
  -1  10   8  110.30   29.78
   1 -10  -7 1861.48   70.33
   1 -10  -7 1870.30   88.09
  -1  10   7 1749.50   71.35
  -1  10   7 2121.42   88.13
   1 -10  -6  163.72   52.13
   1 -10  -6  205.63   43.93
  -1  10   6  193.83   37.08
  -1  10   6  250.24   80.28
   1 -10  -5   92.13   24.00
  -1  10   5   38.62   14.31
  -1  10   5   67.73   19.01
  -1  10   5   32.27   15.40
   1 -10  -4   18.40   16.40
  -1  10   4   22.57   18.02
  -1  10   4   10.09   13.57
  -1  10   4   23.30   17.84
   1 -10  -3  629.60   34.14
   1 -10  -3  675.57   41.36
  -1  10   3  654.02   63.90
  -1  10   3  741.86   98.00
   1 -10  -2 2093.72   78.52
   1 -10  -2 2301.07   93.39
  -1  10   2 2233.54  130.62
  -1  10   2 1974.54   70.60
  -1  10   2 2243.93   90.25
   1 -10  -1   20.47    7.03
   1 -10  -1   11.24    9.25
  -1  10   1   19.89   24.90
  -1  10   1    5.15   12.04
   1 -10   0    3.83    6.05
   1 -10   0   14.90    5.41
  -1  10   0   -0.64   14.53
  -1  10   0    3.36    6.52
  -1  10   0    6.15    6.07
   1 -10   1   51.12   12.65
   1 -10   1   45.52   42.73
  -1  10  -1   19.25   15.30
  -1  10  -1   32.73   10.94
  -1  10  -1   29.64   16.31
   1 -10   2  691.44   37.51
   1 -10   2  641.73   36.61
  -1  10  -2  688.12   40.81
  -1  10  -2  580.06   38.23
  -1  10  -2  682.06   38.57
   1 -10   3 2676.52   37.24
   1 -10   3 2741.90   74.84
  -1  10  -3 2728.87   90.38
  -1  10  -3 2479.92  102.47
  -1  10  -3 2662.64   38.69
   1 -10   4 4123.06  102.95
   1 -10   4 4078.35  105.59
  -1  10  -4 4066.52  107.79
  -1  10  -4 3851.25   93.59
   1 -10   5 1753.77   78.59
   1 -10   5 1969.90   86.61
   1 -10   5 1883.15   82.80
  -1  10  -5 1879.52   81.47
  -1  10  -5 1988.93   87.63
   1 -10   6  481.25   34.97
   1 -10   6  530.87   59.78
   1 -10   6  595.33   47.84
  -1  10  -6  550.66   28.35
  -1  10  -6  509.94   65.60
   1 -10   7    5.18    5.41
   1 -10   7   18.54   11.52
   1 -10   7    7.92    8.80
  -1  10  -7    3.56    5.58
  -1  10  -7    9.88   11.53
   1 -10   8  103.53   20.40
   1 -10   8   71.32   17.99
  -1  10  -8   72.75   22.83
  -1  10  -8   72.44   11.04
   1 -10   9  126.78   25.34
   1 -10   9  129.70   29.16
  -1  10  -9  164.20   61.93
   1 -10  10  190.44   42.00
   1 -10  10  202.64   63.66
  -1  10 -10  273.65   29.02
   1 -10  11  118.17   41.56
   1 -10  11  125.88   42.19
  -1  10 -11  130.85   31.80
   1 -10  12  423.11   33.57
   1 -10  12  466.41   31.75
  -1  10 -12  441.82   25.74
   1 -10  13  931.19   51.67
  -1  10 -13  971.23   43.60
   1 -10  14 1862.59   93.21
  -1  10 -14 1854.07  140.36
  -1  10 -14 1884.40   86.34
   1 -10  15  126.51   47.59
  -1  10 -15  151.93   28.14
  -1  10 -15  186.50   57.32
  -1  10 -16   43.63   23.33
  -1  10 -16   63.62   19.22
   1 -10  17  285.64   33.73
  -1  10 -17  268.83   63.96
  -1  10 -17  339.96   57.43
   1 -10  18  451.45   62.28
  -1  10 -18  409.52   44.21
  -1  10 -18  491.31   51.15
   1 -10  19  195.48   63.11
  -1  10 -19  304.40   34.77
  -1  10 -19  260.07   38.64
   1 -10  20   -5.39   19.17
  -1  10 -20   23.17   13.32
  -1  10 -20   -0.80   11.00
   1  -9 -14   74.23   49.87
  -1   9  14  134.11   61.99
   1  -9 -13   18.90   11.98
  -1   9  13   -2.95   17.33
   1  -9 -12  333.73   46.44
  -1   9  12  284.17   85.97
   1  -9 -11  996.82   59.41
   1  -9 -11  936.66   79.71
  -1   9  11  871.40   84.04
   1  -9 -10  926.80   53.29
   1  -9 -10  987.39   48.09
  -1   9  10  910.88   42.00
  -1   9  10  976.23   52.60
   1  -9  -9  468.75   30.26
   1  -9  -9  470.58   73.15
  -1   9   9  256.67   48.39
  -1   9   9  332.60   93.91
   1  -9  -8   -0.11   10.63
   1  -9  -8   26.09   15.01
  -1   9   8    4.30   12.65
  -1   9   8   19.46   16.41
   1  -9  -7  578.52   32.83
   1  -9  -7  595.84   41.38
  -1   9   7  541.22   30.83
  -1   9   7  637.74   89.91
   1  -9  -6  587.07   31.15
   1  -9  -6  536.31   59.75
  -1   9   6  551.46   33.81
  -1   9   6  670.98   42.30
   1  -9  -5 2770.04   98.72
  -1   9   5 2796.00  117.84
  -1   9   5 2728.63   96.91
  -1   9   5 2493.17  120.12
   1  -9  -4   87.56   20.17
  -1   9   4   75.43   18.76
  -1   9   4   44.45   10.78
  -1   9   4   51.83   21.94
  -1   9   4   73.72   27.69
   1  -9  -3 1958.21   86.34
   1  -9  -3 2101.65   94.22
  -1   9   3 2151.65   99.35
  -1   9   3 1953.18   78.82
  -1   9   3 1987.68  105.71
   1  -9  -2  841.55   24.49
   1  -9  -2  894.23   72.13
  -1   9   2  826.79   45.75
  -1   9   2  756.14   43.45
  -1   9   2  802.91   54.83
   1  -9  -1 1801.51   78.77
   1  -9  -1 1880.85   82.65
  -1   9   1 1974.08   96.49
  -1   9   1 1892.02   77.88
  -1   9   1 1789.91   90.32
   1  -9   0  508.11   34.85
   1  -9   0  558.66   45.83
  -1   9   0  573.06   56.37
  -1   9   0  530.85   34.87
  -1   9   0  561.18   39.01
   1  -9   1  479.04   40.85
   1  -9   1  493.62   38.08
  -1   9  -1  551.15   58.91
  -1   9  -1  487.23   39.56
  -1   9  -1  470.46   32.30
   1  -9   2  696.39   46.86
   1  -9   2  621.88   63.02
  -1   9  -2  725.15   52.23
  -1   9  -2  630.07   43.98
  -1   9  -2  619.74   43.68
   1  -9   3 3053.48   90.63
   1  -9   3 3101.70   83.96
  -1   9  -3 3223.68   95.75
  -1   9  -3 3002.14   79.48
  -1   9  -3 3141.20   79.42
   1  -9   4 4440.70  119.13
   1  -9   4 4362.05  120.74
   1  -9   4 4104.69   99.74
  -1   9  -4 4264.57  144.94
  -1   9  -4 4103.58  105.02
  -1   9  -4 3968.15   96.61
   1  -9   5 1338.29   58.64
   1  -9   5 1483.26   34.22
   1  -9   5 1483.13   73.50
  -1   9  -5 1374.23   56.33
  -1   9  -5 1414.31   83.01
   1  -9   6 1146.28   52.75
   1  -9   6 1104.80   90.45
   1  -9   6 1154.29   63.29
  -1   9  -6 1168.66   55.46
  -1   9  -6 1155.65   59.06
   1  -9   7  519.45   36.49
   1  -9   7  509.34   39.40
  -1   9  -7  477.16   48.34
  -1   9  -7  527.51   40.13
   1  -9   8  274.64   26.14
   1  -9   8  289.75   39.21
  -1   9  -8  284.07   33.41
   1  -9   9    6.00    6.62
   1  -9   9   17.24   12.26
  -1   9  -9   -2.61   16.43
   1  -9  10  540.68   58.78
   1  -9  10  416.86   35.74
  -1   9 -10  491.61   50.62
   1  -9  11   90.74   18.98
  -1   9 -11   86.52   16.49
  -1   9 -11  101.70   27.42
   1  -9  12  261.19   85.38
  -1   9 -12  288.61   55.96
  -1   9 -12  325.43   56.61
   1  -9  13   32.71   25.93
  -1   9 -13   37.31   15.43
  -1   9 -13   12.93   12.00
   1  -9  14   57.00   24.40
  -1   9 -14   49.90   16.13
  -1   9 -14   46.41   15.24
   1  -9  15   19.36   26.28
  -1   9 -15   23.07    9.49
  -1   9 -15    4.92   15.40
   1  -9  16  188.87   61.91
  -1   9 -16  166.58   59.27
  -1   9 -16  133.78   52.51
   1  -9  17  416.13   47.33
  -1   9 -17  267.29   84.31
  -1   9 -17  303.66   75.63
   1  -9  18  720.35   76.04
  -1   9 -18  694.32   91.31
  -1   9 -18  719.69   48.15
   1  -9  19  323.04   34.89
  -1   9 -19  249.52   93.81
   1  -9  20   -8.54   18.82
  -1   9 -20   -0.21   15.06
   1  -8 -15  481.34   57.24
  -1   8  15  478.98   59.11
   1  -8 -14  211.14   74.89
  -1   8  14  206.72   95.10
   1  -8 -13   57.46   15.86
  -1   8  13   72.99   40.05
   1  -8 -12  309.32   47.70
   1  -8 -12  313.04   96.41
  -1   8  12  333.07   57.25
  -1   8  12  331.51   51.09
   1  -8 -11 1715.70  119.87
   1  -8 -11 1635.90  119.20
  -1   8  11 1418.59  113.66
  -1   8  11 1466.25  130.49
   1  -8 -10 1669.35   32.14
   1  -8 -10 1719.76   76.18
  -1   8  10 1715.91   68.34
  -1   8  10 1859.21   87.73
   1  -8  -9   79.37   33.80
   1  -8  -9  107.07   33.44
  -1   8   9   95.12   18.94
  -1   8   9  110.91   46.55
   1  -8  -8   30.31   16.38
   1  -8  -8   13.86   11.99
  -1   8   8    1.33    9.17
  -1   8   8   15.74   10.06
   1  -8  -7  210.17   35.32
   1  -8  -7  222.03   51.34
  -1   8   7  170.13   39.88
  -1   8   7  180.90   48.71
   1  -8  -6  857.56   56.33
   1  -8  -6  939.09   53.97
  -1   8   6  945.65   53.18
  -1   8   6  946.06   56.86
   1  -8  -5 1353.06   66.91
  -1   8   5 1346.10   65.93
  -1   8   5 1337.88   61.68
  -1   8   5 1442.54   98.16
   1  -8  -4  264.24   27.68
  -1   8   4  305.41   54.17
  -1   8   4  211.23   36.37
  -1   8   4  267.14   36.68
  -1   8   4  313.51   72.30
   1  -8  -3  378.85   32.14
   1  -8  -3  452.91   36.27
  -1   8   3  434.04   49.34
  -1   8   3  427.94   28.03
  -1   8   3  449.81   46.52
   1  -8  -2 3818.96  101.28
   1  -8  -2 3864.62  112.50
  -1   8   2 4063.77  116.47
  -1   8   2 3579.34   85.97
  -1   8   2 3882.00   99.73
   1  -8  -1 3747.47   90.78
   1  -8  -1 3771.67  105.08
  -1   8   1 3449.27  104.65
  -1   8   1 3647.06   87.58
  -1   8   1 3537.89   95.81
   1  -8   0 1287.35   55.96
   1  -8   0 1276.88   90.64
  -1   8   0 1380.30   82.10
  -1   8   0 1351.64   56.70
  -1   8   0 1261.82   56.29
   1  -8   1  116.51   24.71
   1  -8   1  118.88   40.05
  -1   8  -1  101.00   31.82
  -1   8  -1   94.19   16.20
  -1   8  -1   98.49   40.63
   1  -8   2  909.46   39.91
   1  -8   2  949.72   46.35
   1  -8   2  902.36   43.83
  -1   8  -2  903.28   54.01
  -1   8  -2  925.10   44.95
  -1   8  -2  885.19   41.72
   1  -8   3 3118.19   92.11
   1  -8   3 3185.35   92.28
  -1   8  -3 3132.03   89.30
  -1   8  -3 3166.72   95.27
  -1   8  -3 3157.02   94.29
   1  -8   4 1659.39   65.13
   1  -8   4 1752.77   63.85
   1  -8   4 1631.62   58.99
  -1   8  -4 1624.80   60.33
  -1   8  -4 1634.82   55.16
  -1   8  -4 1699.49   59.77
   1  -8   5  871.30   21.08
   1  -8   5  903.74   44.34
   1  -8   5  880.33   38.43
  -1   8  -5  848.75   57.56
  -1   8  -5  864.92   22.30
  -1   8  -5  856.04   20.67
   1  -8   6  995.45   43.01
   1  -8   6  999.63   48.35
   1  -8   6  989.09   46.63
  -1   8  -6  984.25   41.11
  -1   8  -6 1020.45   48.97
   1  -8   7  687.24   72.04
   1  -8   7  626.44   40.44
  -1   8  -7  647.48   68.74
  -1   8  -7  554.90   26.44
  -1   8  -7  617.30   29.95
   1  -8   8  256.23   57.34
   1  -8   8  244.07   55.98
  -1   8  -8  214.00   59.93
   1  -8   9 1460.54   68.69
  -1   8  -9 1468.36   69.69
   1  -8  10  351.64   36.88
  -1   8 -10  277.13   51.46
  -1   8 -10  261.12   30.81
   1  -8  11  165.88   49.65
  -1   8 -11  204.85   41.76
  -1   8 -11  189.39   42.19
   1  -8  12    7.96   13.45
  -1   8 -12   20.12   12.66
  -1   8 -12    8.51    7.66
   1  -8  13  149.83   47.57
  -1   8 -13  143.81   62.39
   1  -8  14   91.46   38.51
  -1   8 -14   72.56   21.57
  -1   8 -14   97.99   23.87
   1  -8  15   28.96   27.05
  -1   8 -15   -4.53   21.74
  -1   8 -15   38.45   20.48
   1  -8  16   25.63   19.48
  -1   8 -16   38.88   20.91
  -1   8 -16   23.48   12.11
   1  -8  17  383.52   45.13
  -1   8 -17  354.10   47.03
  -1   8 -17  264.76   72.13
   1  -8  18  613.77   50.39
  -1   8 -18  608.56   95.10
  -1   8 -18  553.46   29.54
   1  -8  19  700.04   85.84
  -1   8 -19  728.25   64.71
  -1   8 -19  657.09   45.38
   1  -8  20   63.56   31.54
  -1   8 -20   36.32   19.97
   1  -7 -16  485.93   56.09
  -1   7  16  305.85  135.10
   1  -7 -15  302.14   67.26
  -1   7  15  326.54   32.95
   1  -7 -14  280.40   33.44
  -1   7  14  181.97   46.98
  -1   7  14  202.81   83.68
   1  -7 -13  686.61   31.81
   1  -7 -13  597.56   57.21
  -1   7  13  654.77   91.71
  -1   7  13  623.54   54.04
   1  -7 -12  717.45   25.47
   1  -7 -12  651.09   85.98
  -1   7  12  728.40   36.67
  -1   7  12  662.75   78.54
   1  -7 -11 3630.76  140.24
   1  -7 -11 3560.37  152.86
  -1   7  11 3669.59  137.91
  -1   7  11 3623.13  151.49
   1  -7 -10 2199.76   84.28
   1  -7 -10 2328.52   97.90
  -1   7  10 2286.93   89.39
  -1   7  10 2187.29   97.59
   1  -7  -9  363.88   22.72
   1  -7  -9  430.86   76.72
  -1   7   9  314.21   42.37
  -1   7   9  397.82   30.60
   1  -7  -8  256.84   50.46
   1  -7  -8  246.28   57.23
  -1   7   8  214.05   49.37
  -1   7   8  223.07   20.15
   1  -7  -7  473.37   41.04
   1  -7  -7  515.56   47.69
  -1   7   7  552.58   47.78
  -1   7   7  509.44   50.54
   1  -7  -6   -7.51    8.01
   1  -7  -6   22.13    5.68
  -1   7   6    7.14    8.29
  -1   7   6   16.01    9.75
   1  -7  -5 1858.11  103.52
  -1   7   5 1627.42   72.79
  -1   7   5 1860.69   83.18
  -1   7   5 1900.62   83.53
   1  -7  -4  209.19   35.26
  -1   7   4   98.10   80.10
  -1   7   4  137.31   16.01
  -1   7   4  131.28   27.96
  -1   7   4  166.12   41.84
   1  -7  -3 1457.66   64.69
   1  -7  -3 1476.96   63.15
  -1   7   3 1500.62   88.15
  -1   7   3 1547.76   67.26
  -1   7   3 1659.71   74.02
   1  -7  -2 2115.41   70.62
   1  -7  -2 2034.92   86.86
  -1   7   2 2156.43   87.83
  -1   7   2 2045.92   67.73
  -1   7   2 2059.11   77.64
   1  -7  -1  322.65   25.46
   1  -7  -1  373.47   39.10
  -1   7   1  370.00   61.76
  -1   7   1  357.72   18.79
  -1   7   1  287.46   30.74
   1  -7   0  615.77   33.17
   1  -7   0  702.64   20.46
  -1   7   0  663.79   47.10
  -1   7   0  672.13   32.91
  -1   7   0  695.43   44.28
   1  -7   1 1183.69   47.96
   1  -7   1 1174.91   50.47
   1  -7   1 1222.59   62.68
  -1   7  -1 1140.62   49.88
  -1   7  -1 1278.29   59.20
  -1   7  -1 1218.71   50.98
   1  -7   2 2190.17   63.63
   1  -7   2 2231.57   72.31
   1  -7   2 2134.41   80.08
  -1   7  -2 2281.49   80.31
  -1   7  -2 2065.23   67.71
  -1   7  -2 2123.68   68.36
   1  -7   3 1130.87   45.78
   1  -7   3 1155.36   49.50
   1  -7   3 1345.03   57.28
  -1   7  -3 1156.46   50.39
  -1   7  -3 1178.85   48.32
  -1   7  -3 1099.44   48.70
   1  -7   4  838.53   43.48
   1  -7   4  756.46   38.49
   1  -7   4  806.62   37.71
  -1   7  -4  762.62   37.46
  -1   7  -4  824.82   34.84
  -1   7  -4  847.37   38.66
   1  -7   5  367.98   28.58
   1  -7   5  346.49   33.27
   1  -7   5  343.56   18.72
  -1   7  -5  393.30   42.00
  -1   7  -5  375.99   20.13
  -1   7  -5  349.71   25.31
   1  -7   6   16.78   16.19
   1  -7   6   17.10   17.03
  -1   7  -6   15.19    9.62
  -1   7  -6   38.23    7.56
   1  -7   7  675.77   39.85
   1  -7   7  614.43   56.94
  -1   7  -7  630.67   44.53
   1  -7   8  795.58   78.18
  -1   7  -8  828.57   69.30
  -1   7  -8  877.82   30.35
   1  -7   9 1407.95   79.42
  -1   7  -9 1283.95   92.78
  -1   7  -9 1289.95   65.52
   1  -7  10  885.49   56.02
  -1   7 -10  770.96   58.90
  -1   7 -10  816.77   47.92
   1  -7  11   19.15   10.08
  -1   7 -11   43.38   18.15
  -1   7 -11   29.86   18.64
   1  -7  12   28.51   12.12
  -1   7 -12   22.55   10.35
  -1   7 -12   24.89    7.85
   1  -7  13 1185.58   64.77
  -1   7 -13 1293.79   81.23
  -1   7 -13 1159.51   52.08
   1  -7  14  193.74   54.94
  -1   7 -14  152.10   43.99
  -1   7 -14  201.18   51.14
   1  -7  15  109.82   44.30
  -1   7 -15   29.88   25.66
  -1   7 -15   79.26   20.73
   1  -7  16   15.35   15.32
  -1   7 -16    1.92   15.49
  -1   7 -16    8.18   10.77
   1  -7  17  382.18   49.17
  -1   7 -17  409.09   59.68
  -1   7 -17  270.32   59.22
   1  -7  18  641.84   90.60
  -1   7 -18  684.00   64.42
  -1   7 -18  708.64   40.29
   1  -7  19  487.09  122.71
  -1   7 -19  482.79   57.43
   1  -7  20  330.58   39.88
  -1   7 -20  207.27   80.92
  -1   6  17  164.21  100.76
   1  -6 -16  135.15   60.35
  -1   6  16   83.15   42.78
  -1   6  16  120.83   73.39
  -1   6  15   28.00   13.36
  -1   6  15   65.07   22.78
   1  -6 -14  217.89   21.22
  -1   6  14  163.81   57.02
  -1   6  14  172.21   64.22
   1  -6 -13  744.85   33.80
   1  -6 -13  643.78   45.99
  -1   6  13  777.78   88.48
  -1   6  13  817.14   73.68
   1  -6 -12  838.59   49.46
   1  -6 -12 1077.57   60.19
  -1   6  12 1026.31   65.24
  -1   6  12  959.06   54.23
   1  -6 -11 2278.46  101.27
   1  -6 -11 2470.72  103.97
  -1   6  11 2462.72  116.13
  -1   6  11 2302.27  158.66
   1  -6 -10 1119.69   57.88
   1  -6 -10  966.73   69.06
  -1   6  10  989.43   58.33
  -1   6  10  958.40   64.99
   1  -6  -9   93.64   30.79
   1  -6  -9  137.38   33.55
  -1   6   9  101.43   30.41
  -1   6   9  128.05   21.04
   1  -6  -8   11.96    6.63
   1  -6  -8   12.38    7.04
  -1   6   8    3.66    8.47
  -1   6   8   -3.55   13.38
   1  -6  -7  405.62   30.71
   1  -6  -7  435.80   45.61
  -1   6   7  491.88   37.41
  -1   6   7  524.55   54.24
   1  -6  -6 2122.75   90.21
   1  -6  -6 2272.37   97.96
  -1   6   6 2273.01   99.40
  -1   6   6 2281.54  100.76
   1  -6  -5  337.47   33.88
   1  -6  -5  431.98   54.50
  -1   6   5  344.08   14.84
  -1   6   5  336.67   24.90
  -1   6   5  426.67   52.96
   1  -6  -4  111.00   33.56
  -1   6   4   91.48   26.72
  -1   6   4   75.82   11.87
  -1   6   4   71.77   18.00
  -1   6   4   81.51   39.49
   1  -6  -3 1576.31   52.60
   1  -6  -3 1598.53   56.24
  -1   6   3 1466.48   57.53
  -1   6   3 1534.74   50.99
  -1   6   3 1547.38   56.53
   1  -6  -2 2227.69   66.02
   1  -6  -2 2044.54   78.44
  -1   6   2 2205.93   69.82
  -1   6   2 2119.21   68.05
  -1   6   2 2309.00   72.37
   1  -6  -1   -0.27    3.88
   1  -6  -1   20.31    8.31
   1  -6  -1    3.95    8.09
  -1   6   1    8.19    9.66
  -1   6   1   22.44   12.30
  -1   6   1   10.58    5.51
   1  -6   0  538.76   23.43
   1  -6   0  537.98   24.90
   1  -6   0  509.82   22.82
  -1   6   0  483.09   23.81
  -1   6   0  518.07   24.55
  -1   6   0  529.33   21.07
   1  -6   1   86.05   19.58
   1  -6   1   66.62   23.69
   1  -6   1   65.90    7.21
   1  -6   1   70.68   17.01
  -1   6  -1   54.30   19.97
  -1   6  -1   62.29   21.84
  -1   6  -1   71.13   10.84
   1  -6   2 2553.93   73.93
   1  -6   2 2459.80   77.55
   1  -6   2 2543.85   74.88
  -1   6  -2 2504.15   75.12
  -1   6  -2 2519.20   73.68
  -1   6  -2 2539.89   79.24
   1  -6   3 6501.28  112.91
   1  -6   3 6663.40  119.23
   1  -6   3 6515.95  104.30
  -1   6  -3 6437.67  121.02
  -1   6  -3 6539.30  107.99
  -1   6  -3 6445.61  106.63
   1  -6   4 6385.96  108.91
   1  -6   4 6077.80  109.15
   1  -6   4 6475.89  102.26
  -1   6  -4 6763.15  117.31
  -1   6  -4 6678.97  106.68
  -1   6  -4 6376.16  109.80
   1  -6   5 5571.57   94.11
   1  -6   5 5395.66   84.17
  -1   6  -5 5558.29   86.93
  -1   6  -5 5265.26   90.21
   1  -6   6   44.20   14.53
  -1   6  -6   60.82   14.64
  -1   6  -6   30.52   13.44
  -1   6  -6   43.75   10.16
   1  -6   7 1765.38   66.10
  -1   6  -7 1726.26   67.32
  -1   6  -7 1877.12   71.17
   1  -6   8 2090.58  101.79
  -1   6  -8 2193.27   95.86
  -1   6  -8 2097.38   92.39
   1  -6   9 2457.64  109.08
  -1   6  -9 2810.00  103.36
  -1   6  -9 2564.78  123.90
   1  -6  10 1980.24   87.74
  -1   6 -10 2049.65   89.34
  -1   6 -10 2037.30   89.25
   1  -6  11  554.41   59.18
  -1   6 -11  554.28   34.05
  -1   6 -11  438.62   43.03
  -1   6 -11  411.79   25.17
   1  -6  12  736.15   53.30
   1  -6  12  576.91   38.00
  -1   6 -12  662.94   24.94
  -1   6 -12  696.14   43.78
  -1   6 -12  564.51   37.59
   1  -6  13 1932.94   85.25
   1  -6  13 1740.99   68.67
  -1   6 -13 1866.41   85.21
  -1   6 -13 1865.98   97.28
   1  -6  14    7.75    9.74
  -1   6 -14   14.55    7.71
  -1   6 -14   12.63    5.68
   1  -6  15    4.14   16.91
  -1   6 -15   16.83   16.74
  -1   6 -15   22.73   22.34
   1  -6  16   14.87   15.20
  -1   6 -16   14.05   11.50
  -1   6 -16   29.93   18.59
   1  -6  17  263.00   38.91
  -1   6 -17  234.75   68.90
  -1   6 -17  264.49   48.50
   1  -6  18  329.37  105.08
  -1   6 -18  365.69   42.57
  -1   6 -18  284.44   40.78
   1  -6  19  463.09   91.25
  -1   6 -19  619.28   80.46
   1  -6  20   21.21   20.60
  -1   6 -20   56.93   24.28
  -1   5  18   67.28   30.36
  -1   5  18   40.96   20.98
   1  -5 -17   72.33   37.04
  -1   5  17  172.48   62.56
  -1   5  17   95.23   74.14
   1  -5 -16  470.73  105.74
  -1   5  16  554.41   43.91
  -1   5  16  558.01   46.36
   1  -5 -15  234.72   82.79
  -1   5  15  167.11   65.04
  -1   5  15  278.55   40.58
   1  -5 -14  130.53   36.91
   1  -5 -14  114.79   36.65
  -1   5  14   95.43   32.60
  -1   5  14  137.68   39.82
   1  -5 -13  379.26   35.93
   1  -5 -13  472.90   48.32
  -1   5  13  321.68   47.88
  -1   5  13  278.56   69.42
   1  -5 -12 1403.98   85.90
   1  -5 -12 1479.00   89.77
  -1   5  12 1396.54   93.45
  -1   5  12 1341.87   85.07
   1  -5 -11 1562.80   61.76
   1  -5 -11 1555.00   70.91
  -1   5  11 1490.14   70.11
  -1   5  11 1504.56  100.29
   1  -5 -10  654.39   33.30
   1  -5 -10  807.18   62.89
  -1   5  10  710.99   41.57
  -1   5  10  641.04   46.89
   1  -5  -9  620.09   44.51
   1  -5  -9  630.85   70.01
  -1   5   9  646.54   49.86
  -1   5   9  620.27   48.42
   1  -5  -8   55.94   12.57
   1  -5  -8   71.48   16.40
  -1   5   8   34.53   19.12
  -1   5   8   48.56   16.45
   1  -5  -7  694.28   47.35
   1  -5  -7  656.72   74.64
  -1   5   7  658.59   51.52
  -1   5   7  665.01   48.76
   1  -5  -6 2863.56   74.18
   1  -5  -6 2971.87   90.45
  -1   5   6 2649.34   43.33
  -1   5   6 2927.94   74.96
  -1   5   6 2953.06   80.48
   1  -5  -5 1791.41   60.90
   1  -5  -5 1857.07   71.73
  -1   5   5 1688.74   57.87
  -1   5   5 1764.84   60.89
   1  -5  -4  210.53   14.56
  -1   5   4  272.12   32.26
  -1   5   4  229.17   14.75
  -1   5   4  237.03   29.69
  -1   5   4  244.08   57.33
   1  -5  -3  535.98   30.69
   1  -5  -3  578.96   26.62
  -1   5   3  539.64   26.62
  -1   5   3  552.33   25.89
  -1   5   3  527.42   21.46
  -1   5   3  573.71   41.83
   1  -5  -2  330.45   20.50
   1  -5  -2  321.47   18.75
   1  -5  -2  301.53   14.86
   1  -5  -2  286.42   17.69
  -1   5   2  359.04   36.65
  -1   5   2  294.28   10.67
  -1   5   2  305.59   28.40
  -1   5   2  313.85   21.03
   1  -5  -1  895.90   31.67
   1  -5  -1  928.83   35.69
   1  -5  -1  988.08   40.94
   1  -5  -1  872.24   32.12
  -1   5   1  918.79   39.03
  -1   5   1  917.34   30.36
  -1   5   1  900.85   45.84
  -1   5   1  974.90   35.28
   1  -5   0  133.92    9.26
   1  -5   0  124.23   24.35
   1  -5   0  173.55   38.13
   1  -5   0  127.79   24.59
  -1   5   0  157.12   34.83
  -1   5   0  147.76    9.96
  -1   5   0  126.76   16.51
  -1   5   0  133.48   12.15
   1  -5   1  502.01   18.91
   1  -5   1  552.81   22.52
   1  -5   1  505.21   24.01
   1  -5   1  520.94   20.88
  -1   5  -1  528.22   25.54
  -1   5  -1  554.39   23.78
  -1   5  -1  537.08   32.64
  -1   5  -1  536.71   21.56
   1  -5   2 3930.42   81.62
   1  -5   2 4005.59   37.06
   1  -5   2 3970.76   92.82
   1  -5   2 3947.21   83.26
  -1   5  -2 4070.05   57.09
  -1   5  -2 3958.06   81.51
  -1   5  -2 3955.02   82.37
  -1   5  -2 3956.11   84.77
   1  -5   3 7070.45   69.73
   1  -5   3 7097.83   74.28
   1  -5   3 7165.18   64.20
   1  -5   3 7186.72   78.67
  -1   5  -3 7028.59   77.66
  -1   5  -3 7281.29   63.27
  -1   5  -3 7034.54   65.21
   1  -5   4 7642.46  124.44
   1  -5   4 7577.84  117.14
  -1   5  -4 7545.74  116.70
  -1   5  -4 7825.96  127.40
   1  -5   5 3595.10   74.19
   1  -5   5 3673.87   74.78
  -1   5  -5 3606.76   72.55
  -1   5  -5 3738.11   73.33
  -1   5  -5 3426.16   74.87
   1  -5   6  399.40   20.74
   1  -5   6  429.59   35.50
  -1   5  -6  380.22   21.86
  -1   5  -6  414.48   47.48
  -1   5  -6  404.96   28.79
   1  -5   7  731.82   40.61
  -1   5  -7  751.61   52.47
  -1   5  -7  692.37   35.96
   1  -5   8 5639.96  109.49
  -1   5  -8 5441.94  113.27
  -1   5  -8 5671.11  104.46
   1  -5   9 3150.79  100.88
  -1   5  -9 3022.70   87.06
  -1   5  -9 3164.53   92.79
  -1   5  -9 2847.67   66.63
   1  -5  10 3677.66  109.08
   1  -5  10 3385.09   78.28
  -1   5 -10 3507.60   96.40
  -1   5 -10 3582.60  110.64
   1  -5  11   23.81   11.89
   1  -5  11    1.34    3.16
  -1   5 -11    9.87    9.93
  -1   5 -11   23.79   13.75
  -1   5 -11   -0.31    3.28
   1  -5  12 1030.73   62.20
   1  -5  12  887.16   47.24
  -1   5 -12 1011.26   56.19
  -1   5 -12  940.08   54.36
   1  -5  13 2554.34  131.60
   1  -5  13 2417.09   84.58
  -1   5 -13 2415.19   86.45
  -1   5 -13 2360.74  119.87
   1  -5  14  206.14   43.62
   1  -5  14  165.75   19.40
  -1   5 -14  126.43   35.75
  -1   5 -14  155.80   44.50
   1  -5  15   31.55   29.05
  -1   5 -15    9.28   10.96
  -1   5 -15   -8.19    9.84
   1  -5  16  277.80   68.80
  -1   5 -16  288.95   37.11
  -1   5 -16  238.44   33.59
   1  -5  17  800.67   67.58
  -1   5 -17 1034.92   56.80
  -1   5 -17  832.59   58.59
   1  -5  18  856.02   89.29
  -1   5 -18  828.09   87.88
   1  -5  19  450.54   61.77
  -1   5 -19  473.34   82.94
  -1   5 -20   15.30   14.36
  -1   4  19   33.78   17.25
   1  -4 -18   16.79   10.22
  -1   4  18   -2.25    6.80
  -1   4  18    1.46   14.63
   1  -4 -17   27.15   20.31
  -1   4  17   35.39   26.96
  -1   4  17   24.81   19.17
   1  -4 -16  953.00   85.65
  -1   4  16  925.54   55.28
  -1   4  16  844.39   47.60
   1  -4 -15   71.14   28.95
   1  -4 -15   88.36   40.80
  -1   4  15   60.58   19.27
  -1   4  15   61.91   41.32
   1  -4 -14    2.50    7.09
   1  -4 -14   11.60   13.00
  -1   4  14    7.34    9.43
  -1   4  14   13.96   17.85
   1  -4 -13  129.16   35.14
   1  -4 -13  147.19   53.53
  -1   4  13  105.62   29.39
  -1   4  13  161.06   55.61
   1  -4 -12 1654.60   80.78
   1  -4 -12 1736.52   76.03
  -1   4  12 1856.44  104.90
  -1   4  12 1607.44   71.68
   1  -4 -11 1343.46   58.00
   1  -4 -11 1325.74   84.99
  -1   4  11 1229.19   65.30
  -1   4  11 1241.90   79.69
   1  -4 -10 1549.96   77.29
   1  -4 -10 1388.03   66.16
  -1   4  10 1500.99   73.55
  -1   4  10 1493.65   70.45
   1  -4  -9  700.81   37.62
   1  -4  -9  761.14   55.96
  -1   4   9  746.54   59.54
  -1   4   9  721.21   41.32
   1  -4  -8  964.68   55.04
   1  -4  -8 1116.75   69.76
  -1   4   8 1004.26   61.99
  -1   4   8  936.24   57.11
   1  -4  -7 3973.04   99.19
   1  -4  -7 4240.96  110.38
  -1   4   7 4311.20  107.95
  -1   4   7 4140.18  113.82
   1  -4  -6 2193.96   67.66
   1  -4  -6 1884.08   74.46
  -1   4   6 1848.00   64.63
  -1   4   6 1992.84   70.00
  -1   4   6 2035.60   92.25
   1  -4  -5  108.24   30.03
   1  -4  -5  110.50   27.85
   1  -4  -5  144.99   26.98
  -1   4   5  117.53   24.12
  -1   4   5   97.49   21.60
  -1   4   5   94.80   17.32
   1  -4  -4   67.56   18.31
   1  -4  -4   74.72   25.49
   1  -4  -4   74.15   15.86
  -1   4   4   64.66   12.35
  -1   4   4   76.35   16.91
  -1   4   4   74.81   17.51
   1  -4  -3  622.41   31.57
   1  -4  -3  557.13   22.86
   1  -4  -3  574.60   35.04
  -1   4   3  539.22   26.01
  -1   4   3  605.37   23.10
  -1   4   3  613.31   25.62
  -1   4   3  618.90   26.62
  -1   4   3  599.79   25.94
   1  -4  -2 2308.49   48.45
   1  -4  -2 2340.28   53.86
   1  -4  -2 2275.46   50.94
   1  -4  -2 2305.11   58.56
  -1   4   2 2404.94   70.20
  -1   4   2 2206.25   49.05
  -1   4   2 2350.41   61.79
  -1   4   2 2402.39   55.65
   1  -4  -1 1579.48   45.31
   1  -4  -1 1539.79   33.01
   1  -4  -1 1621.59   43.23
  -1   4   1 1560.03   60.44
  -1   4   1 1565.55   37.94
  -1   4   1 1615.85   42.91
   1  -4   0 1107.17   34.43
   1  -4   0 1064.22   36.31
   1  -4   0 1067.01   36.77
   1  -4   0 1032.00   35.97
  -1   4   0 1091.57   40.07
  -1   4   0 1046.46   34.05
  -1   4   0  999.82   35.30
  -1   4   0 1072.48   35.71
   1  -4   1   90.59   10.81
   1  -4   1   69.18   17.19
   1  -4   1  110.95   26.63
   1  -4   1   95.96   23.63
  -1   4  -1   49.78   30.92
  -1   4  -1   81.52   11.95
  -1   4  -1   89.58   22.33
  -1   4  -1   97.45   26.24
   1  -4   2 2559.53   53.66
   1  -4   2 2669.27   61.75
   1  -4   2 2753.91   60.63
   1  -4   2 2729.94   56.12
  -1   4  -2 2523.62   60.73
  -1   4  -2 2596.11   54.63
  -1   4  -2 2773.22   58.84
  -1   4  -2 2646.12   58.87
   1  -4   3 1374.48   50.14
   1  -4   3 1452.10   55.91
   1  -4   3 1495.77   22.06
   1  -4   3 1422.48   47.12
   1  -4   3 1436.44   44.33
  -1   4  -3 1441.34   54.14
  -1   4  -3 1480.73   10.72
  -1   4  -3 1445.65   45.22
   1  -4   4 4193.89   55.46
   1  -4   4 4082.83   44.74
   1  -4   4 4212.21   46.35
  -1   4  -4 4244.26   51.86
  -1   4  -4 4285.81   58.76
  -1   4  -4 4043.70   32.93
   1  -4   5   63.23   24.02
   1  -4   5   67.42   23.53
   1  -4   5   52.03   10.39
  -1   4  -5   39.07   34.79
  -1   4  -5   81.60   27.78
  -1   4  -5   70.88   21.32
   1  -4   6 1772.63   53.91
   1  -4   6 1842.02   61.68
  -1   4  -6 1714.10   61.70
  -1   4  -6 1823.90   57.74
  -1   4  -6 1733.48   54.95
   1  -4   7  345.91   10.20
   1  -4   7  369.12   19.64
   1  -4   7  426.38   32.68
  -1   4  -7  340.63   21.35
  -1   4  -7  350.70   33.10
   1  -4   8 5986.47   99.41
   1  -4   8 5789.84  101.63
   1  -4   8 6179.57  116.54
  -1   4  -8 5885.33  118.84
  -1   4  -8 5736.33  106.47
   1  -4   9 5373.68  124.99
   1  -4   9 5487.14  137.21
  -1   4  -9 5471.05  135.77
  -1   4  -9 5094.75  118.83
   1  -4  10  448.34   48.29
   1  -4  10  367.79   19.38
  -1   4 -10  360.60   21.48
  -1   4 -10  365.90   26.72
  -1   4 -10  341.84   13.94
   1  -4  11  153.49   34.87
   1  -4  11  146.67   19.52
  -1   4 -11  146.25   20.06
  -1   4 -11  189.67   50.11
  -1   4 -11  129.71   24.05
   1  -4  12   11.25   13.52
   1  -4  12    3.14    5.48
  -1   4 -12   -1.00    7.94
  -1   4 -12   20.04    9.54
   1  -4  13  183.18   68.07
   1  -4  13  208.08   29.51
  -1   4 -13  190.69   23.97
  -1   4 -13  162.21   40.35
   1  -4  14  965.28   58.92
   1  -4  14 1124.71   56.06
  -1   4 -14 1032.31   61.43
  -1   4 -14  978.40   78.73
   1  -4  15   47.00   21.75
   1  -4  15   84.28   18.65
  -1   4 -15   51.60   28.49
  -1   4 -15  109.59   24.91
   1  -4  16  155.03   61.92
  -1   4 -16  106.49   26.50
  -1   4 -16  112.93   27.89
   1  -4  17  499.31   47.75
  -1   4 -17  412.30   64.70
  -1   4 -17  391.60   25.86
   1  -4  18  266.70  115.93
  -1   4 -18  409.98   39.11
   1  -4  19  314.81   90.04
  -1   4 -19  404.52   58.84
  -1   4 -20   13.64   15.14
  -1   3  19   -1.85   11.97
   1  -3 -18   15.14   15.67
  -1   3  18    6.54   16.62
  -1   3  18   16.72   24.23
   1  -3 -17  139.28   35.85
  -1   3  17  143.82   51.13
  -1   3  17  142.15   45.21
   1  -3 -16  848.24   72.80
  -1   3  16  909.46   70.25
  -1   3  16  825.25   63.20
   1  -3 -15  571.16   24.84
   1  -3 -15  608.74   47.94
  -1   3  15  555.29   48.55
  -1   3  15  626.84   72.95
   1  -3 -14  108.97   23.56
   1  -3 -14   86.17   24.17
  -1   3  14   74.79   20.92
  -1   3  14   73.43   27.32
   1  -3 -13  193.55   56.18
   1  -3 -13  238.14   64.22
  -1   3  13  171.48   61.34
  -1   3  13  209.55   82.06
   1  -3 -12 1437.98   62.94
   1  -3 -12 1408.22   62.09
  -1   3  12 1491.26   74.20
  -1   3  12 1316.98   89.94
   1  -3 -11  213.34   24.39
   1  -3 -11  196.55   57.21
  -1   3  11  207.23   59.72
  -1   3  11  193.91   43.12
   1  -3 -10 1670.94   71.02
   1  -3 -10 1721.20   76.72
  -1   3  10 1567.81   69.24
  -1   3  10 1599.73   74.43
   1  -3  -9  127.96   34.09
   1  -3  -9   78.89   23.82
  -1   3   9   82.81   24.24
  -1   3   9   87.54   37.67
   1  -3  -8 2094.76   93.81
   1  -3  -8 2313.84  111.67
  -1   3   8 2332.86  101.82
  -1   3   8 2184.58  132.47
   1  -3  -7 2518.16   77.78
   1  -3  -7 2874.07   89.33
  -1   3   7 2591.54   77.36
  -1   3   7 2679.18   81.33
   1  -3  -612002.61  204.89
   1  -3  -612151.56  204.37
   1  -3  -612620.76   73.87
  -1   3   612386.36   61.92
  -1   3   612279.56   76.00
   1  -3  -5 1710.29   66.48
   1  -3  -5 1829.95   56.54
   1  -3  -5 1650.10   54.54
  -1   3   5 1606.87   52.34
  -1   3   5 1534.76   48.35
  -1   3   5 1659.79   83.33
   1  -3  -4  962.08   34.51
   1  -3  -4  934.76   34.12
   1  -3  -4  936.34   37.05
   1  -3  -4 1003.57   36.86
  -1   3   4  936.68   38.63
  -1   3   4  963.30   35.91
  -1   3   4  971.81   37.53
  -1   3   4  975.47   34.68
   1  -3  -3 1163.98   38.03
   1  -3  -3 1127.94   45.81
   1  -3  -3 1190.01   39.28
   1  -3  -3 1138.11   38.54
  -1   3   3 1153.55   37.26
  -1   3   3 1168.42   37.07
  -1   3   3 1262.87   44.34
  -1   3   3 1155.46   38.52
   1  -3  -2 1560.88   37.35
   1  -3  -2 1609.42   38.07
   1  -3  -2 1713.81   43.74
  -1   3   2 1625.02   38.67
  -1   3   2 1606.45   34.29
  -1   3   2 1636.45   36.41
  -1   3   2 1646.06   38.94
  -1   3   2 1675.79   39.58
   1  -3  -1 3188.98   63.38
   1  -3  -1 3299.87   71.87
   1  -3  -1 3229.92   67.47
   1  -3  -1 3170.27   66.68
  -1   3   1 3369.36   70.96
  -1   3   1 3362.09   76.47
  -1   3   1 3350.87   77.90
   1  -3   0 1622.86   32.87
   1  -3   0 1605.56   40.47
   1  -3   0 1590.55   36.98
   1  -3   0 1652.69   43.02
  -1   3   0 1607.74   39.21
  -1   3   0 1516.86   31.08
  -1   3   0 1563.42   34.86
  -1   3   0 1622.30   37.07
   1  -3   1 1298.37   39.96
   1  -3   1 1329.14   42.97
   1  -3   1 1396.63   45.03
   1  -3   1 1391.35   42.82
  -1   3  -1 1443.11   45.73
  -1   3  -1 1292.40   39.41
  -1   3  -1 1378.23   43.30
  -1   3  -1 1370.62   44.65
   1  -3   2 4563.21   56.53
   1  -3   2 4527.56   45.63
   1  -3   2 4478.55   38.26
  -1   3  -2 4623.10   49.28
  -1   3  -2 4385.36   40.12
  -1   3  -2 4625.99   46.10
   1  -3   3 9270.27   83.64
   1  -3   3 9568.94   90.84
  -1   3  -3 9543.58   88.81
  -1   3  -3 9224.54   84.82
  -1   3  -3 9430.17   88.94
   1  -3   4   32.74   15.68
   1  -3   4   45.44   17.73
   1  -3   4   44.96   15.64
  -1   3  -4   39.87   22.21
  -1   3  -4   44.14    9.65
  -1   3  -4   21.70   11.10
   1  -3   5 1316.60   45.31
   1  -3   5 1266.95   42.66
   1  -3   5 1252.36   38.37
   1  -3   5 1353.56   44.88
  -1   3  -5 1395.28   45.22
  -1   3  -5 1274.70   42.32
  -1   3  -5 1320.53   44.82
  -1   3  -5 1252.70   38.65
   1  -3   6  561.37   30.10
   1  -3   6  560.19   24.08
   1  -3   6  515.52   18.60
   1  -3   6  544.86   33.21
  -1   3  -6  547.30   22.02
  -1   3  -6  479.18   23.03
  -1   3  -6  565.54   29.64
  -1   3  -6  509.19   20.35
   1  -3   7 1657.25   47.79
   1  -3   7 1744.24   51.85
   1  -3   7 1686.15   53.46
  -1   3  -7 1562.80   52.29
  -1   3  -7 1598.26   56.38
  -1   3  -7 1791.38   52.74
   1  -3   8  932.39   38.01
   1  -3   8 1002.85   41.25
   1  -3   8  961.01   43.57
  -1   3  -8  966.90   43.24
  -1   3  -8 1036.33   45.12
  -1   3  -8 1015.51   45.66
   1  -3   9  286.75   31.60
   1  -3   9  333.96   24.25
   1  -3   9  319.25   24.16
  -1   3  -9  310.32   35.26
  -1   3  -9  262.55   13.33
  -1   3  -9  276.50   11.78
   1  -3  10  387.49   46.08
   1  -3  10  327.55   27.01
  -1   3 -10  283.68   17.12
  -1   3 -10  438.92   76.03
  -1   3 -10  301.48   18.35
   1  -3  11  394.12   46.17
   1  -3  11  402.71   32.35
  -1   3 -11  377.37   27.91
  -1   3 -11  377.09   55.17
  -1   3 -11  429.27   44.49
   1  -3  12  621.14   51.46
   1  -3  12  546.16   45.48
  -1   3 -12  514.11   44.86
  -1   3 -12  568.54   68.97
   1  -3  13   22.48   15.98
   1  -3  13   46.16   14.57
  -1   3 -13   59.68   15.99
  -1   3 -13   73.61   20.99
   1  -3  14 1197.06   87.98
   1  -3  14 1215.24   51.07
  -1   3 -14 1154.68   65.60
  -1   3 -14 1160.56   66.73
   1  -3  15  301.10   94.08
   1  -3  15  311.08   41.77
  -1   3 -15  290.74   24.44
  -1   3 -15  341.85   46.66
   1  -3  16   22.96   12.68
   1  -3  16   13.53    7.08
  -1   3 -16    2.93    6.71
  -1   3 -16   12.84   24.25
   1  -3  17   17.99   18.21
  -1   3 -17   56.88   24.53
   1  -3  18   47.47   27.28
  -1   3 -18   12.72   11.93
   1  -3  19   30.71   22.89
  -1   3 -19   -1.11   15.63
   1  -3  20   13.00   16.14
  -1   3 -20   20.47   14.04
  -1   2  20  120.18   80.43
   1  -2 -19   19.16   18.52
  -1   2  19   14.83   16.33
  -1   2  19    9.51   10.82
   1  -2 -18   52.60   24.03
  -1   2  18   16.32    7.31
   1  -2 -17  494.22   60.95
  -1   2  17  531.60   69.60
  -1   2  17  447.28   36.25
   1  -2 -16  737.70   43.15
   1  -2 -16  847.63   49.03
  -1   2  16  854.67   47.26
  -1   2  16  711.40   78.18
   1  -2 -15  564.15   24.75
   1  -2 -15  602.48   36.52
  -1   2  15  431.77   43.00
  -1   2  15  489.38   78.57
   1  -2 -14  442.09   54.21
   1  -2 -14  449.02   47.90
  -1   2  14  462.70   89.40
  -1   2  14  499.91   39.64
   1  -2 -13 1966.33   59.77
   1  -2 -13 1924.81  106.49
  -1   2  13 1886.01   90.30
  -1   2  13 1795.78   82.90
   1  -2 -12 6607.74   55.07
   1  -2 -12 6506.79  240.49
  -1   2  12 6435.68  221.73
  -1   2  12 6180.64  236.90
   1  -2 -11 2786.88  103.44
   1  -2 -11 2958.95  129.42
  -1   2  11 2843.13  121.69
  -1   2  11 3084.81  122.67
   1  -2 -10  427.18   30.25
   1  -2 -10  444.98   39.39
  -1   2  10  502.22   58.11
  -1   2  10  456.11   43.23
   1  -2  -9  159.29   37.32
   1  -2  -9  225.35   44.92
  -1   2   9  133.22   31.33
  -1   2   9  225.19   67.53
   1  -2  -8  247.86   15.30
   1  -2  -8  288.95   24.83
  -1   2   8  271.49   18.99
  -1   2   8  243.07   18.08
   1  -2  -7 3433.27   99.39
   1  -2  -7 3541.14  108.88
   1  -2  -7 3233.63   95.45
  -1   2   7 3186.12   92.38
  -1   2   7 3355.85   99.03
  -1   2   7 3401.48  114.76
   1  -2  -6 8832.96  145.30
   1  -2  -6 9119.92  151.90
  -1   2   6 8586.14  138.15
  -1   2   6 8891.44  155.69
  -1   2   6 8927.58  149.53
   1  -2  -5 5275.72   92.53
   1  -2  -5 5418.64   91.25
   1  -2  -5 5306.83   93.56
   1  -2  -5 5269.80  100.98
  -1   2   5 5517.05   93.74
  -1   2   5 5439.87   93.42
  -1   2   5 5492.07   95.43
  -1   2   5 5140.01   86.98
   1  -2  -4  313.64   31.11
   1  -2  -4  306.83   21.04
   1  -2  -4  350.76   29.93
   1  -2  -4  323.77   18.42
  -1   2   4  326.47   31.64
  -1   2   4  292.60   10.63
  -1   2   4  368.02   27.03
  -1   2   4  292.96   15.77
   1  -2  -3  770.41   29.73
   1  -2  -3  740.25   25.39
   1  -2  -3  771.46   35.54
   1  -2  -3  741.50   28.67
   1  -2  -3  743.84   26.25
  -1   2   3  738.59   27.12
  -1   2   3  815.85   37.86
  -1   2   3  762.99   25.79
   1  -2  -2   -0.26    9.07
   1  -2  -2   11.19    8.38
   1  -2  -2    5.11    5.98
   1  -2  -2    0.40    6.15
   1  -2  -2    3.10    2.87
  -1   2   2   -0.34    4.34
  -1   2   2   13.26   10.49
  -1   2   2    9.22    7.00
   1  -2  -110608.28   90.80
   1  -2  -110372.92   90.78
   1  -2  -110175.07   90.59
  -1   2   110150.67   86.45
  -1   2   110097.93   87.65
   1  -2   0  703.27   24.64
   1  -2   0  705.61   26.05
   1  -2   0  651.65   21.42
  -1   2   0  688.88   23.79
  -1   2   0  713.60   25.88
  -1   2   0  688.74   26.13
   1  -2   1   95.86    7.72
   1  -2   1   98.68    8.57
   1  -2   1   98.55   15.03
   1  -2   1  114.64   10.72
   1  -2   1   89.65    4.42
  -1   2  -1  112.38   24.55
  -1   2  -1  102.07    6.60
  -1   2  -1  103.57   15.80
   1  -2   2 2594.66   56.97
   1  -2   2 2671.65   58.23
   1  -2   2 2615.09   54.80
   1  -2   2 2644.68   52.87
  -1   2  -2 2522.80   55.56
  -1   2  -2 2574.78   55.34
  -1   2  -2 2531.59   50.39
  -1   2  -2 2603.19   55.86
   1  -2   3 2224.43   51.79
   1  -2   3 2303.66   48.89
   1  -2   3 2195.23   45.61
   1  -2   3 2208.44   49.68
  -1   2  -3 2357.73   49.15
  -1   2  -3 2264.90   55.22
  -1   2  -3 2275.96   51.49
  -1   2  -3 2248.98   46.36
   1  -2   4 9642.43   83.94
   1  -2   4 9563.33   78.77
   1  -2   4 9943.92   87.41
   1  -2   4 9595.65   90.50
  -1   2  -4 9683.02   97.14
  -1   2  -410017.39   91.80
   1  -2   5  304.54   19.86
   1  -2   5  269.36   13.64
   1  -2   5  307.12   13.93
   1  -2   5  259.70   18.40
  -1   2  -5  276.98   27.81
  -1   2  -5  280.54   13.38
  -1   2  -5  303.17   26.82
  -1   2  -5  278.92   12.73
   1  -2   6 3898.29   67.38
   1  -2   6 3817.93   73.54
   1  -2   6 3995.64   73.88
   1  -2   6 3912.00   65.43
  -1   2  -6 3866.00   81.35
   1  -2   7  848.69   30.63
   1  -2   7  915.27   34.68
   1  -2   7  878.78   35.97
  -1   2  -7  814.70   32.42
  -1   2  -7  909.27   35.22
  -1   2  -7  797.85   34.38
   1  -2   8 2217.78   64.72
   1  -2   8 2197.47   66.82
  -1   2  -8 2168.77   70.15
  -1   2  -8 2185.20   69.14
  -1   2  -8 2260.03   69.47
   1  -2   9 2868.34   78.07
   1  -2   9 2839.90   69.50
   1  -2   9 2895.44   84.75
  -1   2  -9 2733.88   76.87
  -1   2  -9 3017.60   79.57
  -1   2  -9 2793.61   71.74
   1  -2  10   20.21   12.00
   1  -2  10   10.71    6.23
   1  -2  10   12.10   18.14
  -1   2 -10   14.71   13.79
  -1   2 -10    7.45    3.56
  -1   2 -10    1.36    7.43
   1  -2  11  244.01   27.17
   1  -2  11  232.09   27.02
  -1   2 -11  203.03   16.17
  -1   2 -11  248.31   43.41
   1  -2  12  711.97   62.62
   1  -2  12  818.12   46.27
  -1   2 -12  843.62   52.88
  -1   2 -12  880.82   61.37
   1  -2  13  226.64   53.75
   1  -2  13  244.51   29.46
  -1   2 -13  208.70   27.73
  -1   2 -13  258.79   52.70
   1  -2  14  841.04   63.05
   1  -2  14  897.60   37.46
  -1   2 -14  843.50   37.37
  -1   2 -14  986.48   65.93
   1  -2  15   46.17   22.62
   1  -2  15   62.70   15.73
  -1   2 -15   62.64   13.71
  -1   2 -15   66.08   25.18
   1  -2  16  177.02   34.39
   1  -2  16  204.80   31.88
  -1   2 -16  200.75   23.98
  -1   2 -16  316.84   61.29
   1  -2  17  590.61   32.29
   1  -2  17  656.03   79.94
  -1   2 -17  629.47   57.59
   1  -2  18   20.27   23.19
  -1   2 -18   33.58   14.58
   1  -2  19   23.78   18.53
  -1   2 -19   -3.81   15.73
   1  -2  20   11.06   16.21
  -1   2 -20    5.47   16.88
   1  -1 -20   82.12   44.29
  -1   1  20   81.67   37.76
   1  -1 -19    2.61   15.20
  -1   1  19   14.85   14.32
   1  -1 -18   68.87   25.88
  -1   1  18   72.72   22.63
  -1   1  18   63.69   34.20
   1  -1 -17  238.26   57.63
   1  -1 -17  310.13   40.06
  -1   1  17  234.95   93.29
  -1   1  17  299.74   61.52
   1  -1 -16  310.65   21.31
   1  -1 -16  262.45   66.19
  -1   1  16  258.08   64.23
  -1   1  16  273.57   35.90
   1  -1 -15  377.84   47.64
   1  -1 -15  472.52   43.17
  -1   1  15  409.24   33.51
  -1   1  15  380.74   40.92
   1  -1 -14  186.54   23.31
   1  -1 -14  231.82   59.98
  -1   1  14  159.57   47.54
  -1   1  14  143.08   39.47
   1  -1 -13 1014.76   49.43
   1  -1 -13 1012.13   61.47
  -1   1  13 1064.61   55.57
  -1   1  13 1047.44   48.57
   1  -1 -12 3636.11  138.46
   1  -1 -12 3719.20  150.00
  -1   1  12 3530.77  144.85
  -1   1  12 3753.34  135.47
   1  -1 -11 2555.38   74.82
   1  -1 -11 2538.31   85.85
  -1   1  11 2488.61   78.34
  -1   1  11 2301.49   67.01
   1  -1 -10 1408.19   65.08
   1  -1 -10 1352.19   90.76
  -1   1  10 1364.14   78.76
  -1   1  10 1323.63  101.95
   1  -1  -9  310.85   15.84
   1  -1  -9  322.55   22.07
  -1   1   9  291.70   25.24
  -1   1   9  325.36   29.38
   1  -1  -8 1332.60   57.94
   1  -1  -8 1352.03   57.01
  -1   1   8 1419.78   49.16
  -1   1   8 1379.45   32.98
  -1   1   8 1290.66   59.74
   1  -1  -7 2593.59   86.63
   1  -1  -7 2395.59   75.45
   1  -1  -7 2465.56   75.10
  -1   1   7 2607.01   80.47
  -1   1   7 2601.23   85.56
  -1   1   7 2404.59   72.27
   1  -1  -6 3444.18   60.86
   1  -1  -6 3381.90   63.26
   1  -1  -6 3602.45   72.05
   1  -1  -6 3398.35   69.40
  -1   1   6 3504.25   63.51
  -1   1   6 3579.52   68.50
  -1   1   6 3503.86   63.68
  -1   1   6 3331.18   40.29
   1  -1  -5 1491.45   29.27
   1  -1  -5 1495.86   29.19
   1  -1  -5 1512.28   39.81
   1  -1  -5 1428.23   52.43
  -1   1   5 1510.19   36.98
  -1   1   5 1617.47   38.53
  -1   1   5 1486.76   28.92
  -1   1   5 1501.51   20.77
   1  -1  -4   50.66   15.14
   1  -1  -4   33.99   13.03
   1  -1  -4   55.10   25.82
   1  -1  -4   37.87   13.59
  -1   1   4   35.96   13.08
  -1   1   4   63.57   23.69
  -1   1   4   23.74   12.30
  -1   1   4   36.07   14.12
   1  -1  -3 3101.57   66.06
   1  -1  -3 3118.25   66.96
   1  -1  -3 3005.98   63.18
   1  -1  -3 3113.69   69.05
  -1   1   3 3127.75   64.76
  -1   1   3 3236.62   71.29
  -1   1   3 3069.44   70.20
  -1   1   3 3083.99   67.07
   1  -1  -2  403.10   24.77
   1  -1  -2  370.88   13.16
   1  -1  -2  379.61   14.43
   1  -1  -2  379.68   19.21
  -1   1   2  386.00   14.17
  -1   1   2  367.94   15.21
  -1   1   2  417.71   25.27
  -1   1   2  401.44   14.74
   1  -1  -1  930.75   31.63
   1  -1  -1  878.20   26.42
   1  -1  -1  898.54   29.61
   1  -1  -1  915.66   28.73
  -1   1   1  873.29   26.39
  -1   1   1  873.57   27.67
  -1   1   1  866.54   27.72
  -1   1   1  882.25   27.82
   1  -1   0   10.21    4.00
   1  -1   0   31.53   13.18
   1  -1   0   24.92    7.66
   1  -1   0   27.71    5.44
  -1   1   0   33.35    9.87
  -1   1   0   31.85    7.63
  -1   1   0   28.64   10.26
  -1   1   0   21.68    8.61
   1  -1   1   10.50   11.57
   1  -1   1   22.01    8.42
   1  -1   1   32.66    7.04
   1  -1   1   11.14    5.63
  -1   1  -1   22.57    7.54
  -1   1  -1   28.54    9.24
  -1   1  -1   28.13    9.68
  -1   1  -1   35.10    7.12
   1  -1   2 3901.87   78.01
   1  -1   2 3751.73   76.67
   1  -1   2 4046.05   37.09
   1  -1   2 4054.06   29.83
   1  -1   2 3945.86   86.41
  -1   1  -2 4005.15   31.80
  -1   1  -2 3721.23   75.70
   1  -1   3 7384.31   62.25
   1  -1   3 7232.34   68.26
  -1   1  -3 7323.55   69.75
   1  -1   4 2230.67   51.78
   1  -1   4 1991.45   41.63
   1  -1   4 2042.89   45.36
   1  -1   4 2036.55   44.75
  -1   1  -4 2123.22   44.34
  -1   1  -4 2064.34   47.05
  -1   1  -4 1998.15   54.38
  -1   1  -4 2061.86   44.15
   1  -1   5   32.90   13.62
   1  -1   5   57.61   10.24
   1  -1   5   73.35   25.05
   1  -1   5   79.55   18.00
  -1   1  -5   72.66   16.34
  -1   1  -5   54.49   13.18
  -1   1  -5   55.15   17.55
  -1   1  -5   73.47   14.98
   1  -1   6   -1.03    7.65
   1  -1   6    3.57    6.65
   1  -1   6    7.84   11.28
   1  -1   6   10.11    5.24
  -1   1  -6   -0.12    3.92
  -1   1  -6    2.74    8.85
  -1   1  -6   -2.12   10.64
  -1   1  -6    6.83    6.02
   1  -1   7 7231.18  123.80
  -1   1  -7 7198.07  115.97
  -1   1  -7 7147.56  118.55
   1  -1   8 4756.48   87.33
   1  -1   8 4724.52   84.81
   1  -1   8 4664.10  107.79
  -1   1  -8 4986.72  101.49
  -1   1  -8 4558.19   81.05
  -1   1  -8 4477.10   90.91
   1  -1   9 3583.76   96.37
   1  -1   9 3423.96   84.33
   1  -1   9 3589.23  103.48
  -1   1  -9 3714.03  104.53
  -1   1  -9 3434.05   87.59
   1  -1  10   62.30   18.29
   1  -1  10   92.97   21.17
  -1   1 -10  106.54   17.12
  -1   1 -10   95.79   26.21
   1  -1  11  167.85   25.54
   1  -1  11  132.48   20.56
   1  -1  11  209.97   46.64
  -1   1 -11  204.56   24.81
  -1   1 -11  214.46   31.47
   1  -1  12  358.62   42.67
   1  -1  12  297.11   30.48
  -1   1 -12  318.18   19.84
  -1   1 -12  387.18   35.88
   1  -1  13  220.29   48.99
   1  -1  13  201.72   36.14
  -1   1 -13  236.60   30.61
  -1   1 -13  184.58   49.92
   1  -1  14 1016.23   49.88
   1  -1  14  865.67   53.27
  -1   1 -14  843.49   27.27
  -1   1 -14  952.87   44.27
   1  -1  15   29.50   18.19
   1  -1  15   -0.74   10.73
  -1   1 -15   19.15   10.01
  -1   1 -15   31.92   18.09
   1  -1  16   36.34   16.01
   1  -1  16   75.92   40.50
  -1   1 -16  101.08   28.46
   1  -1  17  101.36   48.47
   1  -1  17  133.47   46.41
  -1   1 -17  184.15   43.24
   1  -1  18  346.33  114.07
  -1   1 -18  491.79   43.07
   1  -1  19    4.43   18.91
  -1   1 -19   29.45   22.15
   1   0 -20  185.97   83.14
  -1   0  20  335.48   52.82
   1   0 -19  209.57   61.30
  -1   0  19  202.00   69.80
  -1   0  19  134.39   67.82
   1   0 -18  136.59   56.60
  -1   0  18  146.41   48.89
  -1   0  18   74.05   37.98
   1   0 -17  497.42   29.37
   1   0 -17  487.03   55.70
  -1   0  17  442.21   75.47
  -1   0  17  458.68   36.98
   1   0 -16  258.51   16.03
   1   0 -16  245.49   84.73
  -1   0  16  258.99   75.51
  -1   0  16  297.82   25.88
   1   0 -15  160.87   40.98
   1   0 -15  185.43   63.42
  -1   0  15  153.65   44.61
  -1   0  15  129.51   39.37
   1   0 -14  394.04   21.43
   1   0 -14  469.22   53.02
  -1   0  14  416.28   78.86
  -1   0  14  380.52   65.46
   1   0 -13  255.38   26.04
   1   0 -13  276.24   74.35
  -1   0  13  242.18   28.12
  -1   0  13  238.63   23.96
   1   0 -12  419.70   43.55
   1   0 -12  487.61   39.66
  -1   0  12  518.61   49.39
  -1   0  12  425.11   36.16
   1   0 -11 2702.92   75.71
   1   0 -11 2628.81  120.29
  -1   0  11 2736.70   81.63
  -1   0  11 2559.15  117.47
   1   0 -10  258.60   24.90
   1   0 -10  384.02   46.24
  -1   0  10  328.13   32.53
  -1   0  10  351.40   41.90
   1   0  -9  508.36   30.18
   1   0  -9  504.60   40.38
  -1   0   9  471.14   49.03
  -1   0   9  401.61   34.37
   1   0  -8 1533.65   53.93
   1   0  -8 1439.56   51.95
   1   0  -8 1537.70   55.02
  -1   0   8 1381.58   36.87
  -1   0   8 1642.66   64.50
  -1   0   8 1499.48   52.91
   1   0  -7 6902.92  115.69
   1   0  -7 6609.97  129.16
   1   0  -7 6749.93  124.98
   1   0  -7 6720.94  115.37
  -1   0   7 6946.46  119.47
  -1   0   7 7164.48  120.37
  -1   0   7 6673.85  116.15
  -1   0   7 6708.01  112.15
   1   0  -6 3920.75   72.26
   1   0  -6 3828.42   73.76
   1   0  -6 3951.22   83.52
   1   0  -6 3832.84   67.21
  -1   0   6 4008.57   71.79
  -1   0   6 3933.22   68.14
  -1   0   6 3892.30   69.59
  -1   0   6 3880.41   67.70
   1   0  -5  443.61   18.53
   1   0  -5  442.46   38.18
   1   0  -5  491.98   22.37
   1   0  -5  420.85   31.86
  -1   0   5  450.54   20.44
  -1   0   5  455.49   18.84
  -1   0   5  399.57   18.44
  -1   0   5  424.63   16.01
   1   0  -4   70.14   15.85
   1   0  -4   81.59   14.50
   1   0  -4  105.61   23.21
   1   0  -4   78.71   10.07
  -1   0   4   77.91   16.81
  -1   0   4   81.14    8.65
  -1   0   4   88.31   19.35
  -1   0   4   74.42    9.82
   1   0  -3 2339.48   50.87
   1   0  -3 2290.61   49.04
   1   0  -3 2418.21   52.68
   1   0  -3 2374.77   50.35
  -1   0   3 2456.18   58.10
  -1   0   3 2323.28   49.11
  -1   0   3 2350.65   49.95
  -1   0   3 2408.47   51.66
   1   0  -2   14.77    6.75
   1   0  -2   23.81   10.21
   1   0  -2    6.57    5.68
  -1   0   2   18.70   13.28
  -1   0   2   14.85    6.09
  -1   0   2   21.33    6.64
  -1   0   2   12.40    4.78
   1   0  -110610.23   86.06
   1   0  -110728.99   86.91
  -1   0   111026.09   90.41
   1   0   0 3847.63   76.42
   1   0   0 4099.59   33.66
   1   0   0 4158.97   36.60
   1   0   0 4181.94   38.50
  -1   0   0 4228.15   37.74
   1   0   1 1823.12   40.36
   1   0   1 1800.47   36.95
   1   0   1 1773.18   38.73
  -1   0  -1 1812.98   39.80
  -1   0  -1 1851.34   39.68
  -1   0  -1 1784.80   37.53
   1   0   2 1753.03   38.51
   1   0   2 1775.42   39.64
   1   0   2 1674.23   37.70
  -1   0  -2 1713.06   37.66
  -1   0  -2 1748.44   40.58
  -1   0  -2 1727.27   37.93
   1   0   3  599.48   22.82
   1   0   3  568.78   18.85
   1   0   3  561.82   20.27
   1   0   3  588.02   23.68
  -1   0  -3  548.30   20.17
  -1   0  -3  619.68   19.48
  -1   0  -3  593.33   24.36
   1   0   4  165.71   12.58
   1   0   4  201.33    6.17
   1   0   4  216.96   27.44
   1   0   4  194.82   26.86
   1   0   4  197.30   25.48
  -1   0  -4  183.39   10.08
  -1   0  -4  245.06   13.87
  -1   0  -4  189.87   10.98
   1   0   5  913.64   34.65
   1   0   5  980.87   30.55
   1   0   5  970.43   37.29
   1   0   5  984.56   42.68
   1   0   5 1021.47   38.35
  -1   0  -5  943.72   32.77
  -1   0  -5  899.78   44.17
  -1   0  -5  958.43   37.57
   1   0   6   26.60   12.35
   1   0   6   34.95    7.76
   1   0   6   43.91   15.30
  -1   0  -6   73.45   16.02
  -1   0  -6   22.10   10.47
  -1   0  -6   19.53   14.20
   1   0   7 5167.14   97.61
   1   0   7 4962.80   86.34
   1   0   7 5358.65  103.16
  -1   0  -7 5184.38  102.85
  -1   0  -7 5242.68   89.03
  -1   0  -7 5024.14   90.74
   1   0   8 1613.62   70.20
   1   0   8 1561.93   51.58
   1   0   8 1605.63   58.43
  -1   0  -8 1463.61   54.41
  -1   0  -8 1521.54   50.96
   1   0   9 1782.48   97.83
   1   0   9 1872.68   82.95
   1   0   9 1689.06   76.86
  -1   0  -9 1786.08   81.08
  -1   0  -9 1799.10   78.80
   1   0  10   31.24    9.33
   1   0  10   45.26    7.81
   1   0  10   35.57   26.96
  -1   0 -10   62.58   15.29
  -1   0 -10   44.43   10.26
   1   0  11 1097.33   55.12
   1   0  11  822.69   40.75
   1   0  11  939.24   55.81
  -1   0 -11  999.35   64.04
  -1   0 -11  886.87   40.98
   1   0  12 1353.53   68.42
   1   0  12 1192.07   65.34
  -1   0 -12 1244.71   58.27
  -1   0 -12 1270.97   73.11
   1   0  13  232.93   68.27
   1   0  13  199.18   48.42
  -1   0 -13  240.82   17.03
  -1   0 -13  271.61   62.98
   1   0  14   32.08   21.08
   1   0  14   31.37   19.11
  -1   0 -14   52.25   14.67
  -1   0 -14   38.38   13.82
   1   0  15   57.31   20.34
   1   0  15   60.95   30.24
  -1   0 -15   60.81   27.87
   1   0  16   20.67   14.30
   1   0  16   38.47   26.78
  -1   0 -16   10.04   14.63
   1   0  17  139.86   45.91
   1   0  17  180.90   78.53
  -1   0 -17  209.63   57.43
   1   0  18  133.57   58.21
   1   0  18  157.76   65.05
  -1   0 -18  184.67   79.23
  -1   0 -19   16.17   24.00
  -1  -1  21  232.92   98.59
   1   1 -20  330.40   42.53
  -1  -1  20  222.19   94.16
   1   1 -19  284.64   31.60
  -1  -1  19  162.04   84.14
   1   1 -18   34.49   19.05
   1   1 -18   17.55   19.56
  -1  -1  18   47.48   36.13
  -1  -1  18   16.12   10.85
   1   1 -17  760.37   29.21
   1   1 -17  674.05   61.43
  -1  -1  17  630.31  105.87
  -1  -1  17  583.35   35.56
   1   1 -16  808.19   37.21
   1   1 -16  686.17   57.48
  -1  -1  16  669.52   67.74
  -1  -1  16  575.36   64.59
   1   1 -15  202.68   32.54
   1   1 -15  230.16   75.07
  -1  -1  15  244.75   53.17
  -1  -1  15  173.22   41.36
   1   1 -14   21.00   12.51
   1   1 -14   56.43   15.09
  -1  -1  14   16.59    9.19
  -1  -1  14   28.81   21.77
   1   1 -13  462.42   36.78
   1   1 -13  480.99   66.36
  -1  -1  13  429.40   44.97
  -1  -1  13  407.71   34.75
   1   1 -12  383.14   37.91
   1   1 -12  402.07   33.99
  -1  -1  12  455.10   40.44
  -1  -1  12  324.18   45.32
   1   1 -11  907.54   49.52
   1   1 -11  773.95   47.70
  -1  -1  11  847.36   53.24
  -1  -1  11  925.88   61.48
   1   1 -10  111.94   21.38
   1   1 -10   94.30   32.56
  -1  -1  10  118.70   23.38
  -1  -1  10  102.01   33.67
   1   1  -9 1475.13   52.89
   1   1  -9 1463.11   69.88
   1   1  -9 1347.50   67.81
  -1  -1   9 1504.03   55.28
  -1  -1   9 1352.75   64.83
   1   1  -8 6687.36  122.75
   1   1  -8 6704.14  116.25
   1   1  -8 6729.02  123.44
  -1  -1   8 6833.68  135.56
  -1  -1   8 6678.36  117.33
  -1  -1   8 6798.92  119.02
   1   1  -713216.67   95.89
   1   1  -712864.15  204.19
   1   1  -713413.50   65.02
  -1  -1   713314.43   72.96
  -1  -1   713345.61   60.45
  -1  -1   713142.78  207.91
  -1  -1   713033.56  205.24
   1   1  -6 3695.34   81.80
   1   1  -6 3632.34   78.35
   1   1  -6 3669.17   88.44
   1   1  -6 3682.17   81.74
  -1  -1   6 3767.59   81.29
  -1  -1   6 3670.69   78.05
  -1  -1   6 3729.65   80.84
  -1  -1   6 3876.51   84.18
   1   1  -5  809.02   27.87
   1   1  -5  788.11   28.13
   1   1  -5  770.27   26.70
   1   1  -5  832.95   30.80
  -1  -1   5  836.28   31.89
  -1  -1   5  834.30   28.88
  -1  -1   5  879.91   29.87
  -1  -1   5  792.52   26.08
   1   1  -4 1783.67   40.22
   1   1  -4 1820.01   47.52
   1   1  -4 1704.60   37.63
   1   1  -4 1825.81   39.91
  -1  -1   4 1712.91   40.13
  -1  -1   4 1738.08   41.72
  -1  -1   4 1750.55   40.16
  -1  -1   4 1744.42   41.60
   1   1  -3  182.73   12.49
   1   1  -3  191.20   16.63
   1   1  -3  193.24   12.01
   1   1  -3  177.49   10.38
  -1  -1   3  187.25   10.94
  -1  -1   3  182.30   15.12
  -1  -1   3  178.77   10.84
  -1  -1   3  177.37    8.22
   1   1  -2 7964.08   69.15
   1   1  -2 8127.71   67.24
  -1  -1   2 8183.82   69.69
  -1  -1   2 7920.31   67.46
   1   1  -1 9336.76   78.62
   1   1  -1 9576.73   77.29
  -1  -1   1 9194.86   74.55
  -1  -1   1 9468.95   79.88
   1   1   0   59.65   12.13
   1   1   0   64.26   21.62
   1   1   0   43.15   13.67
   1   1   0   56.64   14.81
  -1  -1   0   57.13   16.09
  -1  -1   0   52.96   12.21
  -1  -1   0   53.94   13.99
  -1  -1   0   53.64   20.51
   1   1   1 6314.89   51.91
   1   1   1 6104.68   57.49
   1   1   1 6223.85   61.84
  -1  -1  -1 6309.43   57.28
  -1  -1  -1 6230.12   56.36
  -1  -1  -1 6471.90   53.49
  -1  -1  -1 6214.97   57.96
   1   1   2 1031.07   31.83
   1   1   2  975.32   36.76
   1   1   2  975.78   33.99
   1   1   2 1022.30   33.81
  -1  -1  -2 1068.73   36.01
  -1  -1  -2 1030.29   31.43
  -1  -1  -2 1001.80   32.28
  -1  -1  -2 1003.84   33.62
   1   1   3 2624.16   57.65
   1   1   3 2548.88   54.58
   1   1   3 2727.17   59.77
  -1  -1  -3 2603.52   53.47
  -1  -1  -3 2527.06   55.83
  -1  -1  -3 2539.43   52.14
  -1  -1  -3 2704.17   65.18
  -1  -1  -3 2591.75   55.75
   1   1   4  354.99   15.77
   1   1   4  364.01   21.97
   1   1   4  353.78   18.46
  -1  -1  -4  346.50   23.03
  -1  -1  -4  359.76   14.04
  -1  -1  -4  336.31   13.49
  -1  -1  -4  402.44   23.94
   1   1   5  438.65   35.03
   1   1   5  428.00   21.35
   1   1   5  441.34   48.07
   1   1   5  425.76   18.98
  -1  -1  -5  411.31   18.17
  -1  -1  -5  422.26   18.82
  -1  -1  -5  401.43   19.58
  -1  -1  -5  429.13   21.77
   1   1   6 1575.19   49.92
   1   1   6 1568.64   45.54
   1   1   6 1583.49   87.25
  -1  -1  -6 1441.16   62.78
  -1  -1  -6 1501.94   45.73
  -1  -1  -6 1645.17   50.71
   1   1   7 2578.54   84.18
   1   1   7 2498.70   72.84
   1   1   7 2633.92   83.00
  -1  -1  -7 2616.66   83.90
  -1  -1  -7 2491.37   70.72
   1   1   8  105.62   37.01
   1   1   8  120.06   13.41
   1   1   8  119.23   42.67
  -1  -1  -8   82.03   42.04
  -1  -1  -8  110.04   15.58
   1   1   9  949.65   57.45
   1   1   9  948.08   50.82
   1   1   9  835.52   49.28
  -1  -1  -9 1003.30   57.62
  -1  -1  -9  962.99   50.86
   1   1  10   12.48    7.80
   1   1  10    4.94    4.43
   1   1  10    8.67   12.46
  -1  -1 -10   12.47   13.31
  -1  -1 -10   10.33    5.41
   1   1  11 2206.24  106.29
   1   1  11 2200.89  116.07
  -1  -1 -11 2110.83   83.36
  -1  -1 -11 2216.56   90.49
   1   1  12 2759.70  105.50
   1   1  12 2810.54  118.31
  -1  -1 -12 2704.48   95.26
  -1  -1 -12 2648.12  106.04
   1   1  13 3468.60  177.64
   1   1  13 3206.61  108.83
  -1  -1 -13 3076.15   99.35
  -1  -1 -13 3315.64  111.63
   1   1  14 1916.94   90.61
   1   1  14 1668.78   83.56
  -1  -1 -14 1815.76   66.76
  -1  -1 -14 1796.04  117.07
   1   1  15  141.61   45.60
   1   1  15  155.01   50.32
  -1  -1 -15  182.34   71.04
   1   1  16    9.44   11.30
   1   1  16   43.93   25.98
  -1  -1 -16   33.77   24.90
   1   1  17  198.90   32.26
  -1  -1 -17  200.13   62.26
   1   1  18  330.75   53.21
   1   1  18  368.80   46.62
  -1  -1 -18  342.86   60.95
   1   1  19   23.62   23.28
   1   2 -21  581.53  100.09
  -1  -2  21  660.29  101.33
   1   2 -20   71.31   25.82
  -1  -2  20   53.77   40.26
   1   2 -19   17.59   14.12
   1   2 -19   14.72   11.42
  -1  -2  19   44.27   18.07
   1   2 -18    7.30   10.85
   1   2 -18   10.46   13.97
  -1  -2  18   19.35   16.09
   1   2 -17  206.80   56.38
   1   2 -17  262.31   38.79
  -1  -2  17  218.59   64.62
  -1  -2  17  192.57   39.92
   1   2 -16 1274.23   56.68
   1   2 -16 1094.46   91.90
  -1  -2  16 1165.23  114.12
  -1  -2  16 1204.82   58.29
   1   2 -15  457.92   56.43
  -1  -2  15  452.34  112.54
  -1  -2  15  432.95   54.31
   1   2 -14   43.88   19.51
   1   2 -14   31.38   22.52
  -1  -2  14   16.76   13.74
  -1  -2  14   39.66   20.97
   1   2 -13   10.11   32.40
   1   2 -13   17.48   12.47
  -1  -2  13   17.02   10.39
  -1  -2  13   17.01   10.78
   1   2 -12    8.00    5.92
   1   2 -12   13.94   12.66
  -1  -2  12   15.37   10.43
  -1  -2  12   12.57    4.98
   1   2 -11 1481.30   67.36
   1   2 -11 1550.41   83.42
  -1  -2  11 1568.18   77.42
  -1  -2  11 1347.16   74.51
   1   2 -10    7.62    9.45
   1   2 -10   18.31   12.63
   1   2 -10   15.89   10.85
  -1  -2  10   14.22    4.52
  -1  -2  10   23.85   10.62
   1   2  -9  544.25   42.33
   1   2  -9  681.15   38.32
   1   2  -9  581.15   31.45
  -1  -2   9  634.85   32.05
  -1  -2   9  596.94   33.60
   1   2  -8 1065.22   47.23
   1   2  -8 1120.89   47.64
   1   2  -8 1103.65   50.19
  -1  -2   8 1219.43   52.14
  -1  -2   8 1232.70   55.54
   1   2  -7 2375.41   72.95
   1   2  -7 2348.78   72.09
   1   2  -7 2209.60   65.41
  -1  -2   7 2254.10   67.92
  -1  -2   7 2239.09   65.60
  -1  -2   7 2299.91   71.53
  -1  -2   7 2452.80   76.23
   1   2  -6 2207.76   52.47
   1   2  -6 2278.85   55.86
   1   2  -6 2270.08   51.76
   1   2  -6 2271.24   49.84
  -1  -2   6 2286.86   58.26
  -1  -2   6 2454.33   56.04
  -1  -2   6 2202.19   55.32
  -1  -2   6 2244.86   52.55
   1   2  -5  165.86   11.55
   1   2  -5  162.64   30.19
   1   2  -5  153.99   32.59
   1   2  -5  140.60    7.93
  -1  -2   5  142.17   20.56
  -1  -2   5  188.53   25.59
  -1  -2   5  165.77   26.57
  -1  -2   5  147.71   10.42
   1   2  -4  115.50   17.54
   1   2  -4  104.22   30.60
   1   2  -4   98.23   14.13
   1   2  -4  116.55   18.61
  -1  -2   4  122.36   33.21
  -1  -2   4   94.82   10.38
  -1  -2   4  110.98   15.04
  -1  -2   4   99.30    9.44
   1   2  -3 3767.12   77.95
   1   2  -3 3786.60   78.80
   1   2  -3 3754.47   78.76
   1   2  -3 3748.47   76.76
  -1  -2   3 3819.35   79.47
  -1  -2   3 3871.00   81.77
  -1  -2   3 3725.33   76.91
  -1  -2   3 3763.62   78.00
   1   2  -2  673.32   23.15
   1   2  -2  672.66   27.19
   1   2  -2  693.08   32.03
   1   2  -2  685.17   23.20
  -1  -2   2  663.60   24.39
  -1  -2   2  685.66   23.77
  -1  -2   2  715.31   31.46
  -1  -2   2  654.97   27.60
   1   2  -1  481.37   21.09
   1   2  -1  511.52   31.64
   1   2  -1  506.22   23.06
   1   2  -1  464.33   22.08
  -1  -2   1  468.65   18.76
  -1  -2   1  561.82   26.86
  -1  -2   1  480.80   21.80
  -1  -2   1  481.42   35.46
   1   2   0  523.91   24.01
   1   2   0  529.83   19.98
   1   2   0  537.70   21.67
   1   2   0  559.56   20.63
  -1  -2   0  529.46   25.23
  -1  -2   0  501.07   17.49
  -1  -2   0  531.86   22.02
  -1  -2   0  538.60   22.79
   1   2   1 4992.59   47.85
   1   2   1 4962.88   47.44
  -1  -2  -1 5047.16   47.37
   1   2   2  609.12   22.49
   1   2   2  618.99   24.54
   1   2   2  606.76   27.24
   1   2   2  610.53   22.18
  -1  -2  -2  624.18   25.39
  -1  -2  -2  626.43   21.58
  -1  -2  -2  672.64   25.82
  -1  -2  -2  644.25   24.45
   1   2   3 1443.59   46.28
   1   2   3 1461.66   22.74
   1   2   3 1518.93   41.02
   1   2   3 1400.40   45.86
  -1  -2  -3 1427.57   48.62
  -1  -2  -3 1459.73   21.88
  -1  -2  -3 1460.17   22.96
  -1  -2  -3 1492.79   20.73
   1   2   4  611.26   28.73
   1   2   4  591.36   29.00
   1   2   4  557.91   28.45
  -1  -2  -4  587.18   22.36
  -1  -2  -4  628.64   28.01
  -1  -2  -4  581.11   25.54
  -1  -2  -4  602.81   24.65
  -1  -2  -4  701.00   37.17
   1   2   5    6.20    6.71
   1   2   5    7.86    8.61
   1   2   5    4.96    6.98
  -1  -2  -5   10.00    9.29
  -1  -2  -5    5.76    2.18
  -1  -2  -5   12.86    7.08
   1   2   6 3291.08  111.20
   1   2   6 3160.80   96.97
  -1  -2  -6 3221.57   93.64
  -1  -2  -6 3078.01   85.60
  -1  -2  -6 3024.57   85.76
   1   2   7 2249.62  105.26
   1   2   7 2216.09   95.70
  -1  -2  -7 2313.96  105.07
  -1  -2  -7 2189.93   91.38
  -1  -2  -7 2295.95   97.69
   1   2   8  393.75   72.68
   1   2   8  262.27   61.40
  -1  -2  -8  292.67   22.69
  -1  -2  -8  211.75   13.52
  -1  -2  -8  250.18   12.95
   1   2   9  171.95   60.71
   1   2   9  208.30   49.56
  -1  -2  -9  146.45   31.82
  -1  -2  -9  156.42   12.62
  -1  -2  -9  105.05   20.53
   1   2  10  125.70   32.43
   1   2  10  134.34   49.27
  -1  -2 -10  119.21   25.77
  -1  -2 -10  147.60   17.51
  -1  -2 -10   79.41   22.29
   1   2  11  802.38   70.40
   1   2  11  837.01   51.25
  -1  -2 -11  791.37   48.93
  -1  -2 -11  886.92   43.27
   1   2  12 2096.58   84.17
   1   2  12 1993.83   67.22
  -1  -2 -12 2079.93   66.49
  -1  -2 -12 2054.48   78.54
   1   2  13 4474.75  107.38
   1   2  13 4100.42  178.14
  -1  -2 -13 4100.24  147.60
  -1  -2 -13 4770.33   74.73
   1   2  14 2175.57  105.13
   1   2  14 2323.91  162.66
  -1  -2 -14 2380.52  108.99
   1   2  15  215.68   66.51
   1   2  15  194.97   56.40
  -1  -2 -15  211.74   65.28
   1   2  16  153.01   45.82
   1   2  16  154.28   56.18
  -1  -2 -16  184.19   55.85
   1   2  17  364.17   64.72
   1   2  17  345.63   71.35
  -1  -2 -17  359.21   41.49
   1   2  18  453.67   55.90
   1   2  18  506.75   83.26
  -1  -2 -18  631.43   32.73
   1   2  19  215.98   74.17
   1   3 -21  763.75   85.18
  -1  -3  21  764.22  124.84
   1   3 -20  308.25   94.10
  -1  -3  20  426.44   77.53
   1   3 -19    6.38   12.23
   1   3 -19   19.86   10.23
  -1  -3  19    4.91    8.68
   1   3 -18   31.92   17.56
   1   3 -18   40.55   18.67
  -1  -3  18   30.70   20.81
   1   3 -17  236.83   54.16
   1   3 -17  266.43   87.38
  -1  -3  17  306.99   67.09
  -1  -3  17  220.64   32.62
   1   3 -16  670.12   62.82
   1   3 -16  703.07   53.46
  -1  -3  16  734.04   45.28
  -1  -3  16  590.15   45.52
   1   3 -15   22.13   14.88
   1   3 -15   13.40   17.03
  -1  -3  15   13.85   19.53
  -1  -3  15    6.69    7.96
   1   3 -14  615.72   54.01
   1   3 -14  642.65   64.98
  -1  -3  14  692.82   42.61
  -1  -3  14  612.75   46.56
   1   3 -13  464.38   37.93
   1   3 -13  526.18   82.45
  -1  -3  13  399.03   34.72
  -1  -3  13  411.78   39.71
   1   3 -12   15.55   10.49
   1   3 -12    7.67   10.12
  -1  -3  12   14.40   11.55
  -1  -3  12   -4.11    6.95
   1   3 -11  544.53   45.81
   1   3 -11  524.05   49.57
   1   3 -11  516.32   34.59
  -1  -3  11  508.05   34.08
  -1  -3  11  551.49   47.51
   1   3 -10  108.48   18.22
   1   3 -10  105.23   31.14
   1   3 -10   83.94   17.24
  -1  -3  10   95.83   20.28
  -1  -3  10   47.91   18.94
   1   3  -9  521.80   28.48
   1   3  -9  547.51   49.07
   1   3  -9  444.36   26.19
  -1  -3   9  517.62   36.36
  -1  -3   9  525.02   49.21
   1   3  -8  615.88   32.50
   1   3  -8  678.44   49.24
   1   3  -8  605.53   28.98
  -1  -3   8  633.84   40.49
  -1  -3   8  697.57   62.33
   1   3  -7   19.28    9.41
   1   3  -7   10.96   12.19
   1   3  -7    8.25    3.37
  -1  -3   7   15.04    5.97
  -1  -3   7    8.19    8.36
  -1  -3   7    7.94    5.02
  -1  -3   7   19.79   10.96
   1   3  -6  498.59   24.62
   1   3  -6  516.04   27.29
   1   3  -6  507.28   24.32
   1   3  -6  517.14   20.14
  -1  -3   6  553.22   26.60
  -1  -3   6  542.83   21.89
  -1  -3   6  499.23   19.43
  -1  -3   6  562.69   22.62
   1   3  -5  483.41   23.35
   1   3  -5  397.17   17.36
   1   3  -5  461.81   26.46
   1   3  -5  424.65   16.57
  -1  -3   5  444.93   28.55
  -1  -3   5  416.96   17.15
  -1  -3   5  415.33   16.66
  -1  -3   5  405.04   17.17
   1   3  -4 2144.59   48.75
   1   3  -4 2121.14   47.50
   1   3  -4 2109.13   46.97
   1   3  -4 2013.39   47.81
  -1  -3   4 1999.17   45.31
  -1  -3   4 2098.90   58.39
  -1  -3   4 2150.36   48.34
   1   3  -3  343.78   17.26
   1   3  -3  336.33   19.91
   1   3  -3  341.84   24.76
  -1  -3   3  371.43   34.97
  -1  -3   3  333.84   31.72
  -1  -3   3  386.00   16.61
  -1  -3   3  349.57   16.27
   1   3  -219704.46  163.01
   1   3  -218827.92  155.36
   1   3  -219266.13  158.25
   1   3  -219047.49  157.18
  -1  -3   218860.05  156.62
  -1  -3   219683.69  162.12
  -1  -3   219109.30  157.49
  -1  -3   219005.72  155.52
   1   3  -1  130.62   24.58
   1   3  -1   82.67   23.91
   1   3  -1   98.30   28.59
   1   3  -1  114.35   27.86
  -1  -3   1   69.55   35.62
  -1  -3   1   92.47   12.53
  -1  -3   1   98.42   24.15
  -1  -3   1   88.00   21.95
   1   3   0 7816.33   71.46
   1   3   0 7624.11   68.54
  -1  -3   0 7621.56   70.50
  -1  -3   0 7737.79   77.71
   1   3   1   28.17    9.98
   1   3   1   35.65    9.55
   1   3   1   36.82   17.62
   1   3   1   23.44   11.81
  -1  -3  -1   29.40   13.11
  -1  -3  -1   12.73   13.28
  -1  -3  -1   26.05    9.45
  -1  -3  -1   30.77   11.35
   1   3   2   32.11   12.24
   1   3   2   48.88   11.79
   1   3   2   49.36   23.87
   1   3   2   62.52   18.05
  -1  -3  -2   38.94   18.08
  -1  -3  -2   39.22    7.05
  -1  -3  -2   53.68   12.57
  -1  -3  -2   51.53   12.75
   1   3   3  446.25   19.60
   1   3   3  509.78   22.04
   1   3   3  478.17   26.15
   1   3   3  464.12   19.44
  -1  -3  -3  519.99   48.00
  -1  -3  -3  463.81   19.38
  -1  -3  -3  477.68   20.99
  -1  -3  -3  496.92   42.38
   1   3   4 2205.09   70.32
   1   3   4 2158.01   70.49
  -1  -3  -4 2136.17   63.65
  -1  -3  -4 2090.77   63.16
  -1  -3  -4 2096.74   60.78
  -1  -3  -4 2076.69   60.34
   1   3   5  888.06   63.17
  -1  -3  -5  736.88   30.21
  -1  -3  -5  826.75   36.49
  -1  -3  -5  811.41   59.59
  -1  -3  -5  793.26   35.77
   1   3   6  465.67   36.86
   1   3   6  504.16   28.98
  -1  -3  -6  504.64   28.81
  -1  -3  -6  483.16   29.53
  -1  -3  -6  446.08   26.44
   1   3   7 1216.65   60.91
   1   3   7 1204.31   62.85
  -1  -3  -7 1439.77   65.49
  -1  -3  -7 1240.69   50.73
  -1  -3  -7 1201.38   51.57
   1   3   8 1657.45   80.28
   1   3   8 1645.27   87.86
  -1  -3  -8 1571.53   74.33
  -1  -3  -8 1549.70   72.26
  -1  -3  -8 1528.71   70.13
   1   3   9  272.91   29.49
   1   3   9  252.99   27.12
  -1  -3  -9  301.97   64.82
  -1  -3  -9  259.91   24.54
  -1  -3  -9  214.82   33.24
   1   3  10   20.42   13.21
   1   3  10  -10.54   17.20
  -1  -3 -10   27.92   17.67
  -1  -3 -10   21.33   13.70
  -1  -3 -10    3.74    4.65
   1   3  11  351.93   32.19
   1   3  11  333.39   33.00
  -1  -3 -11  325.18   24.69
  -1  -3 -11  431.80   29.66
   1   3  12  479.69   25.94
   1   3  12  513.14   40.70
  -1  -3 -12  447.71   28.81
  -1  -3 -12  626.66   37.11
   1   3  13  910.27   76.63
   1   3  13  860.12   87.71
  -1  -3 -13  920.69   52.40
   1   3  14  133.87   46.03
   1   3  14  115.19   29.61
  -1  -3 -14  175.42   34.33
   1   3  15   38.20   14.46
   1   3  15   25.20   38.39
  -1  -3 -15   30.21   16.98
   1   3  16  275.69   60.21
   1   3  16  227.30   94.40
  -1  -3 -16  361.92   49.07
   1   3  17  406.59   69.14
   1   3  17  410.83   55.89
  -1  -3 -17  587.41   96.31
   1   3  18   79.35   42.71
   1   3  18   67.22   44.99
   1   4 -21  593.54  115.85
  -1  -4  21  591.74   76.28
   1   4 -20  512.19   27.43
   1   4 -20  468.81   50.51
  -1  -4  20  488.58   49.65
   1   4 -19    9.77   10.39
   1   4 -19   19.74   13.19
  -1  -4  19   39.59   22.90
   1   4 -18  173.36   51.11
   1   4 -18  219.87   56.79
  -1  -4  18  214.98   51.43
   1   4 -17  894.77   43.38
   1   4 -17  779.72   46.25
  -1  -4  17  866.98  106.62
   1   4 -16 1633.50   70.34
   1   4 -16 1675.17   79.11
  -1  -4  16 1695.82   82.94
  -1  -4  16 1540.74   83.14
   1   4 -15  451.00   23.27
   1   4 -15  407.14   28.88
  -1  -4  15  463.49   41.62
  -1  -4  15  457.72   43.69
   1   4 -14  118.86   21.96
   1   4 -14  189.20   31.83
  -1  -4  14  156.28   33.14
  -1  -4  14  146.17   18.28
   1   4 -13  851.09   50.52
   1   4 -13  953.16   54.21
  -1  -4  13 1021.79   62.51
  -1  -4  13  912.76   52.18
   1   4 -12  128.92   26.62
   1   4 -12  142.42   32.27
   1   4 -12   98.77   10.58
  -1  -4  12   87.72   14.96
  -1  -4  12  102.37   23.83
   1   4 -11  247.70   16.04
   1   4 -11  353.75   71.56
   1   4 -11  232.69   11.90
  -1  -4  11  261.29   27.56
  -1  -4  11  270.83   66.00
   1   4 -10   17.35    7.18
   1   4 -10   13.75   19.35
   1   4 -10   19.56   11.14
  -1  -4  10   31.58   11.36
  -1  -4  10   21.79   21.56
   1   4  -9 1473.36   57.63
   1   4  -9 1586.09   58.36
   1   4  -9 1407.38   48.56
  -1  -4   9 1502.86   55.20
  -1  -4   9 1501.04   54.50
   1   4  -8 5987.02  107.22
   1   4  -8 5875.86  107.72
   1   4  -8 5583.35   98.00
  -1  -4   8 5749.42   98.62
  -1  -4   8 5846.06  107.64
   1   4  -7  464.56   49.54
   1   4  -7  453.14   22.78
   1   4  -7  415.78   24.89
  -1  -4   7  452.67   36.45
  -1  -4   7  436.28   18.76
  -1  -4   7  437.29   24.10
   1   4  -6  158.01   36.39
   1   4  -6  112.60   12.89
   1   4  -6  123.40   32.40
   1   4  -6  136.17   15.17
  -1  -4   6  134.53   25.00
  -1  -4   6  113.69    8.58
  -1  -4   6  142.15   25.12
   1   4  -5   93.36   21.63
   1   4  -5   68.81   15.45
   1   4  -5   67.00   13.48
   1   4  -5   58.79   18.49
  -1  -4   5   50.22   18.10
  -1  -4   5   63.93   21.06
  -1  -4   5   66.61   19.86
   1   4  -4 1088.08   37.69
   1   4  -4 1091.27   44.97
   1   4  -4 1078.64   36.22
   1   4  -4 1117.01   40.35
  -1  -4   4 1009.69   40.31
  -1  -4   4 1051.05   36.65
  -1  -4   4 1048.01   39.10
  -1  -4   4 1012.64   42.18
   1   4  -3 4642.76   51.52
   1   4  -3 4589.62   48.69
   1   4  -3 4403.61   48.00
   1   4  -3 4458.65   58.92
  -1  -4   3 4548.31   50.27
  -1  -4   3 4588.16   50.26
  -1  -4   3 4574.60   52.73
  -1  -4   3 4466.54   46.73
   1   4  -2 3545.65   75.98
   1   4  -2 3696.39   77.79
   1   4  -2 3636.35   80.00
   1   4  -2 3536.46   75.59
  -1  -4   2 3711.57   78.64
  -1  -4   2 3516.33   77.25
  -1  -4   2 3605.44   76.20
  -1  -4   2 3605.19   75.43
   1   4  -1 4566.75   49.71
   1   4  -1 4590.95   49.12
   1   4  -1 4690.40   58.06
   1   4  -1 4666.63   49.32
  -1  -4   1 4548.79   48.77
  -1  -4   1 4541.17   51.64
  -1  -4   1 4673.34   58.47
  -1  -4   1 4530.72   49.23
   1   4   0 2046.82   50.16
   1   4   0 1999.10   45.81
   1   4   0 2061.18   50.22
   1   4   0 2000.06   45.98
  -1  -4   0 2101.19   60.38
  -1  -4   0 2106.83   49.70
  -1  -4   0 2049.65   63.56
   1   4   1 3946.31   67.71
   1   4   1 3999.91   77.91
   1   4   1 3924.38   69.21
   1   4   1 3926.60   67.27
  -1  -4  -1 3982.97   79.91
  -1  -4  -1 3919.97   67.23
  -1  -4  -1 3982.26   73.87
   1   4   2 1488.91   51.45
   1   4   2 1530.51   50.85
   1   4   2 1453.05   48.34
   1   4   2 1505.51   47.37
  -1  -4  -2 1515.64   49.24
  -1  -4  -2 1546.38   48.56
  -1  -4  -2 1483.51   52.85
   1   4   3 1119.89   26.45
   1   4   3  946.21   55.04
   1   4   3 1012.04   43.89
  -1  -4  -3 1226.73   61.97
  -1  -4  -3 1132.55   22.51
  -1  -4  -3 1072.29   38.97
   1   4   4 2232.71   65.89
   1   4   4 2278.56   81.32
  -1  -4  -4 2289.23   67.34
  -1  -4  -4 2331.17   79.28
  -1  -4  -4 2394.17   79.63
   1   4   5  253.64   23.29
  -1  -4  -5  242.70   19.81
  -1  -4  -5  330.49   60.33
  -1  -4  -5  239.13   24.46
  -1  -4  -5  240.95   20.65
   1   4   6  892.51   71.58
   1   4   6  836.99   48.84
  -1  -4  -6  831.42   69.93
  -1  -4  -6  778.93   40.10
  -1  -4  -6  789.37   42.70
   1   4   7  517.52   43.90
   1   4   7  412.67   30.92
  -1  -4  -7  523.59   57.03
  -1  -4  -7  450.05   35.53
  -1  -4  -7  366.25   25.38
   1   4   8 2173.35  103.72
   1   4   8 2257.33  100.47
  -1  -4  -8 2217.67   92.89
  -1  -4  -8 2380.93   95.39
   1   4   9   54.26   32.79
   1   4   9   72.69   26.70
  -1  -4  -9   90.27   16.39
  -1  -4  -9   79.56   19.57
  -1  -4  -9   43.88   13.19
   1   4  10   97.02   40.62
   1   4  10  121.69   58.82
  -1  -4 -10   90.35   29.22
  -1  -4 -10  146.52   25.61
   1   4  11  642.82   79.97
   1   4  11  503.96   99.78
  -1  -4 -11  527.40   29.30
  -1  -4 -11  558.43   28.58
   1   4  12 2363.67  101.43
   1   4  12 2358.06  109.37
  -1  -4 -12 2444.37  101.44
   1   4  13  515.30   29.17
   1   4  13  529.34   47.72
  -1  -4 -13  557.11   72.18
   1   4  14  242.72   74.92
   1   4  14  219.13   63.84
  -1  -4 -14  220.15   83.52
   1   4  15   20.92   15.24
   1   4  15   14.03   16.37
  -1  -4 -15   25.75   19.07
   1   4  16  803.19   53.77
   1   4  16  771.69   50.93
  -1  -4 -16  807.50   51.81
   1   4  17  561.81   84.31
   1   4  17  685.54   71.81
  -1  -4 -17  613.71   84.87
   1   5 -21  157.35   75.48
  -1  -5  21  177.85   75.65
   1   5 -20  443.48   57.14
   1   5 -20  362.13   38.18
  -1  -5  20  410.08   97.03
   1   5 -19   83.72   30.50
   1   5 -19   90.71   38.61
  -1  -5  19  114.71   52.01
   1   5 -18  282.11   50.03
   1   5 -18  347.77   60.76
  -1  -5  18  273.40   98.11
   1   5 -17 1236.47   77.33
   1   5 -17 1272.37  117.29
  -1  -5  17 1386.01  113.61
   1   5 -16 1868.13   78.96
   1   5 -16 2057.42   87.37
  -1  -5  16 2008.25   85.55
  -1  -5  16 1948.83   75.31
   1   5 -15  425.97   39.37
   1   5 -15  398.41   39.96
  -1  -5  15  415.93  100.05
  -1  -5  15  369.30   36.23
   1   5 -14  108.83   25.23
   1   5 -14   87.99   33.48
  -1  -5  14   48.67   23.47
  -1  -5  14   52.79   14.70
   1   5 -13    9.86   12.28
   1   5 -13   -0.58   12.85
   1   5 -13    3.38    5.28
  -1  -5  13    0.51    3.90
  -1  -5  13    8.41    9.39
   1   5 -12 2746.28   92.17
   1   5 -12 2808.84   90.68
   1   5 -12 2507.50   73.89
  -1  -5  12 2864.69   81.79
  -1  -5  12 2885.27  111.56
   1   5 -11  886.41   49.44
   1   5 -11  952.24   57.91
   1   5 -11  948.79   52.15
  -1  -5  11  895.88   47.34
  -1  -5  11  913.36   62.82
   1   5 -10   25.61   11.89
   1   5 -10   75.56   48.83
   1   5 -10   26.67    6.76
  -1  -5  10   90.10   17.22
  -1  -5  10   40.83   22.73
   1   5  -9  459.36   40.77
   1   5  -9  422.82   29.06
   1   5  -9  428.58   27.80
  -1  -5   9  383.51   21.43
  -1  -5   9  459.83   52.48
   1   5  -8 3547.60  106.97
   1   5  -8 3519.38  114.82
   1   5  -8 3431.69   96.51
  -1  -5   8 3397.77   99.52
   1   5  -7 3066.03   91.18
   1   5  -7 3070.19   91.98
   1   5  -7 2949.30   83.94
   1   5  -7 3112.29   86.64
  -1  -5   7 3078.31   90.99
   1   5  -6 1455.76   57.77
   1   5  -6 1409.08   43.43
   1   5  -6 1229.23   41.04
  -1  -5   6 1277.47   42.07
  -1  -5   6 1246.27   45.36
  -1  -5   6 1252.24   42.76
   1   5  -5  321.73   34.09
   1   5  -5  330.48   26.44
   1   5  -5  296.01   19.36
   1   5  -5  319.06   16.91
  -1  -5   5  313.18   26.92
  -1  -5   5  344.11   25.68
  -1  -5   5  353.08   44.00
   1   5  -4 3084.65   90.12
   1   5  -4 3047.91   87.78
   1   5  -4 3022.38   92.65
  -1  -5   4 3029.60   94.26
  -1  -5   4 3129.54   96.77
  -1  -5   4 3102.00   92.80
  -1  -5   4 2875.48   83.29
  -1  -5   4 3107.63   89.81
   1   5  -3 9286.33  157.14
   1   5  -3 8769.95  140.71
   1   5  -3 9486.51  153.29
  -1  -5   3 9094.49  147.37
  -1  -5   3 9001.10  151.57
  -1  -5   3 9355.97  157.02
  -1  -5   3 9204.32  146.88
   1   5  -212055.30  194.20
   1   5  -212070.18  191.77
   1   5  -211935.29  193.08
   1   5  -211667.56  185.71
  -1  -5   212366.29  195.79
  -1  -5   211730.78  188.06
  -1  -5   211947.70  190.79
  -1  -5   211641.84  184.29
   1   5  -1 2594.92   77.26
   1   5  -1 2464.54   76.22
   1   5  -1 2381.70   70.75
   1   5  -1 2423.95   72.68
  -1  -5   1 2388.72   76.93
  -1  -5   1 2508.17   74.78
  -1  -5   1 2493.70   73.51
  -1  -5   1 2602.30   87.55
   1   5   0  161.73   23.45
   1   5   0  172.25   13.93
   1   5   0  146.68   17.61
   1   5   0  166.38   13.45
  -1  -5   0  158.51   16.09
  -1  -5   0  133.58   12.53
  -1  -5   0  162.70   33.49
  -1  -5   0  161.51   14.71
   1   5   1   12.86    7.03
   1   5   1   18.41    9.17
   1   5   1    5.76    5.71
  -1  -5  -1   16.57   10.80
  -1  -5  -1   15.89    9.50
  -1  -5  -1    6.37    5.72
   1   5   2 4221.42   84.73
   1   5   2 4136.69   80.56
   1   5   2 4187.99   78.78
  -1  -5  -2 4397.18   84.73
  -1  -5  -2 4487.93   82.69
  -1  -5  -2 4389.67   78.64
   1   5   3  295.46   20.03
   1   5   3  278.76   24.87
  -1  -5  -3  253.54   20.67
  -1  -5  -3  262.28   33.77
  -1  -5  -3  248.73   17.88
   1   5   4  674.95   42.62
   1   5   4  609.96   36.58
  -1  -5  -4  629.52   39.55
  -1  -5  -4  587.80   36.17
  -1  -5  -4  627.53   44.26
   1   5   5   20.79   14.86
  -1  -5  -5    6.59    3.85
  -1  -5  -5   19.12   16.57
  -1  -5  -5   36.59   26.78
  -1  -5  -5    6.10    4.52
   1   5   6  727.22   52.82
  -1  -5  -6  677.85   44.24
  -1  -5  -6  705.30   45.81
  -1  -5  -6  695.23   24.60
   1   5   7  940.65   50.69
   1   5   7  910.83   68.29
  -1  -5  -7  916.32   47.19
  -1  -5  -7  980.49   48.84
  -1  -5  -7  830.73   23.78
   1   5   8 1105.37   68.23
   1   5   8 1207.48   78.87
  -1  -5  -8 1152.22   55.01
  -1  -5  -8 1170.93   58.10
   1   5   9   29.55   11.19
   1   5   9   15.59   17.89
  -1  -5  -9   29.13    9.96
  -1  -5  -9   27.00   12.76
   1   5  10  502.00   62.67
   1   5  10  589.28   43.26
  -1  -5 -10  529.54   20.99
  -1  -5 -10  547.59   69.77
   1   5  11  318.66   35.31
   1   5  11  321.01   48.89
  -1  -5 -11  379.73   19.17
  -1  -5 -11  332.04   79.44
   1   5  12  518.24   43.94
   1   5  12  557.80   36.57
  -1  -5 -12  623.84   66.95
   1   5  13  988.26   50.34
   1   5  13  999.12  102.06
  -1  -5 -13 1132.56   82.29
   1   5  14   86.36   39.41
  -1  -5 -14  100.80   54.87
   1   5  15  113.63   35.36
   1   5  15  104.88   48.31
  -1  -5 -15  150.32   61.41
   1   5  16  398.81   46.73
   1   5  16  451.55   68.30
  -1  -5 -16  440.45   69.95
   1   5  17  207.86  105.18
   1   5  17  422.00   58.91
   1   6 -21  217.31   36.37
   1   6 -21  188.43   67.57
  -1  -6  21  236.64   86.39
   1   6 -20  116.53   59.80
   1   6 -20  175.91   50.28
  -1  -6  20   95.22   51.30
   1   6 -19  218.42   33.68
   1   6 -19  151.45   68.81
  -1  -6  19  174.82   61.08
   1   6 -18 1021.50   55.40
   1   6 -18 1018.84   93.25
  -1  -6  18 1020.01   76.11
   1   6 -17 1295.10   85.98
   1   6 -17 1508.91   91.32
  -1  -6  17 1574.82   90.58
   1   6 -16  728.02   45.80
   1   6 -16  804.12   66.28
  -1  -6  16  737.85   51.61
   1   6 -15  328.16   69.42
   1   6 -15  330.23   82.29
  -1  -6  15  319.59   73.61
  -1  -6  15  310.79   18.66
   1   6 -14  145.48   52.32
   1   6 -14  181.12   45.32
  -1  -6  14  160.99   43.51
  -1  -6  14  137.53   13.67
   1   6 -13 1009.42   71.56
   1   6 -13  942.48   42.53
  -1  -6  13 1142.08   53.74
  -1  -6  13  939.02   39.60
   1   6 -12 2048.46   94.23
   1   6 -12 2281.74  101.70
   1   6 -12 1900.02   79.25
  -1  -6  12 1890.62   77.78
  -1  -6  12 2113.65   94.26
   1   6 -11  538.19   61.91
   1   6 -11  572.82   74.82
   1   6 -11  397.64   28.64
  -1  -6  11  478.54   36.69
  -1  -6  11  578.84   65.56
   1   6 -10   33.27   17.05
   1   6 -10   30.02   26.86
   1   6 -10   14.00    7.49
   1   6 -10   28.32   11.29
  -1  -6  10   20.30   23.38
   1   6  -9 1234.68   62.24
   1   6  -9 1302.37   60.47
   1   6  -9 1220.52   53.91
   1   6  -9 1284.44   56.08
  -1  -6   9 1220.48   55.48
   1   6  -8 3007.73   82.50
   1   6  -8 2952.95   82.46
   1   6  -8 2832.50   74.92
   1   6  -8 2919.04   70.55
  -1  -6   8 2961.47   78.12
   1   6  -7  329.64   51.29
   1   6  -7  268.25   21.15
   1   6  -7  310.78   21.67
  -1  -6   7  307.93   41.09
  -1  -6   7  283.75   24.63
   1   6  -6 2179.71   46.34
   1   6  -6 2560.22   74.56
   1   6  -6 2524.92   72.75
  -1  -6   6 2524.35   79.31
  -1  -6   6 2185.37   67.87
   1   6  -5   11.14    8.91
   1   6  -5    7.96   11.41
  -1  -6   5   13.37    9.20
  -1  -6   5   22.51   15.87
  -1  -6   5    1.65    2.39
   1   6  -4 5253.98   99.00
   1   6  -4 5460.38   94.00
   1   6  -4 5658.02  101.87
  -1  -6   4 5427.68   94.16
  -1  -6   4 5596.31  103.37
  -1  -6   4 5491.97   93.80
   1   6  -3 6826.89  123.68
   1   6  -3 6715.75  111.31
  -1  -6   3 6994.43  117.56
  -1  -6   3 6866.19  122.60
  -1  -6   3 6759.75  114.59
   1   6  -2 5283.00   94.73
   1   6  -2 4983.90   85.42
   1   6  -2 5037.62   92.20
  -1  -6   2 4946.75   93.40
  -1  -6   2 5311.26   90.24
  -1  -6   2 5092.33   91.45
   1   6  -1 2004.75   77.40
   1   6  -1 2058.82   72.08
   1   6  -1 1968.06   79.75
  -1  -6   1 1989.34   80.42
  -1  -6   1 2143.49   83.20
   1   6   0  928.35   69.95
   1   6   0  816.61   36.80
  -1  -6   0  888.09   39.87
  -1  -6   0  902.42   39.18
  -1  -6   0  841.77   42.68
   1   6   1    4.59    8.54
   1   6   1   16.48    9.04
   1   6   1   23.50    8.78
  -1  -6  -1   11.38   10.09
  -1  -6  -1   25.23    9.83
  -1  -6  -1   19.23    9.82
   1   6   2 3272.49   94.43
   1   6   2 3218.09   95.71
  -1  -6  -2 3090.37   90.59
  -1  -6  -2 3359.58  101.17
  -1  -6  -2 3379.09   99.18
   1   6   3  924.64   44.83
   1   6   3  920.50   57.23
  -1  -6  -3  964.60   46.82
  -1  -6  -3  815.86   44.02
  -1  -6  -3 1009.38   48.54
   1   6   4 1227.18   83.82
   1   6   4 1156.03   60.82
  -1  -6  -4 1108.81   70.12
  -1  -6  -4 1167.84   60.14
   1   6   5   89.69   24.64
   1   6   5   98.09   28.91
  -1  -6  -5  105.43   23.62
  -1  -6  -5  148.14   32.34
   1   6   6   32.41   14.41
  -1  -6  -6   73.95   20.93
  -1  -6  -6   63.81   14.77
  -1  -6  -6   55.34   14.38
   1   6   7  882.62   60.80
   1   6   7  812.65   49.88
  -1  -6  -7  721.26   52.74
  -1  -6  -7  760.04   43.53
   1   6   8  540.18   41.16
   1   6   8  590.86   72.59
  -1  -6  -8  597.44   29.42
  -1  -6  -8  538.78   31.93
   1   6   9  287.02   29.20
   1   6   9  239.47   50.73
  -1  -6  -9  233.92   15.18
  -1  -6  -9  275.04   70.49
   1   6  10   17.12   13.48
   1   6  10   11.88   16.80
  -1  -6 -10    1.76    5.44
  -1  -6 -10    5.10   16.22
   1   6  11  309.84   67.76
   1   6  11  233.27   48.27
  -1  -6 -11  349.32   91.86
   1   6  12 1293.47   98.76
   1   6  12 1396.32  108.86
  -1  -6 -12 1166.63   89.09
   1   6  13  543.34   49.43
   1   6  13  363.17  108.62
  -1  -6 -13  548.04   60.33
   1   6  14   12.38   14.06
   1   6  14   10.59    9.16
  -1  -6 -14   20.70   18.31
   1   6  15   21.27   30.75
  -1  -6 -15   38.59   25.11
   1   6  16  113.60   79.25
   1   7 -21  357.17   75.14
  -1  -7  21  445.11   59.29
   1   7 -20    0.32   19.09
   1   7 -20   12.96   11.53
  -1  -7  20   19.13   23.96
   1   7 -19  736.28   88.08
  -1  -7  19  709.03  103.99
   1   7 -18  830.06   90.28
   1   7 -18  776.42   76.22
  -1  -7  18  880.12   85.35
   1   7 -17 1368.85   86.95
   1   7 -17 1407.73  100.66
  -1  -7  17 1394.43  136.07
   1   7 -16  670.02   66.05
   1   7 -16  800.53   78.59
  -1  -7  16  819.71   66.80
   1   7 -15   18.05   16.96
   1   7 -15    7.18   18.85
  -1  -7  15   32.82   21.06
   1   7 -14   21.03   10.63
   1   7 -14   32.07   19.88
  -1  -7  14   14.06   19.60
   1   7 -13 2250.16   86.55
   1   7 -13 2069.97   91.95
   1   7 -13 1907.92   78.09
  -1  -7  13 2219.86   97.95
   1   7 -12 4225.33  157.45
   1   7 -12 3818.70  145.01
   1   7 -12 4036.99  141.29
   1   7 -12 3760.35  130.74
  -1  -7  12 4023.41  155.45
   1   7 -11 1007.61   50.31
   1   7 -11 1067.58   63.83
   1   7 -11  998.75   43.82
   1   7 -11  913.60   41.55
  -1  -7  11 1089.57   77.95
   1   7 -10  114.36   35.28
   1   7 -10  154.53   31.13
   1   7 -10  139.47   17.81
   1   7 -10  128.80   12.55
  -1  -7  10   99.07   23.19
   1   7  -9  653.96   48.40
   1   7  -9  584.20   37.12
   1   7  -9  586.70   37.66
  -1  -7   9  574.47   39.99
  -1  -7   9  756.71   49.72
   1   7  -8  840.78   47.75
   1   7  -8  750.24   42.15
   1   7  -8  768.53   42.68
  -1  -7   8  852.86   54.39
  -1  -7   8  841.11   48.84
   1   7  -7 1896.14   83.63
   1   7  -7 1731.16   72.26
   1   7  -7 2114.89   93.08
  -1  -7   7 1741.64   77.44
  -1  -7   7 1755.40   76.85
   1   7  -6  335.08   40.29
   1   7  -6  286.05   17.32
   1   7  -6  312.18   28.22
  -1  -7   6  354.84   23.97
  -1  -7   6  383.75   36.15
   1   7  -5 1057.31   47.88
   1   7  -5 1132.69   52.93
  -1  -7   5 1013.42   54.22
  -1  -7   5 1100.40   48.88
  -1  -7   5 1091.48   45.21
   1   7  -4  918.19   41.64
   1   7  -4 1035.79   49.59
  -1  -7   4  895.95   52.91
  -1  -7   4  995.77   44.95
  -1  -7   4  902.91   40.87
   1   7  -3 2249.73   80.97
   1   7  -3 2136.37   78.01
  -1  -7   3 2219.72   66.01
  -1  -7   3 2208.96   67.46
  -1  -7   3 2093.34   78.12
   1   7  -2 2373.38   82.42
   1   7  -2 2463.34   78.44
  -1  -7   2 2353.21   72.23
  -1  -7   2 2257.76   68.16
   1   7  -1 1474.32   63.24
   1   7  -1 1477.54   60.75
  -1  -7   1 1454.16   50.24
  -1  -7   1 1504.78   54.21
   1   7   0 3250.65   88.05
   1   7   0 3389.25   88.14
  -1  -7   0 3256.71   88.08
  -1  -7   0 3324.33   84.68
   1   7   1  117.22   38.97
   1   7   1  140.41   40.89
  -1  -7  -1  139.47   32.84
  -1  -7  -1  161.25   39.90
   1   7   2 3774.58  115.57
   1   7   2 3441.11   91.34
  -1  -7  -2 3672.74  105.79
  -1  -7  -2 3484.85   89.20
   1   7   3 2119.80  104.80
   1   7   3 2178.99  118.36
  -1  -7  -3 2066.14  102.06
  -1  -7  -3 2006.62   85.19
   1   7   4  795.11   44.74
   1   7   4  832.02   40.19
  -1  -7  -4  765.03   42.40
  -1  -7  -4  822.82   61.92
   1   7   5  135.02   26.71
   1   7   5  168.62   39.76
  -1  -7  -5  180.30   17.32
  -1  -7  -5  150.14   29.77
   1   7   6 1051.87   62.19
  -1  -7  -6 1039.05   28.99
  -1  -7  -6 1224.00   69.96
  -1  -7  -6 1114.57   78.28
   1   7   7   24.34   15.30
   1   7   7   20.05   11.86
  -1  -7  -7    8.74    6.67
  -1  -7  -7   17.26   16.95
   1   7   8   94.18   32.40
   1   7   8  129.16   43.36
  -1  -7  -8  105.99   28.73
  -1  -7  -8  191.56   38.78
   1   7   9 1097.05   71.39
   1   7   9  980.17   62.41
  -1  -7  -9 1033.15   36.08
  -1  -7  -9 1030.26   81.12
   1   7  10  229.77   61.94
   1   7  10  240.86   37.57
  -1  -7 -10  253.27   73.05
   1   7  11 1281.66  133.08
   1   7  11 1158.15  105.24
  -1  -7 -11 1299.79   92.95
   1   7  12  492.18   78.55
  -1  -7 -12  495.82   69.50
   1   7  13  600.39   61.08
   1   7  13  601.72   50.96
  -1  -7 -13  567.98   75.84
   1   7  14   10.25   15.30
  -1  -7 -14    4.52   18.65
   1   8 -21  194.02   69.40
   1   8 -21  209.99   87.50
  -1  -8  21  127.08   60.05
   1   8 -20   38.57   25.58
   1   8 -20   37.57   29.18
   1   8 -19  149.14   51.98
   1   8 -19  107.46   53.94
  -1  -8  19  117.87   47.85
   1   8 -18 1291.51   81.12
   1   8 -18 1382.92   90.96
  -1  -8  18 1436.58   89.37
   1   8 -17 1221.33   87.62
   1   8 -17 1208.30   95.24
  -1  -8  17 1222.51   96.69
   1   8 -16  317.17   91.42
   1   8 -16  299.39   81.03
  -1  -8  16  274.53   79.84
   1   8 -15   21.60   12.06
   1   8 -15    7.27   15.46
  -1  -8  15   19.37   13.88
   1   8 -14   41.04   20.79
   1   8 -14   11.55   19.51
  -1  -8  14   28.32   18.04
   1   8 -13  504.95   35.56
   1   8 -13  419.00   32.90
   1   8 -13  435.37   20.58
  -1  -8  13  502.36   98.07
   1   8 -12  376.20   36.08
   1   8 -12  352.45   24.23
   1   8 -12  283.29   16.57
  -1  -8  12  350.02   30.13
   1   8 -11  472.64   45.90
   1   8 -11  453.12   33.56
   1   8 -11  451.77   32.37
  -1  -8  11  493.86   54.66
  -1  -8  11  505.87   55.28
   1   8 -10   96.36   22.46
   1   8 -10   66.09   11.81
   1   8 -10   94.42   21.14
  -1  -8  10  105.09   30.96
  -1  -8  10   89.09   24.90
   1   8  -9   27.30   16.62
   1   8  -9   22.07    4.15
   1   8  -9   39.31   10.38
  -1  -8   9   24.73   16.28
  -1  -8   9   28.80   13.46
   1   8  -8  578.68   75.86
   1   8  -8  440.29   29.53
   1   8  -8  488.29   32.42
  -1  -8   8  467.01   55.70
  -1  -8   8  549.29   53.15
   1   8  -7 2020.80   94.07
   1   8  -7 1754.42   76.00
   1   8  -7 1807.90   79.65
  -1  -8   7 1889.62   90.39
  -1  -8   7 2060.00   95.20
   1   8  -6    3.34   14.32
   1   8  -6   11.26   11.64
  -1  -8   6   68.93   28.07
  -1  -8   6   15.45    7.72
  -1  -8   6    4.40    5.09
   1   8  -5  461.36   38.61
   1   8  -5  452.38   45.41
  -1  -8   5  475.34   41.33
  -1  -8   5  450.09   29.70
  -1  -8   5  421.51   25.15
   1   8  -4 1517.62   73.63
   1   8  -4 1533.79   77.58
  -1  -8   4 1394.00   60.93
  -1  -8   4 1483.08   30.60
   1   8  -3 1898.42   86.21
   1   8  -3 1895.75   92.35
  -1  -8   3 2047.04   98.23
  -1  -8   3 1894.91   93.79
   1   8  -2 1198.17   65.29
   1   8  -2 1239.05   58.20
  -1  -8   2 1098.54   61.23
  -1  -8   2 1210.58   53.93
   1   8  -1   99.67   81.56
   1   8  -1  121.00   43.84
  -1  -8   1  171.12   52.21
  -1  -8   1  132.83   33.73
   1   8   0 1723.39  102.37
   1   8   0 1400.17   66.02
  -1  -8   0 1416.00   70.10
  -1  -8   0 1420.23   71.52
   1   8   1 1568.89   95.54
   1   8   1 1603.96   75.74
  -1  -8  -1 1534.83   71.21
  -1  -8  -1 1613.52   75.26
   1   8   2 6197.81  170.71
   1   8   2 6114.29  171.10
  -1  -8  -2 6109.76  176.80
  -1  -8  -2 6390.15  176.13
   1   8   3 6709.66   60.14
   1   8   3 6650.72  203.60
  -1  -8  -3 6672.99   64.11
  -1  -8  -3 6303.19  195.97
   1   8   4  947.34   57.25
   1   8   4  986.94   58.69
  -1  -8  -4  967.00   71.71
  -1  -8  -4  981.25   55.94
   1   8   5  747.17   51.91
   1   8   5  776.15   56.69
  -1  -8  -5  898.67   70.41
  -1  -8  -5  780.80   44.41
   1   8   6  383.84   84.04
  -1  -8  -6  345.08   29.00
  -1  -8  -6  365.73   49.40
  -1  -8  -6  427.23   39.87
   1   8   7  770.40   71.74
   1   8   7  832.43   58.51
  -1  -8  -7  735.21   30.22
  -1  -8  -7  724.15   32.37
   1   8   8  425.30   38.09
   1   8   8  473.42   99.92
  -1  -8  -8  563.92   28.89
  -1  -8  -8  513.38   72.76
   1   8   9   84.98   23.12
   1   8   9   91.16   34.46
  -1  -8  -9   91.55   20.08
  -1  -8  -9  168.95   40.22
   1   8  10  165.41   59.21
   1   8  10  237.67   52.78
  -1  -8 -10  181.07   64.28
   1   8  11  933.65  102.82
   1   8  11 1161.49   88.58
  -1  -8 -11 1139.80  116.18
   1   8  12  560.08   57.51
   1   8  12  378.47   66.90
  -1  -8 -12  527.54   56.24
   1   8  13  295.14   92.72
   1   8  13  343.83   55.08
  -1  -8 -13  361.85   54.70
   1   8  14    3.70    8.19
   1   8  14   13.60    9.60
   1   9 -22  281.73   77.68
   1   9 -21   70.97   46.62
   1   9 -20   21.13   17.33
  -1  -9  20   19.52   23.94
   1   9 -19   19.33   22.23
   1   9 -19   30.72   20.83
  -1  -9  19   47.89   26.27
   1   9 -18  994.02   52.54
   1   9 -18  956.11   93.43
  -1  -9  18  924.02   77.98
   1   9 -17  995.67   95.95
   1   9 -17 1069.45   75.78
  -1  -9  17 1037.83  110.04
   1   9 -16  545.48   28.97
   1   9 -16  435.95   69.65
  -1  -9  16  385.57   38.84
   1   9 -15   37.41    9.74
   1   9 -15   73.33   26.40
  -1  -9  15  116.00   38.78
   1   9 -14  185.97   49.84
   1   9 -14  219.17   57.65
  -1  -9  14  190.88   63.16
   1   9 -13  348.16   44.73
  -1  -9  13  387.40   92.26
  -1  -9  13  393.65   83.14
   1   9 -12  106.89   29.80
   1   9 -12   91.16   17.49
  -1  -9  12   94.27   36.22
  -1  -9  12  130.69   27.02
   1   9 -11  474.97   51.67
   1   9 -11  508.13   31.95
  -1  -9  11  508.43   52.44
  -1  -9  11  408.99   45.35
   1   9 -10   21.20   18.31
   1   9 -10   27.35   10.14
   1   9 -10   22.94   12.13
  -1  -9  10   16.86   17.16
  -1  -9  10   41.16   22.23
   1   9  -9  348.76   33.10
   1   9  -9  321.26   30.70
   1   9  -9  356.14   29.67
  -1  -9   9  405.00   36.72
  -1  -9   9  388.39   35.66
   1   9  -8  225.79   54.51
   1   9  -8  206.36   24.93
   1   9  -8  265.24   35.74
  -1  -9   8  246.68   74.04
  -1  -9   8  289.76   28.02
   1   9  -7  761.07   46.35
   1   9  -7  859.80   48.26
  -1  -9   7  811.55   47.35
  -1  -9   7  802.89   47.34
   1   9  -6  112.33   38.40
   1   9  -6   80.34   30.21
  -1  -9   6   77.38   28.07
  -1  -9   6   88.15   29.60
   1   9  -5   27.23   18.22
   1   9  -5    8.95   12.84
  -1  -9   5   -5.27   15.54
  -1  -9   5   14.98   13.70
   1   9  -4  758.75   71.98
   1   9  -4  827.98   53.51
  -1  -9   4  769.73   50.94
  -1  -9   4  847.78   58.36
   1   9  -3 1857.91   82.48
   1   9  -3 2086.68   91.95
  -1  -9   3 1950.32   83.33
  -1  -9   3 1919.41   84.88
   1   9  -2  702.67   86.15
   1   9  -2  592.03   49.67
  -1  -9   2  604.65   49.56
  -1  -9   2  641.29   44.24
   1   9  -1   88.08   50.15
  -1  -9   1   93.93   28.54
  -1  -9   1   79.93   31.09
   1   9   0   19.78   13.31
   1   9   0   15.76   15.86
  -1  -9   0   13.91   13.07
  -1  -9   0   18.85   13.03
   1   9   1  610.32   52.82
   1   9   1  654.54   89.63
  -1  -9  -1  649.63   45.15
  -1  -9  -1  555.31   50.59
   1   9   2 1387.22   65.59
   1   9   2 1406.47   66.54
  -1  -9  -2 1338.02   64.24
  -1  -9  -2 1425.70   70.16
   1   9   3 1849.96   90.50
   1   9   3 1939.05   95.41
  -1  -9  -3 2030.72   97.67
  -1  -9  -3 1862.46   90.89
   1   9   4  512.75   49.14
   1   9   4  499.88   45.39
  -1  -9  -4  479.82   51.11
  -1  -9  -4  438.36   54.63
   1   9   5   18.14   10.89
   1   9   5   32.97   26.68
  -1  -9  -5   10.89    6.03
  -1  -9  -5   17.38   10.72
   1   9   6  698.98   34.53
  -1  -9  -6  769.16   54.48
  -1  -9  -6  745.56   39.61
   1   9   7  765.20   77.63
   1   9   7  602.56   44.96
  -1  -9  -7  750.47   38.43
  -1  -9  -7  791.37   59.82
   1   9   8  118.20   29.92
   1   9   8  143.63   58.08
  -1  -9  -8  113.47   32.72
  -1  -9  -8  125.96   39.53
   1   9   9   57.39   24.68
   1   9   9   80.05   29.82
  -1  -9  -9   26.83   25.63
   1   9  10  129.11   38.60
   1   9  10  127.91   39.05
  -1  -9 -10  129.71   69.59
   1   9  11  300.22   93.60
   1   9  11  286.35  105.05
  -1  -9 -11  392.24   63.87
   1   9  12  449.80   51.02
   1   9  12  202.94   91.41
  -1  -9 -12  479.93   68.56
   1  10 -22  501.74   44.14
   1  10 -21   17.25   11.99
   1  10 -21   22.13   17.15
   1  10 -20   26.29   28.20
  -1 -10  20   14.07   18.41
   1  10 -19   89.18   40.04
   1  10 -19  106.29   31.14
  -1 -10  19   95.41   39.80
   1  10 -18  733.43   40.43
   1  10 -18  600.31   57.54
  -1 -10  18  546.94   72.33
   1  10 -17  216.86   75.79
   1  10 -17  222.45   60.45
  -1 -10  17  161.69   58.21
   1  10 -16  253.27   28.56
  -1 -10  16  252.92   59.35
  -1 -10  16  179.10   49.20
   1  10 -15   10.62    9.99
  -1 -10  15   11.28    6.68
  -1 -10  15   27.62   18.40
   1  10 -14 1381.26   83.73
  -1 -10  14 1380.15   92.81
  -1 -10  14 1126.09   66.44
   1  10 -13 2027.90   80.96
  -1 -10  13 1938.88   78.43
  -1 -10  13 1927.70   95.70
   1  10 -12 3639.88  133.30
  -1 -10  12 3877.67  122.84
  -1 -10  12 3658.13  145.26
   1  10 -11  529.78   31.43
   1  10 -11  503.30   27.12
  -1 -10  11  491.60   36.16
  -1 -10  11  548.84   64.49
   1  10 -10   92.04   24.93
  -1 -10  10   95.90   29.32
  -1 -10  10   96.49   31.43
   1  10  -9  159.41   53.67
   1  10  -9  241.05   35.75
  -1 -10   9  205.57   23.52
  -1 -10   9  253.26   71.32
   1  10  -8  450.72   71.49
   1  10  -8  350.23   12.87
   1  10  -8  424.71   38.59
  -1 -10   8  378.75   32.46
  -1 -10   8  503.14   45.42
   1  10  -7  434.73   82.85
   1  10  -7  357.72   36.28
  -1 -10   7  373.93   28.80
  -1 -10   7  366.44   42.82
   1  10  -6  577.11   55.06
   1  10  -6  522.17   38.00
  -1 -10   6  596.49   45.41
  -1 -10   6  540.23   33.78
   1  10  -5   23.73   19.27
   1  10  -5   19.57   11.06
  -1 -10   5   29.97   16.03
  -1 -10   5   22.05   13.07
   1  10  -4 1578.34   74.72
   1  10  -4 1576.49   89.43
  -1 -10   4 1532.79   73.81
  -1 -10   4 1566.87   76.35
   1  10  -3 3122.25  108.76
   1  10  -3 3375.10  103.00
  -1 -10   3 3304.67  106.03
  -1 -10   3 3361.00  100.11
   1  10  -2  694.95   38.10
   1  10  -2  729.91   45.28
  -1 -10   2  751.75   65.88
  -1 -10   2  691.50   30.19
   1  10  -1  128.37   26.17
   1  10  -1   76.49   23.18
  -1 -10   1   91.20   20.62
  -1 -10   1  101.07   29.62
   1  10   0   62.33   17.78
   1  10   0   94.75   19.27
  -1 -10   0   70.36   24.64
  -1 -10   0   78.28   17.84
   1  10   1  780.41   59.39
   1  10   1  867.37   88.85
  -1 -10  -1  825.64   64.18
  -1 -10  -1  717.59   55.16
   1  10   2    3.48    8.26
   1  10   2   14.70   14.48
  -1 -10  -2   21.03   13.67
  -1 -10  -2    4.91   18.73
   1  10   3 1919.05  103.19
   1  10   3 1851.59  107.40
  -1 -10  -3 2030.58   69.74
  -1 -10  -3 2047.75   79.14
   1  10   4  156.64   29.43
   1  10   4  179.95   38.91
  -1 -10  -4  185.30   37.58
  -1 -10  -4  173.18   52.80
   1  10   5  139.77   43.69
   1  10   5  187.70   64.91
  -1 -10  -5  142.98   30.32
  -1 -10  -5  168.19   35.04
   1  10   6   42.75   20.26
  -1 -10  -6  104.00   26.82
  -1 -10  -6   81.82   23.15
   1  10   7  694.29   44.07
   1  10   7  618.77   54.35
  -1 -10  -7  610.85   34.09
  -1 -10  -7  718.89   93.66
   1  10   8  565.94   60.11
   1  10   8  688.33   75.73
  -1 -10  -8  706.33   77.21
   1  10   9  159.87   62.13
  -1 -10  -9  173.71   56.82
   1  10  10   21.59   19.85
   1  10  10    9.59   11.04
  -1 -10 -10  -20.34   16.04
   1  10  11   -0.57   16.14
   1  11 -21   19.76   17.63
   1  11 -20  135.26   62.61
  -1 -11  20   54.33   27.71
  -1 -11  20   83.82   57.77
   1  11 -19  356.17   79.08
  -1 -11  19  295.39   75.47
  -1 -11  19  309.80   56.15
   1  11 -18  487.65   70.96
  -1 -11  18  351.81   73.50
  -1 -11  18  438.13   77.81
   1  11 -17  646.57   88.62
  -1 -11  17  546.04   72.69
  -1 -11  17  583.65   60.51
  -1 -11  16  160.90   59.05
  -1 -11  16  141.14   42.93
   1  11 -15   47.73   20.71
  -1 -11  15   52.07   23.20
  -1 -11  15   36.53   11.68
   1  11 -14  689.43   39.13
  -1 -11  14  673.92   45.15
  -1 -11  14  601.47   56.74
   1  11 -13  901.15   77.06
  -1 -11  13  946.25   42.12
  -1 -11  13  864.47   66.67
   1  11 -12 2615.90  106.95
  -1 -11  12 2463.87   88.49
  -1 -11  12 2275.69   89.66
   1  11 -11  258.31   25.24
   1  11 -11  224.49   20.55
  -1 -11  11  258.55   63.38
  -1 -11  11  244.34   67.17
   1  11 -10   68.68   25.38
   1  11 -10   36.72   15.38
  -1 -11  10   37.46   22.59
  -1 -11  10   43.85   19.22
   1  11  -9  158.07   37.64
   1  11  -9   96.27   23.11
  -1 -11   9  140.47   36.10
  -1 -11   9  133.63   51.91
   1  11  -8  719.73   67.76
   1  11  -8  691.79   34.30
  -1 -11   8  690.98   52.45
  -1 -11   8  737.34   42.45
   1  11  -7  894.70   52.46
   1  11  -7  849.92   43.22
  -1 -11   7  824.03   53.34
  -1 -11   7  905.07   53.91
   1  11  -6   13.27   11.12
   1  11  -6    6.95    6.95
  -1 -11   6   14.23    4.55
  -1 -11   6   16.11   13.81
   1  11  -5  749.42   47.35
   1  11  -5  808.36   38.51
  -1 -11   5  742.37   40.17
  -1 -11   5  810.17   50.29
   1  11  -4  961.17   45.46
   1  11  -4 1078.34   48.43
  -1 -11   4 1055.35   47.94
  -1 -11   4 1032.16   55.43
   1  11  -3  430.33   29.44
   1  11  -3  457.26   54.85
  -1 -11   3  421.28   46.60
  -1 -11   3  479.65   29.58
   1  11  -2  237.75   30.69
   1  11  -2  283.10   28.65
  -1 -11   2  274.22   26.38
  -1 -11   2  274.95   68.65
   1  11  -1  402.90   23.74
   1  11  -1  397.38   52.83
  -1 -11   1  388.31   39.58
  -1 -11   1  314.39   39.84
   1  11   0  744.08   47.90
   1  11   0  906.26   51.13
  -1 -11   0  777.41   61.23
  -1 -11   0  813.11   49.01
   1  11   1 3335.71  123.10
   1  11   1 3298.54  155.17
  -1 -11  -1 3316.50  105.59
  -1 -11  -1 3311.02  114.96
   1  11   2 1796.57   87.17
   1  11   2 1839.53   71.05
  -1 -11  -2 1752.52   82.27
  -1 -11  -2 1763.81   75.06
   1  11   3 1884.81  100.11
   1  11   3 1798.64  122.12
  -1 -11  -3 1853.26   82.96
  -1 -11  -3 1785.60   71.03
   1  11   4  125.04   39.04
   1  11   4  108.68   45.54
  -1 -11  -4   92.34   24.45
  -1 -11  -4  142.80   36.73
   1  11   5   36.42   17.35
  -1 -11  -5   18.22   15.09
  -1 -11  -5   13.83   16.61
   1  11   6  173.77   34.88
   1  11   6  192.03   63.30
  -1 -11  -6  154.84   40.98
  -1 -11  -6  168.33   54.39
   1  11   7  985.80   83.25
   1  11   7 1023.12   77.10
  -1 -11  -7 1179.67   72.45
   1  11   8 1080.24   73.47
  -1 -11  -8  906.78   83.05
   1  11   9  203.27   84.32
  -1 -11  -9  157.33   59.49
   1  11  10   21.38   16.92
  -1 -11 -10    4.14   11.21
   1  12 -21   12.83    7.43
   1  12 -20   11.68   17.00
  -1 -12  20   -3.34   21.61
   1  12 -19   44.02   30.33
  -1 -12  19   69.02   27.67
  -1 -12  19   70.82   31.19
   1  12 -18  691.96   79.24
  -1 -12  18  592.12   84.47
  -1 -12  18  653.39   58.00
   1  12 -17  902.73   61.69
  -1 -12  17  897.69   83.15
  -1 -12  17  704.62  110.03
   1  12 -16   33.25   24.75
  -1 -12  16   33.62   43.57
  -1 -12  16   30.84   15.62
   1  12 -15  160.58   37.64
  -1 -12  15  140.94   62.36
  -1 -12  15   78.61   38.43
   1  12 -14  764.57   92.99
  -1 -12  14  806.36   38.85
  -1 -12  14  780.28   72.00
   1  12 -13 1065.75   86.05
  -1 -12  13 1055.24   68.50
  -1 -12  13 1036.58   93.80
   1  12 -12 1931.21   78.68
  -1 -12  12 1925.13   81.32
  -1 -12  12 1975.46   77.96
   1  12 -11   69.95   35.36
  -1 -12  11  137.09   44.03
  -1 -12  11  119.42   31.68
   1  12 -10   30.34   24.85
   1  12 -10   19.45    8.67
  -1 -12  10   38.53   19.65
  -1 -12  10   -4.48   14.20
   1  12  -9   30.14   17.88
  -1 -12   9   22.14    6.72
  -1 -12   9   26.84   20.87
   1  12  -8  897.62   43.43
   1  12  -8  783.13   39.58
  -1 -12   8  828.52   41.71
  -1 -12   8  846.91   33.00
   1  12  -7 2219.97   89.59
   1  12  -7 2081.87   86.73
  -1 -12   7 2151.25   93.61
  -1 -12   7 1971.00   60.07
   1  12  -6  575.52   65.47
   1  12  -6  566.35   51.59
  -1 -12   6  646.47   57.92
  -1 -12   6  646.35   73.77
   1  12  -5  388.90  101.90
   1  12  -5  299.15   30.63
  -1 -12   5  307.52   41.77
  -1 -12   5  325.04   55.50
   1  12  -4  168.97   50.71
   1  12  -4  168.20   43.09
  -1 -12   4  171.31   22.23
  -1 -12   4  186.24   63.56
   1  12  -3    7.28   22.87
   1  12  -3    8.78   18.93
  -1 -12   3   58.03   13.31
  -1 -12   3   33.34   10.81
   1  12  -2  490.00   31.07
   1  12  -2  418.61   52.91
  -1 -12   2  359.84   48.56
  -1 -12   2  394.21   36.87
   1  12  -1  199.11   53.82
   1  12  -1  170.71   44.52
  -1 -12   1  137.35   41.11
  -1 -12   1  175.56   51.83
   1  12   0  351.61   39.53
   1  12   0  340.40   52.77
  -1 -12   0  330.26   53.87
  -1 -12   0  299.39   50.82
   1  12   1 1719.45  134.71
   1  12   1 1762.62   82.16
  -1 -12  -1 1582.64   62.96
  -1 -12  -1 1745.44   84.89
   1  12   2 1463.65  118.32
   1  12   2 1352.63   98.93
  -1 -12  -2 1449.12   69.32
  -1 -12  -2 1434.22   65.43
   1  12   3 1289.43   91.68
   1  12   3 1261.95   42.75
  -1 -12  -3 1172.50   73.64
  -1 -12  -3 1285.09   87.06
   1  12   4   25.84   16.71
   1  12   4   40.92   23.92
  -1 -12  -4    9.33    7.59
  -1 -12  -4   39.22   15.44
   1  12   5   55.75   25.33
   1  12   5   58.16   35.72
  -1 -12  -5   52.27   19.44
  -1 -12  -5   63.00   23.48
   1  12   6   71.40   29.53
  -1 -12  -6   87.93   33.84
  -1 -12  -6   56.98   22.50
   1  12   7  586.91   59.48
  -1 -12  -7  477.76   52.77
   1  12   8  817.24  112.63
  -1 -12  -8  844.49   57.35
   1  12   9  173.62   63.70
  -1 -12  -9  138.19   62.68
  -1 -13  19  228.18  113.59
  -1 -13  19  104.08   85.30
   1  13 -18  123.22   40.03
  -1 -13  18   44.16   36.47
   1  13 -17  457.08   77.32
  -1 -13  17  481.83   30.27
  -1 -13  17  263.29  107.15
   1  13 -16   63.99   22.79
  -1 -13  16   36.45   37.89
  -1 -13  16   43.07   14.11
   1  13 -15  102.58   29.88
  -1 -13  15   93.96   43.75
  -1 -13  15   93.89   33.61
   1  13 -14  476.05   43.95
  -1 -13  14  460.77   51.97
  -1 -13  14  506.30   36.32
   1  13 -13  987.30   91.43
  -1 -13  13  947.62   78.21
  -1 -13  13 1027.52   61.81
   1  13 -12 1081.06   85.55
  -1 -13  12 1151.38   67.62
  -1 -13  12 1020.90  107.32
   1  13 -11   76.68   27.59
  -1 -13  11   88.68   32.80
  -1 -13  11   30.89   20.11
   1  13 -10   36.48   28.89
  -1 -13  10   19.04   22.75
  -1 -13  10    8.80   22.48
   1  13  -9  705.57   48.96
   1  13  -9  704.87   42.51
  -1 -13   9  766.52   85.70
  -1 -13   9  735.20   42.56
   1  13  -8 2546.76  159.47
   1  13  -8 2433.86  100.97
  -1 -13   8 2482.66  117.30
  -1 -13   8 2643.52  108.90
   1  13  -7  959.43   65.34
   1  13  -7  943.59   48.86
  -1 -13   7  865.10   36.19
  -1 -13   7  945.67   78.77
   1  13  -6 1254.95  117.13
   1  13  -6 1505.80   86.63
  -1 -13   6 1415.01   93.71
  -1 -13   6 1339.71   74.86
   1  13  -5   78.45   39.98
   1  13  -5   47.50   17.78
  -1 -13   5   80.77   17.52
  -1 -13   5   75.44   27.33
   1  13  -4  285.81   33.69
   1  13  -4  194.41   26.32
  -1 -13   4  206.19   39.00
  -1 -13   4  207.52   69.47
   1  13  -3  308.17   31.79
   1  13  -3  300.12   29.35
  -1 -13   3  287.11   50.42
   1  13  -2  655.29   73.03
   1  13  -2  742.77   43.78
  -1 -13   2  673.87   56.71
  -1 -13   2  620.53   83.22
   1  13  -1  111.83   50.50
   1  13  -1   89.97   20.99
  -1 -13   1   70.09   35.18
  -1 -13   1  112.29   34.72
   1  13   0  214.22   57.32
  -1 -13   0  265.43   38.73
  -1 -13   0  230.80   61.28
   1  13   1 1881.44  117.99
   1  13   1 2013.98  112.19
  -1 -13  -1 1944.24  111.38
  -1 -13  -1 1964.92  119.93
   1  13   2 1602.78  123.11
   1  13   2 1591.06  113.53
  -1 -13  -2 1678.44  115.67
  -1 -13  -2 1540.08  112.85
   1  13   3  353.48   85.18
   1  13   3  431.75   81.97
  -1 -13  -3  421.05   48.52
   1  13   4  148.93   55.60
   1  13   4  145.97   52.14
  -1 -13  -4  246.32   65.97
   1  13   5  195.65   44.69
   1  13   5  151.20   61.80
  -1 -13  -5  240.36   60.06
   1  13   6  697.67   82.37
  -1 -13  -6  700.57   53.39
   1  13   7  282.32   96.87
  -1 -13  -7  201.23   56.56
  -1 -14  19   80.07   57.10
   1  14 -18   95.44   51.24
  -1 -14  18  116.81   39.50
  -1 -14  18  112.71   54.90
   1  14 -17   59.64   24.41
  -1 -14  17   41.80   25.67
  -1 -14  17   56.53   21.99
   1  14 -16    0.80   19.84
  -1 -14  16    1.19    8.01
   1  14 -15  163.50   69.51
  -1 -14  15  218.18   44.52
  -1 -14  15  188.73   71.41
   1  14 -14  930.66   77.28
  -1 -14  14 1040.48   57.12
  -1 -14  14  891.03  122.09
   1  14 -13  972.51   97.34
  -1 -14  13 1039.90   66.22
  -1 -14  13  860.65  108.83
   1  14 -12  693.24   48.96
  -1 -14  12  503.86   76.73
  -1 -14  12  540.24   43.98
   1  14 -11  653.58   81.95
  -1 -14  11  756.54   35.72
  -1 -14  11  614.24   40.63
   1  14 -10   66.44   52.75
  -1 -14  10   75.49   43.75
   1  14  -9  322.51   83.05
  -1 -14   9  425.54   39.56
  -1 -14   9  332.11   32.67
   1  14  -8  864.81   68.28
   1  14  -8  846.31   28.75
  -1 -14   8  931.35   73.40
  -1 -14   8  991.32   66.07
   1  14  -7  864.93   88.31
   1  14  -7  871.88   31.92
  -1 -14   7  824.44   71.67
  -1 -14   7  862.25   47.24
   1  14  -6  236.36   69.53
   1  14  -6  212.67   48.90
  -1 -14   6  317.13   30.61
  -1 -14   6  266.54   70.24
   1  14  -5  310.39   33.99
   1  14  -5  325.33   19.71
  -1 -14   5  270.19   47.77
  -1 -14   5  362.34   33.62
   1  14  -4  294.96   43.18
   1  14  -4  195.60   49.63
  -1 -14   4  185.91   33.67
  -1 -14   4  228.11   62.11
   1  14  -3  781.60   38.69
   1  14  -3  944.39   58.67
  -1 -14   3  874.76   35.25
  -1 -14   3  916.48   62.30
   1  14  -2 1049.09   66.96
   1  14  -2  988.73   53.49
  -1 -14   2  917.70   45.38
  -1 -14   2 1210.58   88.16
   1  14  -1   21.55   22.23
   1  14  -1   25.80   25.00
  -1 -14   1    2.67   10.39
  -1 -14   1   33.72   22.34
   1  14   0  260.70   66.94
   1  14   0  289.47   87.04
  -1 -14   0  302.19   57.27
   1  14   1  352.92   49.13
   1  14   1  392.14   39.86
  -1 -14  -1  307.47   53.63
   1  14   2 1146.59   64.36
   1  14   2 1092.33  111.60
  -1 -14  -2 1170.57   66.99
   1  14   3   92.10   48.15
   1  14   3  104.50   44.03
  -1 -14  -3  106.70   47.23
   1  14   4   38.90   17.45
   1  14   4   31.35   12.11
  -1 -14  -4   97.30   20.39
   1  14   5  785.24  101.54
  -1 -14  -5 1061.70   69.62
   1  14   6 1427.22  138.73
  -1 -15  18  141.43   86.98
   1  15 -17  273.36   48.91
  -1 -15  17  219.82   47.62
   1  15 -16   23.44   20.63
  -1 -15  16   -0.43   16.85
  -1 -15  16   26.05   19.76
   1  15 -15  183.89   87.17
  -1 -15  15  146.05   97.90
  -1 -15  15  247.07   40.14
   1  15 -14  781.68   89.28
  -1 -15  14  767.87   59.57
  -1 -15  14  912.48   54.36
   1  15 -13 2117.20   67.77
  -1 -15  13 2089.35   66.78
  -1 -15  13 1843.62  103.36
   1  15 -12  300.79   99.08
  -1 -15  12  254.47  106.42
  -1 -15  12  317.64   44.68
   1  15 -11   43.88   19.33
  -1 -15  11   49.21   25.75
  -1 -15  11   61.91   25.33
   1  15 -10   11.94   12.21
  -1 -15  10   15.18   25.06
  -1 -15  10   45.14   33.55
   1  15  -9  539.29   60.41
  -1 -15   9  563.08   57.65
  -1 -15   9  635.16   65.54
   1  15  -8 1047.12   83.40
  -1 -15   8 1275.44   79.07
  -1 -15   8 1139.55   79.17
   1  15  -7  479.95   90.96
   1  15  -7  510.26   29.72
  -1 -15   7  501.38   69.38
  -1 -15   7  518.56   78.42
   1  15  -6  171.51   59.12
   1  15  -6  234.12   59.98
  -1 -15   6  176.21   64.37
  -1 -15   6  286.42   42.54
   1  15  -5   19.06    9.17
   1  15  -5   18.71   12.96
  -1 -15   5    7.10    8.25
  -1 -15   5    4.92   16.57
   1  15  -4   96.21   92.38
   1  15  -4  155.72   48.40
  -1 -15   4  179.97   30.25
  -1 -15   4  211.45   73.79
   1  15  -3  387.43  108.87
   1  15  -3  350.61   54.94
  -1 -15   3  392.33   87.51
   1  15  -2   27.53   17.23
   1  15  -2   27.56   25.26
  -1 -15   2   38.10   20.19
   1  15  -1   35.32   28.02
  -1 -15   1   23.00   18.61
   1  15   0   15.38   15.08
   1  15   0   21.80   11.06
  -1 -15   0   19.70   11.02
   1  15   1  378.39   40.60
   1  15   1  266.81  100.39
  -1 -15  -1  345.18   56.01
   1  15   2  530.12   35.27
   1  15   2  507.26   82.33
  -1 -15  -2  541.52   66.01
   1  15   3   13.41    8.32
   1  15   3   49.32   34.58
  -1 -15  -3   38.09   23.62
   1  15   4   20.89   24.20
  -1 -16  17  404.16   60.97
  -1 -16  16   65.04   28.48
   1  16 -15  209.12  102.42
  -1 -16  15  320.72   71.84
  -1 -16  15  205.00   81.30
   1  16 -14  454.45   78.86
  -1 -16  14  370.90   82.83
  -1 -16  14  302.61   59.97
   1  16 -13  884.71   53.72
  -1 -16  13  929.45   50.26
  -1 -16  13  983.09   68.51
   1  16 -12  189.65   75.78
  -1 -16  12  222.87   41.71
  -1 -16  12  236.98   58.62
   1  16 -11  109.75   25.71
  -1 -16  11   79.56   37.14
  -1 -16  11   75.16   28.40
   1  16 -10   86.11   28.86
  -1 -16  10   54.60   38.17
  -1 -16  10   78.16   17.48
   1  16  -9  646.56   42.37
  -1 -16   9  641.84   84.61
  -1 -16   9  692.79   40.88
   1  16  -8  790.91   73.88
  -1 -16   8  924.84  103.79
  -1 -16   8  885.20   43.09
   1  16  -7  464.51   67.31
  -1 -16   7  498.64   79.74
   1  16  -6  136.49   42.05
  -1 -16   6  151.44   45.89
   1  16  -5   34.57   21.43
   1  16  -5    5.48   10.99
  -1 -16   5    2.01   13.71
   1  16  -4  157.48   43.78
   1  16  -4  101.39   40.37
  -1 -16   4  158.06   40.89
   1  16  -3   41.24   23.27
  -1 -16   3   35.88   15.11
   1  16  -2   51.84   32.72
  -1 -16   2   32.23   15.73
   1  16  -1   23.29   12.67
   1  16  -1    7.45   11.00
  -1 -16   1   16.00   16.55
   1  16   0   11.43   10.83
  -1 -16   0   23.69   21.83
   1  16   1   86.17   27.69
   1  16   1  145.27   39.79
  -1 -16  -1   86.94   61.42
   1  16   2  259.78   73.98
  -1 -17  16    5.29    9.53
  -1 -17  15  168.02   72.53
  -1 -17  14   80.55   38.36
  -1 -17  14   71.88   41.75
  -1 -17  13  172.60   59.21
  -1 -17  13  150.89   57.46
   1  17 -12   15.62   19.92
  -1 -17  12   11.77   19.48
   1  17 -11   20.22   20.69
  -1 -17  11   -5.91   17.49
   1  17 -10  338.29  126.66
  -1 -17  10  429.06   72.84
   1  17  -9  841.76   99.45
  -1 -17   9  994.95   65.04
   1  17  -8  722.01   67.81
   1  17  -7  225.30   49.28
  -1 -17   7  327.86   56.05
   1  17  -6   30.23   17.67
  -1 -17   6   18.07   22.00
   1  17  -5   11.82   22.15
  -1 -17   5    9.51   12.78
   1  17  -4  404.61   63.35
   1  17  -4  293.32   62.77
  -1 -17   4  586.20   34.15
   1  17  -3  975.62  111.58
   1  17  -3 1091.97   68.81
  -1 -17   3  946.07  116.23
   1  17  -2  263.65   99.89
   1  17  -2  230.38   80.92
  -1 -17   2  357.43   39.43
   1  17  -1   20.64    9.75
   1  17   0   23.84   17.54
   1  17   0   37.63   17.08
   1  17   1  119.16   36.42
  -1 -18   9 1264.34   90.43
  -1 -18   8  507.49   90.21
  -1 -18   7  195.66   95.20
   1  18  -6   -0.15   17.53
   1  18  -5   19.54   20.86
   1  18  -4  189.40   61.76
   1  18  -3  857.27  111.25
  -2  18   1   13.75   12.15
  -2  18   0   11.18    9.93
  -2  18  -1   91.03   46.89
  -2  18  -2  610.66  103.41
   2 -18   3  590.32  126.47
  -2  18  -3  616.80   91.56
   2 -18   4   14.61   18.16
  -2  18  -4   -3.31   15.86
   2 -18   5  142.01   88.11
  -2  18  -5  188.35   62.40
   2 -18   6  101.93   71.64
  -2  18  -6   94.04   57.33
  -2  18  -7  836.35   74.65
   2 -18   8  634.75   77.21
  -2  18  -8  570.53   81.64
   2 -18   9  260.65   87.83
  -2  18  -9  180.57   97.50
   2 -18  10   28.84   31.70
  -2  18 -10   53.95   44.09
   2 -17  -4   -0.54   13.91
  -2  17   3   28.23   21.57
  -2  17   2   57.81   28.36
  -2  17   2   71.99   41.18
   2 -17  -1   14.60    5.38
  -2  17   1   30.50   17.04
  -2  17   1    0.75   14.53
   2 -17   0   27.04   11.90
  -2  17   0   15.11   12.36
   2 -17   1  298.44   68.60
  -2  17  -1  241.48   88.24
  -2  17  -1  280.95   58.27
   2 -17   2  906.87   80.09
  -2  17  -2  754.68   54.40
  -2  17  -2  745.18   50.21
   2 -17   3  895.09   50.25
  -2  17  -3  910.08  112.81
   2 -17   4  325.21   35.66
  -2  17  -4  268.37   99.62
   2 -17   5   48.35   30.01
  -2  17  -5   16.76   10.94
   2 -17   6  298.70  103.00
  -2  17  -6  407.16   44.06
   2 -17   7  109.25   55.72
  -2  17  -7  144.51   53.88
   2 -17   8  388.43   63.74
  -2  17  -8  394.18   48.74
   2 -17   9   57.28   26.87
  -2  17  -9   14.35   27.41
   2 -17  10    8.99   14.56
  -2  17 -10    9.70   28.24
   2 -17  11   52.01   40.13
   2 -17  12  182.70   77.68
  -2  17 -12  155.18   94.39
   2 -17  13  105.36   68.76
  -2  17 -13  156.04   67.64
  -2  17 -14   11.95   15.10
   2 -16  -6  204.59   72.44
   2 -16  -5    9.29   17.83
  -2  16   5   18.78   20.52
   2 -16  -4   18.67   19.79
  -2  16   4   -1.79   17.33
   2 -16  -3   54.87   26.64
  -2  16   3   30.14   26.06
  -2  16   3   61.00   34.87
   2 -16  -2  499.22   65.58
  -2  16   2  529.65   80.98
  -2  16   2  554.56   62.39
   2 -16  -1   17.98   22.28
  -2  16   1    7.77   13.44
  -2  16   1   27.61   16.66
   2 -16   0  109.27   46.63
  -2  16   0  136.51   46.44
  -2  16   0   93.06   45.67
   2 -16   1  195.22   67.58
  -2  16  -1  353.47   78.63
  -2  16  -1  242.99   57.73
   2 -16   2  437.56   51.08
  -2  16  -2  384.63   66.37
  -2  16  -2  372.16   55.67
   2 -16   3  408.11   64.63
  -2  16  -3  394.78   50.92
  -2  16  -3  431.35   26.26
   2 -16   4  110.98   35.88
  -2  16  -4  122.70   36.15
   2 -16   5   15.90   19.21
  -2  16  -5   11.54   18.69
   2 -16   6  437.63   43.70
  -2  16  -6  593.15   41.98
   2 -16   7  263.94   94.59
  -2  16  -7  353.17   60.07
   2 -16   8 1286.00   80.11
  -2  16  -8 1178.18   84.45
   2 -16   9  207.21   60.22
  -2  16  -9  207.78   63.55
   2 -16  10   17.45   13.40
  -2  16 -10    4.19   15.04
   2 -16  11  217.18   29.51
  -2  16 -11  182.57   72.58
   2 -16  12  149.07   66.98
  -2  16 -12  158.82   72.92
   2 -16  13  128.60   90.54
  -2  16 -13  147.41   73.65
   2 -16  14   43.70   23.31
  -2  16 -14   57.53   38.17
   2 -16  15   19.58   10.30
   2 -16  15   28.54   19.98
  -2  16 -15    2.25   16.86
   2 -16  16  386.10   55.97
  -2  16 -16  369.46   90.60
   2 -15  -7  699.98   57.58
   2 -15  -6   16.67   11.15
   2 -15  -6   19.15   13.72
  -2  15   6   18.89   21.02
   2 -15  -5   45.43   20.34
   2 -15  -5   44.88   23.10
   2 -15  -4  194.10   64.64
  -2  15   4  189.52   72.98
  -2  15   4  178.96   60.45
   2 -15  -3  719.07   46.90
  -2  15   3  611.47   94.50
  -2  15   3  613.03   36.48
   2 -15  -2  603.93   93.49
  -2  15   2  693.19  108.96
  -2  15   2  634.38   38.00
   2 -15  -1  168.43   70.77
  -2  15   1  209.19   61.44
  -2  15   1  146.81   61.40
   2 -15   0  119.14   54.82
  -2  15   0   87.20   41.72
  -2  15   0   56.36   23.45
   2 -15   1  350.38   95.79
  -2  15  -1  432.82   41.48
  -2  15  -1  395.89   53.11
   2 -15   2  491.21   68.31
  -2  15  -2  393.37   43.42
  -2  15  -2  378.82   67.89
   2 -15   3  162.96   55.29
  -2  15  -3  117.17   38.63
  -2  15  -3  138.24   16.06
   2 -15   4   12.34   20.73
  -2  15  -4    1.35    5.51
   2 -15   5  384.99   61.77
  -2  15  -5  292.52   43.89
  -2  15  -5  313.75   24.20
   2 -15   6 1483.10   85.86
  -2  15  -6 1334.72  141.81
   2 -15   7  756.19   79.39
  -2  15  -7  628.68   41.87
   2 -15   8 2033.09  147.01
  -2  15  -8 1964.64  170.94
   2 -15   9    9.15   10.22
   2 -15   9   14.54   13.88
  -2  15  -9   12.78   12.33
   2 -15  10    7.43   10.35
   2 -15  10   33.26   26.27
  -2  15 -10    7.81   13.41
   2 -15  11   26.19    8.93
   2 -15  11   76.27   40.09
  -2  15 -11   50.66   24.77
   2 -15  12  407.36   47.23
   2 -15  12  543.78   74.32
  -2  15 -12  570.45  139.02
   2 -15  13  153.68   64.01
   2 -15  13  150.69   67.27
  -2  15 -13  124.46   66.00
   2 -15  14   38.70   29.55
   2 -15  14   81.31   32.19
   2 -15  15   19.82   16.25
   2 -15  15   25.17   34.91
  -2  15 -15    9.68   18.66
   2 -15  16  388.03   61.42
   2 -15  16  461.69   96.05
  -2  15 -16  459.16   60.90
   2 -15  17  101.12   78.00
  -2  15 -17  294.93   62.01
  -2  15 -18   24.45   13.67
   2 -14  -8  465.89   45.93
   2 -14  -8  448.46   47.89
  -2  14   8  403.82   89.87
   2 -14  -7  705.83   43.00
   2 -14  -7  704.57   90.10
  -2  14   7  733.90   73.37
   2 -14  -6  409.28   63.06
   2 -14  -6  526.96   73.85
  -2  14   6  403.66   98.04
   2 -14  -5   14.16   13.08
   2 -14  -5   25.86   19.54
  -2  14   5   -5.93   16.66
   2 -14  -4  149.39   51.50
  -2  14   4  119.28   39.17
  -2  14   4  133.86   33.93
   2 -14  -3  283.20   85.89
  -2  14   3  368.00   42.23
  -2  14   3  222.83   33.81
   2 -14  -2  430.09   49.05
  -2  14   2  425.87   35.05
  -2  14   2  388.59   32.54
   2 -14  -1  332.13   77.49
  -2  14   1  424.75   39.36
  -2  14   1  268.25   72.85
   2 -14   0   31.30   22.01
  -2  14   0   26.73   19.41
  -2  14   0   -8.55   12.68
   2 -14   1  184.55   62.41
  -2  14  -1  189.33   36.71
  -2  14  -1  126.08   44.68
   2 -14   2 1688.42   87.16
  -2  14  -2 1764.92  126.73
  -2  14  -2 1696.00   70.28
   2 -14   3  449.60   58.73
  -2  14  -3  522.32   52.76
  -2  14  -3  396.67   44.55
   2 -14   4   44.58   24.56
  -2  14  -4   63.19   38.97
  -2  14  -4   39.54   19.48
   2 -14   5  102.85   38.47
  -2  14  -5  113.29   40.96
  -2  14  -5   97.28   30.80
   2 -14   6 2240.20   95.10
   2 -14   6 2515.95  106.85
  -2  14  -6 2240.88  152.12
  -2  14  -6 2497.48   91.92
   2 -14   7 2454.20   90.52
   2 -14   7 2010.94   87.05
  -2  14  -7 2531.63   97.84
   2 -14   8  421.33   34.26
   2 -14   8  427.81   93.24
  -2  14  -8  470.11   49.51
   2 -14   9   65.53   16.68
   2 -14   9   37.60   26.65
  -2  14  -9   47.13   24.01
   2 -14  10  132.55   32.63
   2 -14  10  105.23   51.45
  -2  14 -10  145.99   47.69
   2 -14  11 1045.49   58.91
   2 -14  11  935.11   59.69
  -2  14 -11 1039.40   58.84
   2 -14  12  710.18   36.51
   2 -14  12  677.13   54.91
  -2  14 -12  704.98   55.54
   2 -14  13  402.07   52.60
   2 -14  13  335.06   88.31
  -2  14 -13  415.49   51.92
   2 -14  14   24.45   27.09
  -2  14 -14   36.75   21.90
   2 -14  15   -1.18   13.57
   2 -14  15   34.42   20.08
  -2  14 -15   19.03   19.65
   2 -14  16   84.10   37.04
   2 -14  16  122.93   55.83
  -2  14 -16  130.28   61.56
   2 -14  17   15.63   22.25
  -2  14 -17   21.40   29.14
   2 -14  18   49.26   38.79
  -2  14 -18   41.23   36.62
   2 -14  19   59.71   43.06
  -2  14 -19   39.03   22.90
   2 -13  -9   93.39   28.85
   2 -13  -9   97.99   56.57
  -2  13   9   71.55   44.21
   2 -13  -8  716.76   49.16
   2 -13  -8  605.00   59.60
  -2  13   8  752.96   53.34
   2 -13  -7  529.82   40.52
   2 -13  -7  548.97   42.81
  -2  13   7  503.25   58.67
   2 -13  -6  367.85   66.10
   2 -13  -6  349.41   74.10
  -2  13   6  364.78   50.98
   2 -13  -5   31.80   15.95
   2 -13  -5   18.08   18.08
   2 -13  -4  188.31   60.45
  -2  13   4  213.26   48.94
  -2  13   4  191.59   59.49
   2 -13  -3  507.96   50.32
  -2  13   3  424.20   45.49
  -2  13   3  444.82   60.26
   2 -13  -2  932.08   87.71
  -2  13   2  959.57   91.69
  -2  13   2  930.68   86.90
   2 -13  -1  511.16   46.02
  -2  13   1  694.64  124.56
  -2  13   1  527.74   63.29
   2 -13   0   22.08   16.28
  -2  13   0   56.32   25.78
  -2  13   0   31.36   11.01
   2 -13   1   61.65   37.87
  -2  13  -1  124.68   52.62
  -2  13  -1   87.05   31.39
   2 -13   2  656.93   65.49
  -2  13  -2  756.06   71.49
  -2  13  -2  686.71   30.36
   2 -13   3  332.34   17.86
   2 -13   3  302.41   71.57
  -2  13  -3  355.38   82.01
  -2  13  -3  324.33   18.30
   2 -13   4   49.95   12.70
   2 -13   4   15.74   14.98
  -2  13  -4   23.08   20.33
  -2  13  -4   35.89   19.13
   2 -13   5  325.04   26.48
   2 -13   5  352.73   76.09
  -2  13  -5  230.45   82.25
  -2  13  -5  279.16   34.21
   2 -13   6  310.35   29.81
   2 -13   6  381.60   44.09
  -2  13  -6  302.11   31.80
  -2  13  -6  364.56   39.71
   2 -13   7 2307.20   83.91
   2 -13   7 2272.15   95.04
  -2  13  -7 2432.82   96.02
  -2  13  -7 2177.70   75.45
   2 -13   8 3419.08  126.67
   2 -13   8 2864.74  125.48
  -2  13  -8 3438.97  131.94
   2 -13   9  388.98   39.21
   2 -13   9  311.47   47.54
  -2  13  -9  351.82   41.18
   2 -13  10  138.16   38.60
   2 -13  10  141.30   39.65
  -2  13 -10  145.82   72.71
   2 -13  11  269.12   39.71
   2 -13  11  258.60   84.67
  -2  13 -11  307.54   40.59
   2 -13  12  849.87   48.93
   2 -13  12  879.57   97.23
  -2  13 -12  780.74   80.41
   2 -13  13  498.63   75.00
   2 -13  13  558.77   48.08
  -2  13 -13  516.05   63.80
   2 -13  14   32.83   12.64
   2 -13  14   58.95   28.70
  -2  13 -14   26.49   31.94
   2 -13  15   44.63   33.07
   2 -13  15   15.28   25.42
   2 -13  16  562.52   70.17
   2 -13  16  542.95   35.11
  -2  13 -16  429.31   87.78
   2 -13  17  157.36   87.62
  -2  13 -17   97.19   55.08
   2 -13  18    0.56   23.36
   2 -13  18   25.79   18.45
   2 -13  19    3.79   11.89
   2 -12 -11   60.74   31.03
  -2  12  11   39.63   32.01
   2 -12 -10    6.83   10.73
   2 -12 -10   16.17   12.46
  -2  12  10   12.65   11.49
   2 -12  -9 1002.95   71.22
   2 -12  -9  917.55   85.16
  -2  12   9  858.85   65.86
   2 -12  -8  893.89   48.21
   2 -12  -8  823.82   81.12
  -2  12   8  897.60   52.63
   2 -12  -7  257.29   82.36
   2 -12  -7  351.59   79.06
  -2  12   7  277.76   85.42
   2 -12  -6  109.90   39.36
   2 -12  -6  155.08   46.88
  -2  12   6  127.64   42.41
   2 -12  -5  192.47   50.21
  -2  12   5  197.57   57.65
   2 -12  -4  117.45   44.57
  -2  12   4  133.89   39.69
  -2  12   4   91.10   28.72
   2 -12  -3 1179.78   73.36
  -2  12   3 1280.56   77.59
  -2  12   3 1055.41   77.48
   2 -12  -2  622.60   44.27
  -2  12   2  592.59   39.59
  -2  12   2  599.99   55.77
   2 -12  -1  175.79   51.97
  -2  12   1  149.10   36.10
  -2  12   1  146.36   37.80
   2 -12   0  158.23   15.12
   2 -12   0  194.28   52.01
  -2  12   0  260.07   53.04
  -2  12   0  184.13   57.52
   2 -12   1 1217.41   47.71
   2 -12   1 1219.41   53.31
  -2  12  -1 1151.41   80.27
  -2  12  -1 1256.96   64.64
   2 -12   2 2406.60   83.00
   2 -12   2 2641.25   96.88
  -2  12  -2 2641.83  150.30
  -2  12  -2 2483.96   94.88
   2 -12   3   -0.25    3.50
   2 -12   3   -8.89   16.46
  -2  12  -3   17.44    9.95
  -2  12  -3    4.00    4.41
   2 -12   4  383.56   31.44
   2 -12   4  301.48   81.99
  -2  12  -4  340.31   49.66
  -2  12  -4  378.60   21.16
   2 -12   5   96.30   24.90
   2 -12   5  103.16   32.68
  -2  12  -5   87.46   27.88
  -2  12  -5  111.12   26.26
   2 -12   6 1236.61   56.39
   2 -12   6 1302.11   61.44
  -2  12  -6 1304.76   62.51
  -2  12  -6 1253.90   58.65
   2 -12   7 2679.51   90.51
   2 -12   7 2488.48   83.59
  -2  12  -7 2627.16   92.25
  -2  12  -7 2609.35   76.25
   2 -12   8  553.67   38.18
   2 -12   8  512.34   53.80
  -2  12  -8  539.59   68.35
   2 -12   9  235.61   56.48
   2 -12   9  124.83   47.05
  -2  12  -9  264.36   65.10
   2 -12  10  181.47   50.37
   2 -12  10  172.86   76.88
  -2  12 -10  140.66   54.23
   2 -12  11  751.53   71.44
   2 -12  11  720.31   44.64
  -2  12 -11  796.52   56.06
   2 -12  12  954.73   85.67
   2 -12  12 1054.82   55.93
  -2  12 -12  957.02   46.67
   2 -12  13 1060.02   78.26
   2 -12  13  935.93   91.13
  -2  12 -13 1062.17   64.92
   2 -12  14  155.99   54.43
   2 -12  14  208.04   76.30
  -2  12 -14  171.86   39.95
   2 -12  15   15.20    8.62
   2 -12  15   15.42   12.25
  -2  12 -15   17.70   13.11
   2 -12  16  313.04   36.89
   2 -12  16  346.77   50.92
  -2  12 -16  279.38   40.93
   2 -12  17  761.97  111.96
   2 -12  17  942.40  101.77
  -2  12 -17  926.60   65.43
   2 -12  18  404.77   52.23
   2 -12  18  406.75   60.83
  -2  12 -18  348.41   68.70
  -2  12 -19   18.60   13.00
   2 -11 -12   59.22   50.49
  -2  11  12  152.74   46.99
   2 -11 -11   57.51   15.09
   2 -11 -11   86.87   28.62
  -2  11  11   41.34   27.28
   2 -11  -9  351.68   84.50
   2 -11  -9  311.61   45.20
  -2  11   9  404.31   78.86
   2 -11  -8  998.86   58.94
   2 -11  -8  936.65   50.91
  -2  11   8  924.79   86.97
   2 -11  -7 1088.11   67.67
   2 -11  -7 1055.36   64.63
  -2  11   7  914.50   68.44
   2 -11  -6  775.16   49.41
   2 -11  -6  817.27  100.32
  -2  11   6  718.79   49.75
   2 -11  -5   34.39   16.95
  -2  11   5   23.48   15.38
   2 -11  -4   93.03   19.31
  -2  11   4   86.13   25.58
  -2  11   4   62.14   26.86
   2 -11  -3  530.73   51.87
  -2  11   3  560.87   81.22
  -2  11   3  414.22   29.45
  -2  11   3  553.18   33.70
   2 -11  -2  249.73   61.74
  -2  11   2  276.79   73.65
  -2  11   2  194.09   25.09
  -2  11   2  239.79   49.59
   2 -11  -1 1490.31   61.00
   2 -11  -1 1553.02   73.18
  -2  11   1 1458.05   67.85
  -2  11   1 1380.99   62.80
   2 -11   0  157.66   17.16
   2 -11   0  160.29   42.17
  -2  11   0  191.44   28.49
  -2  11   0  109.71   22.46
  -2  11   0  113.29   30.84
   2 -11   1  507.55   35.87
   2 -11   1  518.08   60.78
  -2  11  -1  515.41   53.23
  -2  11  -1  468.50   35.38
  -2  11  -1  502.85   39.95
   2 -11   2   74.87   19.35
   2 -11   2  105.33   31.39
  -2  11  -2  100.25   36.38
  -2  11  -2   59.82   12.00
  -2  11  -2  119.58   25.74
   2 -11   3    7.36    5.56
   2 -11   3   16.06   14.44
  -2  11  -3    8.92    9.10
  -2  11  -3    6.13    7.34
   2 -11   4   84.70   14.66
   2 -11   4   67.45   15.53
  -2  11  -4   51.06   18.97
  -2  11  -4   65.16   16.84
  -2  11  -4   60.71   17.99
   2 -11   5  789.76   43.22
   2 -11   5  915.38   52.51
   2 -11   5  831.77   55.51
  -2  11  -5  902.33   49.02
  -2  11  -5  830.44   56.58
   2 -11   6 1913.48   82.59
   2 -11   6 2072.62   87.17
   2 -11   6 2062.29   78.80
  -2  11  -6 1996.60   74.11
  -2  11  -6 1936.66   81.86
   2 -11   7 1292.83   72.89
   2 -11   7 1120.02   53.36
  -2  11  -7 1212.83   61.70
  -2  11  -7 1231.39   51.31
   2 -11   8   87.70   22.97
   2 -11   8   99.37   26.35
  -2  11  -8  108.11   26.28
  -2  11  -8   65.47    8.39
   2 -11   9   46.10   18.29
   2 -11   9   23.38   14.65
  -2  11  -9   27.03   24.32
   2 -11  10  843.84   51.23
   2 -11  10  764.11   47.40
  -2  11 -10  840.21   51.97
   2 -11  11 3375.86  112.44
   2 -11  11 3403.66  117.90
  -2  11 -11 3301.76  122.09
   2 -11  12 2707.26  110.80
   2 -11  12 2723.09  137.99
  -2  11 -12 2823.45  122.47
   2 -11  13  307.80   33.41
   2 -11  13  415.31   54.13
  -2  11 -13  432.37   25.55
   2 -11  14   18.34   12.09
   2 -11  14   38.69   16.25
  -2  11 -14   27.92   13.75
   2 -11  15   93.68   28.19
  -2  11 -15  133.83   34.38
   2 -11  16  850.80   95.46
  -2  11 -16  792.97  122.94
   2 -11  17  769.97   88.32
  -2  11 -17  681.43   74.84
  -2  11 -17  845.48   49.53
   2 -11  18  404.37  116.20
  -2  11 -18  388.76  127.15
  -2  11 -18  443.06   29.20
   2 -11  19   35.52   15.16
  -2  11 -19   45.76   34.18
   2 -10 -13  329.15   78.31
  -2  10  13  252.93   93.93
   2 -10 -12   18.50   15.59
   2 -10 -12   42.96   21.61
  -2  10  12   28.46   25.60
   2 -10 -11    5.12    8.43
   2 -10 -11   58.65   24.84
  -2  10  11    4.89   18.01
   2 -10 -10  114.44   34.39
  -2  10  10   48.67   37.70
   2 -10  -9  707.26  105.56
   2 -10  -9  641.42   63.35
  -2  10   9  560.96   63.28
   2 -10  -8 1526.15   72.74
   2 -10  -8 1487.47  103.65
  -2  10   8 1315.13  124.27
   2 -10  -7  660.73   55.92
   2 -10  -7  735.48   84.74
  -2  10   7  815.46   86.17
   2 -10  -6 1429.47   69.92
   2 -10  -6 1475.65   68.39
  -2  10   6 1434.49   64.62
  -2  10   6 1640.86   76.12
   2 -10  -5  214.03   37.57
  -2  10   5  159.55   29.53
  -2  10   5  171.25   54.10
   2 -10  -4  288.21   43.59
  -2  10   4  277.27   51.98
  -2  10   4  309.80   28.76
  -2  10   4  290.68   25.59
   2 -10  -3 1637.08   71.10
  -2  10   3 1646.03  103.84
  -2  10   3 1631.45   71.08
  -2  10   3 1650.70   92.19
   2 -10  -2 1229.95   56.83
  -2  10   2 1225.62   58.26
  -2  10   2 1179.00   49.19
  -2  10   2 1267.95   66.00
   2 -10  -1  213.62   19.60
   2 -10  -1  288.34   67.19
  -2  10   1  199.55   17.60
  -2  10   1  242.56   22.55
  -2  10   1  238.43   24.35
   2 -10   0  451.93   29.03
   2 -10   0  481.72   36.42
  -2  10   0  523.24   46.03
  -2  10   0  489.95   31.04
  -2  10   0  454.02   50.79
   2 -10   1   15.52    7.18
   2 -10   1   32.02   30.27
  -2  10  -1   16.65   17.80
  -2  10  -1   25.14    6.67
  -2  10  -1   10.25   11.56
   2 -10   2  211.39   26.75
   2 -10   2  256.71   65.36
  -2  10  -2  267.32   67.50
  -2  10  -2  221.94   22.64
  -2  10  -2  238.91   38.62
   2 -10   3 1352.37   63.33
   2 -10   3 1438.79   73.15
  -2  10  -3 1300.45   81.56
  -2  10  -3 1309.23   61.07
  -2  10  -3 1335.06   61.31
   2 -10   4  216.76   31.86
   2 -10   4  299.84   69.70
   2 -10   4  213.15   16.88
  -2  10  -4  219.56   59.77
  -2  10  -4  263.44   25.92
  -2  10  -4  140.72   25.30
   2 -10   5  250.85   35.21
   2 -10   5  210.01   49.39
   2 -10   5  148.55   15.87
  -2  10  -5  201.51   56.78
  -2  10  -5  192.55   11.88
  -2  10  -5  165.09   24.54
   2 -10   6  598.35   39.17
   2 -10   6  710.96   39.52
  -2  10  -6  752.05   55.95
  -2  10  -6  655.87   34.08
   2 -10   7 1040.75   43.14
   2 -10   7 1169.03   56.98
   2 -10   7 1067.28   62.67
  -2  10  -7 1122.91   46.47
  -2  10  -7 1112.09   58.30
   2 -10   8   11.22    4.95
   2 -10   8    5.39   13.28
  -2  10  -8    0.25   14.26
   2 -10   9   97.58   24.54
   2 -10   9   92.20   23.95
  -2  10  -9  135.28   37.05
   2 -10  10  335.50   37.79
   2 -10  10  271.76   49.28
  -2  10 -10  331.53   63.64
   2 -10  11 3446.59  130.18
   2 -10  11 3854.30  149.03
  -2  10 -11 3450.56  116.52
   2 -10  12 4571.73  153.79
  -2  10 -12 4728.29  153.88
   2 -10  13 1971.47   93.11
  -2  10 -13 1756.25   99.22
  -2  10 -13 1789.56  116.92
   2 -10  14  258.21   70.09
  -2  10 -14  318.88   60.10
  -2  10 -14  301.16   70.19
   2 -10  15  356.50   34.36
  -2  10 -15  371.64   90.43
  -2  10 -15  312.88   72.99
   2 -10  16  543.71   48.20
  -2  10 -16  543.04   97.96
  -2  10 -16  441.81   27.18
   2 -10  17  358.80   46.64
  -2  10 -17  282.83   88.47
  -2  10 -17  294.09   47.19
   2 -10  18  144.31   61.55
  -2  10 -18  270.35   62.83
  -2  10 -18  153.84   41.96
   2 -10  19   34.95   31.94
  -2  10 -19   33.67   27.89
   2  -9 -14  196.86   74.40
  -2   9  14  331.15   37.54
   2  -9 -13   15.49   13.51
   2  -9 -13   53.96   26.28
  -2   9  13   73.80   26.79
   2  -9 -12   82.73   26.19
   2  -9 -12   75.19   32.40
  -2   9  12  118.83   36.26
   2  -9 -11   14.75   13.95
  -2   9  11   18.09   21.82
   2  -9 -10   75.51   34.06
  -2   9  10   47.43   29.46
   2  -9  -9  487.71   52.41
   2  -9  -9  538.06   55.57
  -2   9   9  480.28   28.93
  -2   9   9  513.46   46.63
   2  -9  -8  775.29   39.49
   2  -9  -8  669.86   63.14
  -2   9   8  621.10   48.43
  -2   9   8  640.67   43.30
   2  -9  -7    7.98   11.13
   2  -9  -7   32.02   16.03
  -2   9   7    8.53    5.83
  -2   9   7    7.61   14.75
   2  -9  -6   13.04    8.94
   2  -9  -6    9.75    9.24
  -2   9   6    1.74    7.79
  -2   9   6    7.50   10.90
   2  -9  -5   16.99   11.36
   2  -9  -5   72.72   15.06
  -2   9   5   21.52    6.97
  -2   9   5   20.48   22.19
   2  -9  -4 2068.65   92.16
  -2   9   4 1852.92   91.83
  -2   9   4 1827.71   74.46
  -2   9   4 1932.60   70.53
  -2   9   4 1923.61   49.86
   2  -9  -3 5251.56  162.68
  -2   9   3 5606.74  188.63
  -2   9   3 5163.09  136.60
  -2   9   3 5229.70  138.68
  -2   9   3 5247.53  157.19
   2  -9  -2  419.52   68.28
  -2   9   2  336.00   36.79
  -2   9   2  314.56   22.83
  -2   9   2  376.04   29.45
  -2   9   2  388.37   37.50
   2  -9  -1  150.71   44.18
  -2   9   1  137.65   48.47
  -2   9   1  137.30   11.65
  -2   9   1  157.37   16.82
   2  -9   0   13.30    6.47
   2  -9   0   31.16   17.18
  -2   9   0   43.72   25.55
  -2   9   0   18.63    4.03
  -2   9   0   20.13   16.67
   2  -9   1 1665.93   73.65
   2  -9   1 1698.11   97.55
  -2   9  -1 1830.34  114.29
  -2   9  -1 1660.43   73.19
  -2   9  -1 1706.88   79.88
   2  -9   2 1172.02   51.37
   2  -9   2 1234.92   94.05
  -2   9  -2 1277.46   63.61
  -2   9  -2 1181.35   48.84
  -2   9  -2 1203.40   53.29
   2  -9   3 2596.89  111.14
   2  -9   3 2523.59  126.85
   2  -9   3 2425.83  103.89
  -2   9  -3 2423.64  112.70
  -2   9  -3 2508.07  106.30
  -2   9  -3 2434.07  101.10
   2  -9   4   28.04   18.44
   2  -9   4   58.57   32.60
   2  -9   4    1.72    6.17
  -2   9  -4   28.71   21.10
  -2   9  -4    5.52    6.66
  -2   9  -4    2.16    5.99
   2  -9   5  579.13   40.43
   2  -9   5  608.14   62.96
   2  -9   5  536.35   35.55
  -2   9  -5  513.29   47.68
  -2   9  -5  568.91   36.22
  -2   9  -5  536.94   37.51
   2  -9   6 2996.34   71.78
   2  -9   6 2789.50  103.48
   2  -9   6 2831.59   72.59
  -2   9  -6 2899.97   68.55
  -2   9  -6 2786.58   81.16
   2  -9   7 2279.50  105.73
   2  -9   7 2105.04   98.50
  -2   9  -7 2112.12  105.91
   2  -9   8   -3.03   10.58
   2  -9   8   17.59   10.83
  -2   9  -8    9.97   17.70
   2  -9   9  292.57   39.52
   2  -9   9  329.13   74.09
  -2   9  -9  334.95   30.76
   2  -9  10  620.08   47.54
  -2   9 -10  629.74   49.80
   2  -9  11 2005.86   86.87
  -2   9 -11 1900.80  102.85
  -2   9 -11 1968.02   90.99
   2  -9  12 2744.39  102.98
  -2   9 -12 2685.99   90.44
  -2   9 -12 2687.26   95.25
   2  -9  13  510.19   61.01
  -2   9 -13  465.25   34.53
  -2   9 -13  437.55   42.39
   2  -9  14   30.00   15.96
  -2   9 -14   19.48   12.13
  -2   9 -14   24.53   17.43
   2  -9  15  617.63   67.24
  -2   9 -15  599.95   39.08
  -2   9 -15  544.91   45.42
   2  -9  16  928.56   94.64
  -2   9 -16  910.80   88.13
  -2   9 -16  847.13   77.92
   2  -9  17 1348.95   86.43
  -2   9 -17 1174.77   45.06
  -2   9 -17 1194.30   96.68
   2  -9  18  241.30   79.41
  -2   9 -18  126.81   68.41
  -2   9 -18  245.46   34.95
   2  -9  19   21.40   19.33
  -2   9 -19   12.41   16.73
   2  -9  20   -9.31   18.67
   2  -8 -15   12.98   19.44
  -2   8  15   61.45   27.15
   2  -8 -14  357.39   39.58
  -2   8  14  286.17   33.14
   2  -8 -13  170.59   51.65
   2  -8 -13  150.82   64.41
  -2   8  13  192.98   84.14
   2  -8 -12  413.32   24.90
   2  -8 -12  322.04   88.60
  -2   8  12  428.11   39.28
   2  -8 -11   61.95   22.54
   2  -8 -11  105.26   36.79
  -2   8  11   83.47   21.96
  -2   8  11   57.24   27.39
   2  -8 -10   36.72   13.77
   2  -8 -10   34.20   32.83
  -2   8  10   54.52   17.61
  -2   8  10   53.83   26.09
   2  -8  -9  789.72   54.39
   2  -8  -9  734.41   58.15
  -2   8   9  758.93   31.42
  -2   8   9  794.00   71.09
   2  -8  -8 1574.70   68.59
   2  -8  -8 1444.47   66.24
  -2   8   8 1385.07   58.43
  -2   8   8 1397.67   68.76
   2  -8  -7  111.42   23.06
   2  -8  -7  149.41   34.05
  -2   8   7  109.40   22.96
  -2   8   7  102.67   30.65
   2  -8  -6  303.78   46.84
   2  -8  -6  388.70   39.63
  -2   8   6  245.93   21.60
  -2   8   6  307.71   28.32
  -2   8   6  322.58   28.29
   2  -8  -5  615.67   33.22
   2  -8  -5  630.76   34.63
  -2   8   5  542.47   26.69
  -2   8   5  624.91   35.51
  -2   8   5  532.13   25.28
   2  -8  -4 3949.06  124.20
  -2   8   4 3736.71  123.99
  -2   8   4 3801.23  101.93
  -2   8   4 3704.83  103.52
  -2   8   4 3888.12  114.46
   2  -8  -3 4593.97  134.65
  -2   8   3 4771.30  149.59
  -2   8   3 4806.72  111.62
  -2   8   3 4871.15  114.25
  -2   8   3 4723.45  119.26
   2  -8  -2 6645.40  174.50
  -2   8   2 6392.39  184.43
  -2   8   2 5990.26  137.56
  -2   8   2 6098.11  139.67
  -2   8   2 6104.78  147.82
   2  -8  -1   -7.90   15.81
  -2   8   1   19.73    9.24
  -2   8   1    5.00    3.34
  -2   8   1   -5.61   11.63
   2  -8   0    0.69    2.42
   2  -8   0    6.88   10.52
  -2   8   0   22.73   18.49
  -2   8   0    1.48    3.26
  -2   8   0   13.77   11.30
   2  -8   1 1074.98   44.34
   2  -8   1 1107.77   49.38
  -2   8  -1 1092.13   53.23
  -2   8  -1 1067.02   45.08
  -2   8  -1 1140.71   53.62
   2  -8   2 2003.58   70.61
   2  -8   2 1868.40   63.80
   2  -8   2 1820.31   65.54
  -2   8  -2 1851.27   69.50
  -2   8  -2 1853.38   62.30
   2  -8   3  449.80   27.02
   2  -8   3  400.56   48.22
   2  -8   3  395.69   25.07
  -2   8  -3  425.21   30.60
  -2   8  -3  439.41   39.86
  -2   8  -3  401.34   27.69
   2  -8   4  229.92   26.86
   2  -8   4  232.63   27.77
   2  -8   4  218.43   15.85
  -2   8  -4  220.95   23.11
  -2   8  -4  234.36   21.35
  -2   8  -4  213.82   13.47
   2  -8   5   16.39    5.99
   2  -8   5   21.89    9.26
   2  -8   5   14.79    7.92
  -2   8  -5   37.58    8.33
  -2   8  -5   32.01    7.12
  -2   8  -5   17.04    6.76
   2  -8   6 2446.55   99.58
   2  -8   6 2360.67  117.27
   2  -8   6 2268.41   98.80
  -2   8  -6 2519.79  102.07
  -2   8  -6 2297.29  107.93
   2  -8   7 2011.25   99.62
   2  -8   7 1957.78   90.71
  -2   8  -7 1881.48   89.01
   2  -8   8   22.26   10.34
   2  -8   8   21.68   13.73
  -2   8  -8    8.27   12.23
   2  -8   9  370.05   33.70
  -2   8  -9  277.30   57.60
  -2   8  -9  295.01   49.99
   2  -8  10 1473.56   68.84
  -2   8 -10 1420.04   66.08
  -2   8 -10 1503.13   71.87
   2  -8  11 1766.72   96.50
  -2   8 -11 1484.28   93.14
  -2   8 -11 1770.19   86.27
   2  -8  12  483.52   53.41
  -2   8 -12  454.11   38.62
  -2   8 -12  402.41   20.92
   2  -8  13   43.69   27.37
  -2   8 -13   44.11   30.32
  -2   8 -13   60.90   14.40
   2  -8  14  847.13  108.41
  -2   8 -14  817.98   72.70
  -2   8 -14  698.48   42.37
   2  -8  15 1295.65   99.27
  -2   8 -15 1171.61   56.64
  -2   8 -15 1154.17   57.58
   2  -8  16 1382.40  117.26
  -2   8 -16 1374.41  132.83
  -2   8 -16 1326.62   80.20
   2  -8  17 1409.27   86.48
  -2   8 -17 1470.85   89.19
  -2   8 -17 1367.23   79.39
   2  -8  18  190.09   39.61
  -2   8 -18  154.89   50.24
   2  -8  19   21.19   11.51
  -2   8 -19   21.41   11.09
   2  -8  20  161.23   91.25
  -2   8 -20  133.97   68.90
   2  -7 -16  259.42   59.58
  -2   7  16  185.35   91.36
   2  -7 -15  214.07   22.80
  -2   7  15  246.14   67.37
   2  -7 -14   78.07   31.21
   2  -7 -14   99.12   40.61
  -2   7  14  138.46   52.53
  -2   7  14  107.33   38.57
   2  -7 -13   74.83   34.94
   2  -7 -13  130.92   29.19
  -2   7  13  103.03   39.42
  -2   7  13  129.97   47.55
   2  -7 -12  351.24   37.51
   2  -7 -12  301.56   65.96
  -2   7  12  244.06   41.15
  -2   7  12  341.44   83.79
   2  -7 -11   59.07   24.16
   2  -7 -11  107.06   22.40
  -2   7  11   79.15   18.95
  -2   7  11   98.50   27.68
   2  -7 -10  448.74   26.13
   2  -7 -10  543.14   39.75
  -2   7  10  538.17   46.96
  -2   7  10  589.64   61.33
   2  -7  -9 2004.45   43.70
   2  -7  -9 1981.27   55.12
  -2   7   9 2138.87   73.71
  -2   7   9 2006.77   77.07
   2  -7  -8 1301.36   68.38
   2  -7  -8 1355.48   72.66
  -2   7   8 1295.37   57.99
  -2   7   8 1384.87   65.98
   2  -7  -7  876.67   48.06
   2  -7  -7  929.23   51.20
  -2   7   7  880.86   66.18
  -2   7   7  951.54   58.56
   2  -7  -6   83.93   18.83
   2  -7  -6  109.83   25.50
  -2   7   6   62.65   15.31
  -2   7   6   81.04   13.93
  -2   7   6   87.10   21.34
   2  -7  -5  463.66   33.21
   2  -7  -5  436.02   53.36
  -2   7   5  404.28   30.25
  -2   7   5  485.71   33.89
  -2   7   5  467.35   72.65
   2  -7  -4 6943.90  176.62
  -2   7   4 6965.08  191.08
  -2   7   4 6633.66  152.52
  -2   7   4 6505.37  150.05
  -2   7   4 6850.11  169.02
   2  -7  -3 5311.48  141.93
  -2   7   3 5300.69  147.81
  -2   7   3 5074.87  117.28
  -2   7   3 5412.26  126.39
  -2   7   3 5263.42  144.09
   2  -7  -2 2570.92   76.98
  -2   7   2 2515.88   88.72
  -2   7   2 2554.62   71.32
  -2   7   2 2485.23   70.56
  -2   7   2 2456.15   77.64
   2  -7  -1  203.43    8.02
   2  -7  -1  264.66   52.24
  -2   7   1  224.98   19.99
  -2   7   1  177.65    6.62
  -2   7   1  186.78   20.88
   2  -7   0 2206.75   65.21
   2  -7   0 2342.92   73.58
  -2   7   0 2201.94   60.70
  -2   7   0 2210.80   69.56
  -2   7   0 2465.22   79.05
   2  -7   1 4674.54   78.20
   2  -7   1 4619.24   86.21
   2  -7   1 4607.70   84.37
  -2   7  -1 4711.13   90.81
  -2   7  -1 4679.29   84.29
  -2   7  -1 4572.59   78.13
   2  -7   2 4255.18   73.66
   2  -7   2 4424.50   92.64
   2  -7   2 4195.46   77.65
  -2   7  -2 4549.79   87.76
  -2   7  -2 4265.93   77.60
  -2   7  -2 4149.90   72.56
   2  -7   3 2530.77   76.45
   2  -7   3 2675.01   79.88
   2  -7   3 2680.55   80.35
  -2   7  -3 2696.18   90.76
  -2   7  -3 2753.62   80.66
  -2   7  -3 2532.61   73.66
   2  -7   4  100.21   19.19
   2  -7   4  112.92   30.82
   2  -7   4   89.97   17.91
  -2   7  -4  126.65   26.78
  -2   7  -4   96.92   19.41
  -2   7  -4   91.37    9.04
   2  -7   5   28.41   14.80
   2  -7   5    7.35   10.95
   2  -7   5   22.64    9.40
  -2   7  -5   24.36   12.73
  -2   7  -5   27.62   11.43
  -2   7  -5   16.85    8.18
   2  -7   6  488.74   37.36
   2  -7   6  547.52   35.89
  -2   7  -6  518.33   32.22
   2  -7   7 2678.22   74.24
  -2   7  -7 2590.62  113.87
  -2   7  -7 2567.70  117.25
   2  -7   8 1508.48   79.56
  -2   7  -8 1366.61   63.14
  -2   7  -8 1323.44   59.64
   2  -7   9  161.24   45.73
  -2   7  -9  112.89   24.47
  -2   7  -9  157.25   33.74
   2  -7  10  752.13   57.73
  -2   7 -10  841.48   29.04
  -2   7 -10  816.44   43.84
   2  -7  11 1499.96   71.37
  -2   7 -11 1576.05   75.37
  -2   7 -11 1478.19   72.85
   2  -7  12 3296.22  123.07
  -2   7 -12 3176.24  145.80
  -2   7 -12 3223.82  114.02
   2  -7  13  554.82   48.41
  -2   7 -13  608.20   52.31
  -2   7 -13  558.80   30.60
   2  -7  14   21.26   19.56
  -2   7 -14   23.06   15.40
  -2   7 -14   30.89   15.63
   2  -7  15  746.09   60.77
  -2   7 -15  667.76   54.40
  -2   7 -15  662.71   36.19
   2  -7  16  840.71   68.69
  -2   7 -16  961.94   85.01
  -2   7 -16  816.02   43.30
   2  -7  17  583.81   78.59
  -2   7 -17  553.69   49.70
  -2   7 -17  513.07   55.10
   2  -7  18   73.15   35.63
  -2   7 -18   68.92   47.33
   2  -7  19   31.33   26.20
  -2   7 -19   39.22   24.50
   2  -7  20  287.32  119.08
  -2   7 -20  572.38   73.39
   2  -6 -17  140.96   69.85
   2  -6 -16   84.71   29.80
  -2   6  16   84.17   27.23
  -2   6  16   81.15   39.24
   2  -6 -15    5.80   10.15
   2  -6 -15   10.57   10.79
  -2   6  15   41.45   14.60
  -2   6  15   49.38   21.07
   2  -6 -14   11.24    9.07
   2  -6 -14   30.30   18.01
  -2   6  14   20.40   14.22
  -2   6  14   13.17   12.06
   2  -6 -13  232.82   45.43
   2  -6 -13  224.82   64.50
  -2   6  13  218.64   56.16
  -2   6  13  308.24   77.04
   2  -6 -12  335.12   46.47
   2  -6 -12  376.30   90.91
  -2   6  12  280.09   68.64
  -2   6  12  315.64   69.41
   2  -6 -11   59.38   22.27
   2  -6 -11   25.09   16.87
  -2   6  11   30.87   22.62
  -2   6  11   18.98   14.96
   2  -6 -10  383.53   38.18
   2  -6 -10  399.60   70.03
  -2   6  10  284.81   35.72
  -2   6  10  347.00   54.89
   2  -6  -9  509.92   29.47
   2  -6  -9  507.40   53.96
  -2   6   9  575.18   60.88
  -2   6   9  530.43   41.56
   2  -6  -8  295.12   48.06
   2  -6  -8  331.41   37.56
  -2   6   8  301.02   23.38
  -2   6   8  394.80   43.96
   2  -6  -7  359.07   28.91
   2  -6  -7  403.90   31.33
  -2   6   7  307.31   32.75
  -2   6   7  383.98   40.23
  -2   6   7  426.06   75.06
   2  -6  -6  431.93   46.75
   2  -6  -6  508.30   52.64
  -2   6   6  475.69   44.23
  -2   6   6  462.56   34.11
  -2   6   6  513.62   43.33
   2  -6  -5  821.17   54.15
   2  -6  -5  826.70   48.94
  -2   6   5  834.23   42.06
  -2   6   5  862.58   26.56
  -2   6   5  872.51   50.97
   2  -6  -4 7445.09  176.70
  -2   6   4 7320.29  167.80
  -2   6   4 7516.17  172.27
  -2   6   4 7535.15  192.98
   2  -6  -3 6522.46  115.70
  -2   6   3 6500.14  125.86
  -2   6   3 6106.65  102.95
  -2   6   3 6189.23  105.52
  -2   6   3 6213.36  112.18
   2  -6  -2 1034.20   57.59
  -2   6   2 1079.98   61.07
  -2   6   2 1041.69   39.98
  -2   6   2 1051.71   42.25
  -2   6   2  992.16   50.92
   2  -6  -1    3.13    7.13
   2  -6  -1   -4.86   10.69
  -2   6   1    1.32    1.15
  -2   6   1    4.14    6.07
  -2   6   1   -0.22   10.02
   2  -6   0  464.13   31.19
   2  -6   0  484.17   24.08
  -2   6   0  445.06   15.95
  -2   6   0  475.84   23.38
  -2   6   0  542.01   27.25
   2  -6   1 7406.92  115.23
   2  -6   1 7753.70  129.19
   2  -6   1 7340.33  119.50
  -2   6  -1 7716.29  132.32
  -2   6  -1 7596.17  127.26
  -2   6  -1 7187.73  112.23
   2  -6   212479.55  197.31
   2  -6   213287.92   96.98
   2  -6   212877.16  199.82
  -2   6  -212514.93  197.16
  -2   6  -213294.60   85.40
   2  -6   3 1641.61   49.36
   2  -6   3 1751.64   59.68
   2  -6   3 1740.19   54.54
  -2   6  -3 1761.23   57.02
  -2   6  -3 1667.54   52.17
  -2   6  -3 1657.77   52.29
   2  -6   4   20.21   14.11
   2  -6   4   10.54    8.72
   2  -6   4   24.59    5.22
  -2   6  -4   18.53   15.48
  -2   6  -4   14.05    9.79
  -2   6  -4   35.95   18.89
   2  -6   5 2597.26   70.44
   2  -6   5 2464.03   79.69
   2  -6   5 2438.53   71.04
  -2   6  -5 2349.35   68.46
  -2   6  -5 2360.45   72.67
   2  -6   6 3053.27  100.63
  -2   6  -6 2964.00   88.51
  -2   6  -6 3008.26   89.96
   2  -6   7 1583.16   70.96
  -2   6  -7 1587.38   57.66
  -2   6  -7 1548.61   56.78
   2  -6   8 1126.60   52.47
  -2   6  -8 1236.74   58.37
  -2   6  -8 1209.32   52.99
   2  -6   9  208.98   43.89
  -2   6  -9   59.63   35.29
  -2   6  -9  123.93   11.76
   2  -6  10 1360.16   93.56
  -2   6 -10 1211.50   72.91
  -2   6 -10 1310.01   70.29
   2  -6  11  742.37   58.09
   2  -6  11  557.99   23.52
  -2   6 -11  682.19   36.97
  -2   6 -11  528.63   62.65
   2  -6  12 1966.28   78.55
  -2   6 -12 2044.16   81.73
  -2   6 -12 2243.79   99.23
  -2   6 -12 1861.33   74.31
   2  -6  13 1333.92   65.22
  -2   6 -13 1277.02   75.65
  -2   6 -13 1302.62   54.78
   2  -6  14  229.47   64.88
  -2   6 -14  265.08   60.45
  -2   6 -14  290.93   65.07
   2  -6  15  435.22   81.24
  -2   6 -15  485.25   33.09
  -2   6 -15  474.21   50.25
   2  -6  16 1123.79   89.64
  -2   6 -16 1151.04   73.90
  -2   6 -16 1031.03   61.15
   2  -6  17  453.13   50.50
  -2   6 -17  470.93  121.25
   2  -6  18  207.59   83.67
  -2   6 -18  218.62   87.86
   2  -6  19   30.00   24.16
  -2   6 -19   29.50   32.10
   2  -6  20  571.03  117.18
  -2   6 -20  741.07   96.54
   2  -5 -18  612.56   79.88
  -2   5  18  587.15   71.83
   2  -5 -17   13.99   12.58
  -2   5  17   24.54   19.59
  -2   5  17   25.39   13.36
   2  -5 -16   54.01   22.07
   2  -5 -16   73.29   30.75
  -2   5  16   37.13   25.91
   2  -5 -15    0.68    7.01
   2  -5 -15   18.38   11.55
  -2   5  15   24.48   19.27
   2  -5 -14  247.36   33.70
   2  -5 -14  244.21   67.83
  -2   5  14  229.54   53.93
  -2   5  14  225.90   77.93
   2  -5 -13  854.63   47.03
   2  -5 -13  908.70   65.26
  -2   5  13  854.62   63.09
  -2   5  13  853.04   84.35
   2  -5 -12   13.86   13.43
   2  -5 -12   18.49   16.61
  -2   5  12   16.04   10.49
  -2   5  12   18.01   19.44
   2  -5 -11   11.19   11.69
   2  -5 -11   15.90   10.25
  -2   5  11   23.67   16.40
  -2   5  11   19.93   19.18
   2  -5 -10   61.13   16.61
   2  -5 -10   67.85   25.24
  -2   5  10   57.83   13.76
  -2   5  10   70.72   24.71
   2  -5  -9   46.63   17.28
   2  -5  -9   30.90   10.12
  -2   5   9   55.18   16.78
  -2   5   9   46.83   16.09
   2  -5  -8  170.66   35.93
   2  -5  -8  223.76   49.81
  -2   5   8  166.20   35.02
  -2   5   8  218.54   45.98
   2  -5  -7   63.65   12.91
   2  -5  -7   74.68   19.42
  -2   5   7   51.20   13.82
  -2   5   7   80.68   19.72
  -2   5   7  110.51   39.84
   2  -5  -6   17.86    8.71
   2  -5  -6   40.03   14.54
  -2   5   6   17.47   11.61
  -2   5   6   28.59   10.40
  -2   5   6   -2.38   15.74
   2  -5  -5 1650.48   58.32
   2  -5  -5 1637.98   66.73
  -2   5   5 1719.88   59.60
  -2   5   5 1670.49   58.17
  -2   5   5 1689.62   59.87
   2  -5  -4 4320.36   82.92
  -2   5   4 4375.56   76.97
  -2   5   4 4360.72   76.36
  -2   5   4 4584.82   86.18
   2  -5  -3    6.08    5.82
  -2   5   3    3.70    6.95
  -2   5   3    0.70    3.45
  -2   5   3    8.17    4.12
  -2   5   3   -7.85   11.95
   2  -5  -2  553.40   31.08
   2  -5  -2  659.65   47.97
  -2   5   2  625.52   28.86
  -2   5   2  599.48   19.90
  -2   5   2  591.43   21.04
  -2   5   2  602.75   27.76
  -2   5   2  532.75   23.53
   2  -5  -1    3.23    7.29
   2  -5  -1    5.84    7.28
   2  -5  -1    5.21    5.15
  -2   5   1   23.87    9.13
  -2   5   1   26.73   11.26
  -2   5   1   -0.84    9.62
   2  -5   0 3217.33   94.18
   2  -5   0 3119.21   92.16
   2  -5   0 3051.88   87.63
  -2   5   0 2932.75   87.92
  -2   5   0 3267.64   92.67
  -2   5   0 3152.58   91.24
   2  -5   1 6411.96   53.98
   2  -5   1 6133.80   68.87
   2  -5   1 6338.16   80.22
   2  -5   1 6388.16   60.92
  -2   5  -1 6536.17   76.11
  -2   5  -1 6241.01   53.34
  -2   5  -1 6218.19   62.69
  -2   5  -1 6174.08   62.72
   2  -5   2 9332.96  145.96
   2  -5   2 9609.05  156.02
   2  -5   2 9468.55  153.71
   2  -5   2 9790.66  163.37
   2  -5   2 9672.28  152.11
  -2   5  -2 9532.81  149.20
  -2   5  -2 9721.13  159.00
   2  -5   3 3043.89   87.23
   2  -5   3 3048.14   89.21
   2  -5   3 3113.77   98.54
   2  -5   3 2991.78   87.29
   2  -5   3 3042.16   85.69
  -2   5  -3 2936.71   85.68
  -2   5  -3 3091.66   86.60
  -2   5  -3 2942.59   84.22
   2  -5   4  608.59   24.14
   2  -5   4  643.86   25.50
   2  -5   4  585.39   33.37
  -2   5  -4  665.61   28.73
  -2   5  -4  607.81   27.24
  -2   5  -4  692.09   27.51
  -2   5  -4  647.16   22.29
   2  -5   5 3007.29   91.16
   2  -5   5 3032.93   89.75
  -2   5  -5 3023.21   90.12
  -2   5  -5 2864.05   85.19
  -2   5  -5 2884.71   92.32
   2  -5   6 2266.38   65.83
   2  -5   6 2432.98   75.57
  -2   5  -6 2256.43   66.72
  -2   5  -6 2584.19   81.24
   2  -5   7 2131.32   73.02
   2  -5   7 2145.15   91.83
  -2   5  -7 2130.26   78.07
  -2   5  -7 2281.04   72.29
   2  -5   8  142.67   37.65
   2  -5   8   87.20   10.37
  -2   5  -8  144.83   33.59
  -2   5  -8  161.78   37.22
   2  -5   9  211.93   62.91
   2  -5   9  142.28   14.76
  -2   5  -9  135.19   31.96
  -2   5  -9  204.52   47.79
  -2   5  -9  125.69    9.81
   2  -5  10 1987.00   87.77
   2  -5  10 1821.10   72.94
  -2   5 -10 1949.89   88.04
  -2   5 -10 1870.25  101.67
  -2   5 -10 1797.67   72.50
   2  -5  11 6830.70  110.83
   2  -5  11 6670.20   33.53
  -2   5 -11 6744.06   81.96
  -2   5 -11 6553.62  185.89
  -2   5 -11 6492.71  170.67
   2  -5  12  628.36  109.17
   2  -5  12  500.56   36.90
  -2   5 -12  541.68   53.24
  -2   5 -12  412.83   57.92
  -2   5 -12  491.57   34.11
   2  -5  13  353.05   45.46
   2  -5  13  308.20   20.00
  -2   5 -13  325.53   30.60
  -2   5 -13  309.27   66.41
   2  -5  14  177.00   57.67
   2  -5  14  207.58   14.54
  -2   5 -14  200.56   45.19
  -2   5 -14  185.04   60.36
   2  -5  15  793.03   54.23
  -2   5 -15  704.98   53.75
  -2   5 -15  770.16   33.97
   2  -5  16 1921.42  125.35
  -2   5 -16 1704.78   95.88
  -2   5 -16 1671.21   95.31
   2  -5  17  308.49   37.81
  -2   5 -17  330.29   97.83
   2  -5  18   84.13   27.82
  -2   5 -18   82.51   21.69
   2  -5  19    5.12   17.69
  -2   5 -19   35.50   30.51
   2  -5  20  359.36  132.37
  -2   5 -20  412.05   85.89
  -2   4  19  905.33   81.13
  -2   4  19  985.13   77.78
   2  -4 -18  673.56   35.97
  -2   4  18  498.45  100.38
  -2   4  18  556.43   67.88
   2  -4 -17  569.13   63.47
  -2   4  17  665.34   45.14
  -2   4  17  574.72   40.39
   2  -4 -16  158.27   46.70
   2  -4 -16  104.83   36.24
  -2   4  16  131.14   45.74
  -2   4  16  139.73   79.09
   2  -4 -15  497.49   29.42
   2  -4 -15  449.24   52.51
  -2   4  15  461.55   50.60
  -2   4  15  432.63   46.01
   2  -4 -14  271.05   55.72
   2  -4 -14  286.73   26.43
  -2   4  14  270.16   51.18
  -2   4  14  298.80   28.69
   2  -4 -13 3695.85  146.52
   2  -4 -13 3809.86  157.17
  -2   4  13 3854.34  145.65
  -2   4  13 3827.00  189.00
   2  -4 -12  709.57   24.45
   2  -4 -12  663.55   32.40
  -2   4  12  635.39   54.89
  -2   4  12  755.42   63.69
   2  -4 -11  509.02   50.44
   2  -4 -11  595.17   35.53
  -2   4  11  608.83   33.53
  -2   4  11  543.61   51.16
   2  -4 -10  405.29   33.81
   2  -4 -10  433.67   39.36
  -2   4  10  347.88   34.24
  -2   4  10  385.64   58.76
   2  -4  -9  103.92   26.75
   2  -4  -9   77.56   21.71
  -2   4   9   94.34   18.52
  -2   4   9   75.95   20.87
   2  -4  -8  358.04   36.68
   2  -4  -8  528.96   93.16
  -2   4   8  356.08   30.00
  -2   4   8  351.33   42.92
   2  -4  -7 1195.93   55.54
   2  -4  -7 1085.92   52.17
  -2   4   7 1077.42   55.72
  -2   4   7 1141.99   52.41
  -2   4   7 1194.75   57.12
   2  -4  -6    9.07   10.07
   2  -4  -6   48.58   16.28
  -2   4   6   26.38    7.11
  -2   4   6   23.38   11.79
  -2   4   6   16.33   11.91
   2  -4  -5 1574.88   64.74
   2  -4  -5 1642.25   59.29
  -2   4   5 1544.39   56.27
  -2   4   5 1536.25   52.23
  -2   4   5 1521.14   55.64
   2  -4  -4  139.83   15.53
   2  -4  -4  205.62   38.72
   2  -4  -4  171.08   28.80
  -2   4   4  159.73   34.93
  -2   4   4  128.45    8.55
  -2   4   4  141.33   18.49
  -2   4   4  172.60   42.22
   2  -4  -3 1146.64   26.21
   2  -4  -3 1113.14   44.90
   2  -4  -3 1135.52   22.50
   2  -4  -3 1110.47   40.80
  -2   4   3 1089.89   35.54
  -2   4   3 1083.01   36.95
  -2   4   3 1137.66   24.25
  -2   4   3 1115.76   39.05
   2  -4  -2  305.76   15.39
   2  -4  -2  340.09   17.73
   2  -4  -2  353.16   18.11
  -2   4   2  365.85   21.03
  -2   4   2  313.28    5.83
  -2   4   2  321.65    6.23
  -2   4   2  343.97   22.53
  -2   4   2  356.83   15.99
   2  -4  -1  152.64   14.79
   2  -4  -1  153.20   11.48
   2  -4  -1  149.06   11.86
  -2   4   1  142.84   33.66
  -2   4   1  142.44   12.45
  -2   4   1  145.07   31.69
   2  -4   0 4058.17   45.15
   2  -4   0 3923.66   86.87
   2  -4   0 3892.87   81.59
  -2   4   0 4060.51   60.50
  -2   4   0 3939.72   82.52
  -2   4   0 3803.29   79.24
   2  -4   1 3902.12   78.42
   2  -4   1 3937.85   87.29
   2  -4   1 4033.47   32.85
   2  -4   1 3913.00   80.99
   2  -4   1 3915.37   78.65
  -2   4  -1 3947.04   84.42
  -2   4  -1 3935.32   81.14
  -2   4  -1 3982.66   41.17
   2  -4   2 6067.83   56.96
   2  -4   2 6216.40   69.23
   2  -4   2 6164.16   62.48
   2  -4   2 6155.46   62.86
  -2   4  -2 6138.64   63.71
  -2   4  -2 6178.52   62.53
  -2   4  -2 6178.95   55.16
   2  -4   3 1735.34   41.33
   2  -4   3 1796.98   40.89
   2  -4   3 1663.76   41.31
   2  -4   3 1801.22   40.59
  -2   4  -3 1710.57   44.79
  -2   4  -3 1764.92   41.59
  -2   4  -3 1822.51   41.27
  -2   4  -3 1823.46   40.69
   2  -4   4  251.86   29.39
   2  -4   4  230.99   23.65
   2  -4   4  266.96    9.47
   2  -4   4  247.61   28.78
   2  -4   4  246.81    8.87
  -2   4  -4  210.44   16.46
  -2   4  -4  208.72   14.03
  -2   4  -4  221.64   23.68
   2  -4   5 1990.29   65.47
   2  -4   5 1938.03   56.26
   2  -4   5 2019.09   56.93
   2  -4   5 1940.33   61.38
   2  -4   5 1981.94   55.35
  -2   4  -5 1983.88   58.82
  -2   4  -5 1974.91   61.26
  -2   4  -5 2010.32   61.81
   2  -4   6 1339.14   41.33
   2  -4   6 1398.05   41.87
   2  -4   6 1425.86   47.44
  -2   4  -6 1409.21   45.98
  -2   4  -6 1469.81   45.07
   2  -4   7    1.31    3.06
   2  -4   7   12.55    5.65
   2  -4   7   -1.11   12.05
  -2   4  -7    4.18    9.24
  -2   4  -7   10.32    7.81
  -2   4  -7    1.26    2.01
   2  -4   8 1306.11   51.23
   2  -4   8 1427.03   54.27
   2  -4   8 1432.32   74.20
  -2   4  -8 1399.63   73.60
  -2   4  -8 1529.94   52.65
  -2   4  -8 1377.31   21.32
   2  -4   9   41.07   27.27
   2  -4   9   34.52   13.72
  -2   4  -9    5.22    7.42
  -2   4  -9   30.89   19.67
   2  -4  10 2674.27   50.59
   2  -4  10 2654.78  108.81
  -2   4 -10 2714.34   74.16
  -2   4 -10 2680.02   79.97
  -2   4 -10 2662.99   38.00
   2  -4  11 2567.72  113.10
   2  -4  11 2485.05   76.06
  -2   4 -11 2502.88   83.34
  -2   4 -11 2671.10   85.15
  -2   4 -11 2308.05   35.46
   2  -4  12  108.71   31.02
   2  -4  12  114.60   23.14
  -2   4 -12   79.53   16.36
  -2   4 -12  112.68   29.97
  -2   4 -12   63.53   16.97
   2  -4  13   16.06    9.38
   2  -4  13    7.94    9.08
  -2   4 -13   26.74   14.63
  -2   4 -13   17.79   17.80
   2  -4  14  977.20   61.93
   2  -4  14  885.01   46.17
  -2   4 -14  915.41   54.43
  -2   4 -14  823.78   71.02
   2  -4  15 1074.45   80.85
   2  -4  15  961.00   44.27
  -2   4 -15  970.70   38.89
  -2   4 -15  998.84   90.17
   2  -4  16 1644.96  136.96
  -2   4 -16 2058.80  121.05
  -2   4 -17  885.70   57.94
   2  -4  18  103.39   41.38
  -2   4 -18   52.37   26.61
   2  -4  19  104.18   41.51
  -2   4 -19  131.28   41.32
  -2   3  20   71.51   44.77
  -2   3  20  106.03   54.68
   2  -3 -19  328.27   65.91
  -2   3  19  358.53   71.06
  -2   3  19  285.50   48.57
   2  -3 -18  390.59   43.49
  -2   3  18  368.33   79.14
  -2   3  18  450.97   31.79
   2  -3 -17  263.88   54.26
  -2   3  17  202.77   81.79
  -2   3  17  217.47   43.76
   2  -3 -16    6.20    9.88
   2  -3 -16   13.75    8.53
  -2   3  16   14.43   13.56
  -2   3  16    6.31   15.08
   2  -3 -15  566.26   21.68
   2  -3 -15  552.21   59.61
  -2   3  15  537.01   48.15
  -2   3  15  517.61   54.45
   2  -3 -14  467.92   50.03
   2  -3 -14  521.79   46.65
  -2   3  14  394.06   60.58
  -2   3  14  553.64   33.59
   2  -3 -13 2346.30   83.62
   2  -3 -13 2570.55   97.77
  -2   3  13 2514.85   98.03
  -2   3  13 2313.06  148.23
   2  -3 -12   79.19   14.29
   2  -3 -12   79.10   28.57
  -2   3  12   88.51   20.82
  -2   3  12   91.11   33.34
   2  -3 -11   11.27    7.75
   2  -3 -11   27.01   15.80
  -2   3  11   -3.60   10.90
  -2   3  11   17.58   16.91
   2  -3 -10  199.59   40.44
   2  -3 -10  189.38   46.15
  -2   3  10  148.15   36.67
  -2   3  10  175.83   38.83
   2  -3  -9 2262.43   98.90
   2  -3  -9 2344.19  102.52
  -2   3   9 2257.66  102.32
  -2   3   9 2261.85  101.91
   2  -3  -8 1369.81   57.96
   2  -3  -8 1322.69   58.32
  -2   3   8 1480.33   62.56
  -2   3   8 1369.29   61.73
   2  -3  -7   11.84    6.57
   2  -3  -7   -1.25    9.34
   2  -3  -7    6.61    6.46
  -2   3   7    7.83    8.59
  -2   3   7   14.80   10.38
   2  -3  -6  787.39   39.77
   2  -3  -6  737.46   34.29
   2  -3  -6  746.16   36.58
  -2   3   6  766.33   33.56
  -2   3   6  769.00   36.12
   2  -3  -5 1959.00   61.49
   2  -3  -5 2147.44   72.11
   2  -3  -5 2101.47   67.54
   2  -3  -5 1973.70   59.45
  -2   3   5 1918.55   58.11
  -2   3   5 1983.52   58.59
  -2   3   5 2033.61   61.89
   2  -3  -4 3309.26   38.69
   2  -3  -4 3429.72   66.09
   2  -3  -4 3441.98   73.70
   2  -3  -4 3458.20   67.42
  -2   3   4 3352.53   26.84
  -2   3   4 3277.68   95.05
   2  -3  -3 2466.09   59.24
   2  -3  -3 2571.21   65.48
   2  -3  -3 2558.54   62.10
   2  -3  -3 2449.48   54.43
   2  -3  -3 2506.30   52.87
  -2   3   3 2429.64   52.84
  -2   3   3 2635.39   60.23
  -2   3   3 2538.01   58.33
   2  -3  -2  320.36   12.25
   2  -3  -2  327.36   29.85
   2  -3  -2  334.22   15.95
   2  -3  -2  280.33   24.45
   2  -3  -2  328.59   13.98
  -2   3   2  315.65   10.84
  -2   3   2  313.00   21.55
  -2   3   2  332.37   15.25
   2  -3  -1  987.78   34.43
   2  -3  -1 1059.08   37.73
   2  -3  -1 1039.77   38.74
   2  -3  -1 1068.41   31.71
  -2   3   1 1137.28   39.20
  -2   3   1 1131.81   33.81
  -2   3   1 1065.95   35.05
  -2   3   1 1027.76   38.27
   2  -3   0  202.00   31.52
   2  -3   0  196.93   12.97
   2  -3   0  188.44   12.37
   2  -3   0  202.07   10.76
  -2   3   0  178.79   17.16
  -2   3   0  191.66   10.94
  -2   3   0  235.04   24.62
  -2   3   0  154.13    9.16
   2  -3   1 5533.58   48.41
   2  -3   1 5595.27   54.39
   2  -3   1 5650.07   58.63
   2  -3   1 5695.76   55.43
   2  -3   1 5662.21   52.30
   2  -3   1 5626.40   51.17
  -2   3  -1 5703.38   59.64
  -2   3  -1 5467.93   56.74
   2  -3   219315.52  159.58
   2  -3   219396.54  157.15
   2  -3   219685.18  164.17
   2  -3   219544.01  156.65
  -2   3  -219562.02  162.33
  -2   3  -219591.05  157.94
  -2   3  -219695.75  165.52
   2  -3   3 2474.37   55.84
   2  -3   3 2503.09   57.65
   2  -3   3 2548.87   52.77
   2  -3   3 2521.28   55.73
   2  -3   3 2447.56   54.78
   2  -3   3 2528.59   53.23
  -2   3  -3 2534.43   60.30
  -2   3  -3 2522.64   56.12
   2  -3   4   45.01   11.51
   2  -3   4   31.27    7.10
   2  -3   4   41.19    7.87
   2  -3   4   49.41   15.21
   2  -3   4   54.58   25.89
   2  -3   4   21.09    5.67
  -2   3  -4   15.89   12.60
  -2   3  -4   43.99   22.82
   2  -3   5  236.94   18.97
   2  -3   5  239.84   11.57
   2  -3   5  249.16   22.78
   2  -3   5  277.29   15.79
  -2   3  -5  211.87   13.74
  -2   3  -5  238.27   22.88
  -2   3  -5  216.01    7.82
   2  -3   6 1242.34   42.12
   2  -3   6 1263.05   38.65
   2  -3   6 1163.44   25.78
  -2   3  -6 1148.51   25.08
  -2   3  -6 1206.11   39.10
  -2   3  -6 1145.15   16.12
   2  -3   7 2484.70   79.97
   2  -3   7 2252.44   65.99
   2  -3   7 2400.60   68.91
  -2   3  -7 2334.27   67.53
  -2   3  -7 2167.97   71.29
   2  -3   8  115.37   23.21
   2  -3   8  104.74   19.70
   2  -3   8  130.78   44.99
  -2   3  -8  139.18   37.64
  -2   3  -8  100.99   24.41
  -2   3  -8  107.27   12.61
   2  -3   9   61.71   14.86
   2  -3   9   30.26    7.88
   2  -3   9   28.38   17.01
  -2   3  -9   22.75   10.33
  -2   3  -9   32.95   12.35
  -2   3  -9   22.03   11.61
   2  -3  10  217.73   18.63
   2  -3  10  251.10   15.99
   2  -3  10  195.47   29.37
  -2   3 -10  279.09   70.87
  -2   3 -10  285.89   13.07
   2  -3  11  840.13   21.98
   2  -3  11  814.50   42.77
   2  -3  11  889.53   51.70
  -2   3 -11  931.53   63.37
  -2   3 -11  781.78   48.85
   2  -3  12  182.81   54.32
   2  -3  12  188.17   27.42
  -2   3 -12  216.94   19.42
  -2   3 -12  171.39   48.97
   2  -3  13   87.71   21.68
   2  -3  13  107.41   31.79
  -2   3 -13  123.34   29.63
  -2   3 -13  176.10   36.86
   2  -3  14  341.78   47.76
   2  -3  14  299.94   37.03
  -2   3 -14  272.21   25.82
  -2   3 -14  304.92   29.50
   2  -3  15 1011.18   79.64
   2  -3  15 1033.76   44.73
  -2   3 -15  974.14   41.58
  -2   3 -15 1130.93   67.28
   2  -3  16 1129.50   69.62
  -2   3 -16 1202.28   71.61
   2  -3  17  764.04   85.39
  -2   3 -17  895.03   97.81
   2  -3  18   61.00   46.53
  -2   3 -18  111.13   38.12
   2  -3  19   75.58   53.18
  -2   3 -19  214.43   78.44
  -2   2  20   82.79   49.29
  -2   2  20   67.73   48.51
   2  -2 -19  312.03   38.24
  -2   2  19  184.04   67.31
   2  -2 -18  125.43   52.51
   2  -2 -18  114.54   47.54
  -2   2  18   80.61   49.30
  -2   2  18   96.14   32.83
   2  -2 -17  105.52   49.11
   2  -2 -17  147.95   58.83
  -2   2  17  138.26   47.70
   2  -2 -16    8.36    4.84
   2  -2 -16   10.66   16.03
  -2   2  16    9.10   18.22
   2  -2 -15  458.27   31.79
   2  -2 -15  458.27   42.51
  -2   2  15  446.09   59.42
  -2   2  15  467.16   55.59
   2  -2 -14 1333.98   67.91
   2  -2 -14 1181.28   81.76
  -2   2  14 1324.17  107.02
  -2   2  14 1258.63   80.51
   2  -2 -13 1592.56   69.15
   2  -2 -13 1650.31   72.81
  -2   2  13 1540.00   62.71
  -2   2  13 1563.48   69.24
   2  -2 -12  344.11   40.03
   2  -2 -12  437.09   25.04
  -2   2  12  387.12   45.01
  -2   2  12  408.13   29.38
   2  -2 -11   21.32   14.98
   2  -2 -11   11.17    7.74
  -2   2  11    9.37    7.32
  -2   2  11   14.01   11.65
   2  -2 -10 1427.19   73.88
   2  -2 -10 1414.71   72.23
  -2   2  10 1498.70   73.14
  -2   2  10 1435.51   70.86
   2  -2  -9 1105.45   50.65
   2  -2  -9 1238.94   65.39
  -2   2   9 1226.06   56.60
  -2   2   9 1286.27  109.21
   2  -2  -8   92.41   24.01
   2  -2  -8   99.12   31.13
  -2   2   8   89.24   25.73
  -2   2   8   90.33   24.16
   2  -2  -7  444.27   24.58
   2  -2  -7  410.74   23.73
   2  -2  -7  421.54   24.62
  -2   2   7  441.21   28.24
  -2   2   7  429.34   37.78
   2  -2  -6  136.84   14.39
   2  -2  -6  156.15   16.37
   2  -2  -6  180.72   15.85
  -2   2   6  120.73   10.43
  -2   2   6  156.86   22.80
  -2   2   6  127.60   10.84
  -2   2   6  177.17   44.29
   2  -2  -5 6200.87  102.96
   2  -2  -5 5884.73   97.91
   2  -2  -5 6018.07   98.93
   2  -2  -5 5812.71  107.99
  -2   2   5 6022.73  101.24
  -2   2   5 5942.02  100.85
  -2   2   5 5869.22  102.15
  -2   2   5 6012.89  100.33
   2  -2  -4  441.21   19.51
   2  -2  -4  398.90   15.83
   2  -2  -4  423.95   28.16
   2  -2  -4  401.62   17.99
  -2   2   4  439.39   23.77
  -2   2   4  425.93   20.03
  -2   2   4  451.66   22.93
  -2   2   4  416.86   25.71
   2  -2  -3 3974.43   29.79
   2  -2  -3 4075.44   41.44
   2  -2  -3 4003.52   45.80
  -2   2   3 4139.56   43.31
  -2   2   3 4133.96   54.72
  -2   2   3 4010.34   25.58
   2  -2  -2  669.02   31.82
   2  -2  -2  680.74   42.71
   2  -2  -2  695.06   29.57
   2  -2  -2  677.30   36.75
   2  -2  -2  704.14   24.39
  -2   2   2  688.09   22.23
  -2   2   2  702.15   26.81
  -2   2   2  681.54   26.40
   2  -2  -1 6436.12   61.69
   2  -2  -1 6797.97   64.40
   2  -2  -1 6560.59   57.52
   2  -2  -1 6476.42   54.86
  -2   2   1 6670.76   56.08
  -2   2   1 6456.16   57.25
  -2   2   1 6794.73   62.19
   2  -2   0   45.71   13.70
   2  -2   0   45.25   15.34
   2  -2   0   57.65   14.51
   2  -2   0   59.18   12.71
   2  -2   0   67.39   19.22
  -2   2   0   50.72   18.87
  -2   2   0   61.62    8.48
  -2   2   0   81.18   18.55
   2  -2   1   97.76   10.11
   2  -2   1   81.89   12.34
   2  -2   1   89.50    8.66
   2  -2   1   93.87   15.50
  -2   2  -1  103.35   23.78
  -2   2  -1  102.89   15.30
  -2   2  -1  104.82   15.37
  -2   2  -1   96.37   10.03
   2  -2   2  118.03    8.68
   2  -2   2  111.31   11.20
   2  -2   2  103.26    9.18
   2  -2   2  106.39    9.64
   2  -2   2  107.15    7.52
  -2   2  -2  121.10   19.27
  -2   2  -2  100.99   13.27
  -2   2  -2  127.34   14.63
   2  -2   3   74.36   14.93
   2  -2   3   78.34   10.81
   2  -2   3   75.88   13.45
   2  -2   3   80.12   14.30
   2  -2   3   89.19   33.98
  -2   2  -3   65.04    9.32
  -2   2  -3   61.32    8.69
  -2   2  -3   74.46    9.99
   2  -2   4  364.90   15.84
   2  -2   4  374.36   13.76
   2  -2   4  368.76   16.32
   2  -2   4  355.63   16.17
   2  -2   4  398.71   25.25
  -2   2  -4  371.26   19.31
  -2   2  -4  365.44   26.90
  -2   2  -4  368.90   17.34
   2  -2   5 2256.34   69.11
   2  -2   5 2141.55   60.85
   2  -2   5 2295.10   65.55
   2  -2   5 2414.99   72.13
   2  -2   5 2445.11   75.07
  -2   2  -5 2340.64   67.27
  -2   2  -5 2422.03   72.00
  -2   2  -5 2271.83   66.30
   2  -2   6 8172.88  141.96
   2  -2   6 7874.37  123.84
   2  -2   6 8008.16  131.39
  -2   2  -6 7980.28  126.48
  -2   2  -6 7822.39  125.48
   2  -2   7    5.71    7.23
   2  -2   7   -0.87    3.84
   2  -2   7   12.43    7.55
  -2   2  -7    5.43    6.52
  -2   2  -7   -1.33    3.95
  -2   2  -7    2.30    5.19
   2  -2   8 1980.99   83.91
   2  -2   8 1994.49   84.02
   2  -2   8 2044.03   91.87
  -2   2  -8 1938.48   85.18
  -2   2  -8 1997.86   87.96
  -2   2  -8 1925.41   81.80
   2  -2   9  150.32   24.70
   2  -2   9   64.39   13.20
   2  -2   9   42.08   25.94
  -2   2  -9  105.62   29.45
  -2   2  -9   65.27   13.94
  -2   2  -9   96.83   20.70
   2  -2  10 1574.77   69.99
   2  -2  10 1549.25   71.17
  -2   2 -10 1485.26   67.85
  -2   2 -10 1410.79   65.97
   2  -2  11 1093.23   50.21
   2  -2  11  974.99   46.72
   2  -2  11 1136.94   56.89
  -2   2 -11 1103.66   54.53
  -2   2 -11 1101.68   56.93
   2  -2  12  112.86   22.56
   2  -2  12  164.36   27.64
  -2   2 -12  150.00   21.79
  -2   2 -12  184.13   45.01
   2  -2  13   -1.35   16.67
   2  -2  13   23.38   12.62
  -2   2 -13    9.27    6.36
  -2   2 -13   40.39   19.86
   2  -2  14  288.30   88.12
   2  -2  14  269.47   23.44
  -2   2 -14  221.62   34.58
  -2   2 -14  217.29   48.82
   2  -2  15 1713.82   75.10
   2  -2  15 1790.20  121.44
  -2   2 -15 1993.14   84.26
   2  -2  16 1333.85  106.18
   2  -2  16 1494.46  116.94
  -2   2 -16 1600.75  112.94
   2  -2  17  557.43  104.43
  -2   2 -17  691.16   36.83
   2  -2  18   13.40   14.38
  -2   2 -18   10.78   16.75
   2  -2  19   49.63   32.15
  -2   2 -19   37.76   20.93
  -2   1  20  144.19   69.94
   2  -1 -19  179.21   62.67
  -2   1  19  162.52   75.04
  -2   1  19  179.44   69.20
   2  -1 -18  294.88   55.37
   2  -1 -18  273.56   87.49
  -2   1  18  253.19  112.47
  -2   1  18  447.32   33.67
   2  -1 -17   77.99   32.94
   2  -1 -17  104.97   43.77
  -2   1  17  123.98   52.19
  -2   1  17  122.95   43.77
   2  -1 -16    7.89    5.47
   2  -1 -16    3.19   10.52
  -2   1  16   19.02   14.19
  -2   1  16    5.63   10.79
   2  -1 -15  544.42   58.74
   2  -1 -15  559.37   42.14
  -2   1  15  496.58   53.54
  -2   1  15  526.36   69.66
   2  -1 -14 2659.93   90.78
   2  -1 -14 2619.00  101.13
  -2   1  14 2670.27  103.58
  -2   1  14 2533.48   94.14
   2  -1 -13 1688.52   78.57
   2  -1 -13 1604.22   91.75
  -2   1  13 1660.81   78.10
  -2   1  13 1710.90   78.98
   2  -1 -12 3169.68  117.43
   2  -1 -12 3182.98  120.96
  -2   1  12 2876.34  116.73
  -2   1  12 3053.40  112.58
   2  -1 -11  153.64   19.48
   2  -1 -11  193.07   29.05
  -2   1  11  180.22   29.98
  -2   1  11  209.71   59.28
   2  -1 -10  103.06   25.50
   2  -1 -10  100.45   22.36
  -2   1  10  105.03   19.81
  -2   1  10   71.02   26.33
   2  -1  -9  897.70   40.12
   2  -1  -9  900.52   44.26
  -2   1   9  911.03   41.81
  -2   1   9  870.76   27.71
   2  -1  -8 1148.98   55.88
   2  -1  -8 1045.64   44.77
  -2   1   8 1139.09   75.54
  -2   1   8 1015.78   50.45
   2  -1  -7  996.87   43.60
   2  -1  -7 1086.25   45.20
   2  -1  -7 1076.10   40.91
  -2   1   7 1072.32   46.66
  -2   1   7 1013.61   42.62
  -2   1   7 1177.96   60.20
   2  -1  -6   27.54   12.82
   2  -1  -6   29.05   15.12
   2  -1  -6   26.24    9.95
   2  -1  -6   -0.01    8.93
  -2   1   6    4.42    4.75
  -2   1   6   18.55   11.72
  -2   1   6   15.75   12.17
  -2   1   6    8.02   10.18
   2  -1  -5 2690.08   60.91
   2  -1  -5 2513.46   55.75
   2  -1  -5 2500.03   53.57
   2  -1  -5 2544.38   59.78
  -2   1   5 2568.94   58.06
  -2   1   5 2412.95   52.97
  -2   1   5 2558.72   57.57
  -2   1   5 2549.98   55.57
   2  -1  -4 2910.47   69.80
   2  -1  -4 2838.73   61.63
   2  -1  -4 2922.18   66.36
   2  -1  -4 2942.66   64.86
  -2   1   4 2985.98   63.24
  -2   1   4 2769.80   59.53
  -2   1   4 2774.58   66.47
  -2   1   4 2830.89   58.78
   2  -1  -2 2492.30   52.62
   2  -1  -2 2528.62   52.37
   2  -1  -2 2544.61   51.73
   2  -1  -2 2520.54   57.59
  -2   1   2 2574.76   56.60
  -2   1   2 2442.69   51.94
  -2   1   2 2575.04   57.16
  -2   1   2 2549.73   51.75
   2  -1  -1  300.00   11.24
   2  -1  -1  288.47   16.24
   2  -1  -1  291.15    9.13
   2  -1  -1  290.38   27.80
  -2   1   1  294.79   20.88
  -2   1   1  270.87   13.58
  -2   1   1  308.61   27.07
  -2   1   1  282.58   10.62
   2  -1   021183.28  171.08
   2  -1   021233.78  167.61
   2  -1   021254.43  171.97
   2  -1   021063.45  169.21
  -2   1   021210.23  170.69
   2  -1   1 4779.83   45.31
   2  -1   1 4914.10   46.85
   2  -1   1 4866.04   49.34
   2  -1   1 4806.76   44.77
   2  -1   1 4951.97   46.00
  -2   1  -1 4941.35   51.04
  -2   1  -1 4821.57   47.48
   2  -1   2  592.03   22.78
   2  -1   2  569.42   19.32
   2  -1   2  604.91   20.87
   2  -1   2  616.64   22.54
  -2   1  -2  599.44   20.30
  -2   1  -2  621.87   24.06
  -2   1  -2  564.44   19.83
  -2   1  -2  554.24   20.31
   2  -1   3 2700.15   59.93
   2  -1   3 2676.51   53.70
   2  -1   3 2673.92   57.41
   2  -1   3 2630.45   59.41
  -2   1  -3 2678.17   54.81
  -2   1  -3 2665.15   58.68
  -2   1  -3 2688.44   64.14
  -2   1  -3 2647.87   56.68
   2  -1   4  707.37   27.83
   2  -1   4  695.31   22.84
   2  -1   4  707.84   28.79
   2  -1   4  747.93   28.23
   2  -1   4  696.29   30.13
  -2   1  -4  703.57   22.46
  -2   1  -4  698.29   25.74
  -2   1  -4  710.95   30.58
   2  -1   5 2933.53   92.78
   2  -1   5 2820.69   83.06
   2  -1   5 2873.25   82.78
   2  -1   5 2796.13   90.39
  -2   1  -5 2752.90   76.73
  -2   1  -5 2821.63   81.37
  -2   1  -5 2749.44   83.87
   2  -1   6 2095.74   69.81
   2  -1   6 2074.89   59.78
   2  -1   6 2187.23   69.15
  -2   1  -6 2206.84   67.97
  -2   1  -6 2076.89   58.67
  -2   1  -6 2032.32   63.46
   2  -1   7 3442.10   95.94
   2  -1   7 3343.84   95.56
  -2   1  -7 3467.98   96.88
  -2   1  -7 3431.88  101.37
   2  -1   8 2891.66   74.59
   2  -1   8 3154.62   76.15
   2  -1   8 2972.07  102.83
  -2   1  -8 3157.31   84.06
  -2   1  -8 3036.28   74.02
   2  -1   9   44.05   25.04
   2  -1   9    6.17    5.95
   2  -1   9   18.73   17.44
  -2   1  -9    9.72   16.51
  -2   1  -9    5.93    5.20
   2  -1  10  374.88   31.24
   2  -1  10  332.64   27.36
   2  -1  10  383.11   52.83
  -2   1 -10  357.10   46.07
  -2   1 -10  355.07   31.74
   2  -1  11  372.61   27.33
   2  -1  11  350.77   19.40
   2  -1  11  413.76   43.47
  -2   1 -11  459.05   53.43
  -2   1 -11  399.02   44.78
   2  -1  12  153.07   47.81
   2  -1  12  163.22   47.61
  -2   1 -12  132.04   12.03
  -2   1 -12  128.40   26.45
   2  -1  13   17.74   16.11
   2  -1  13   17.59    6.97
  -2   1 -13   12.65    7.20
  -2   1 -13   18.55    9.29
   2  -1  14   62.63   20.67
   2  -1  14   35.82   21.26
  -2   1 -14   39.96   23.99
   2  -1  15  987.61   68.38
   2  -1  15  951.67  128.26
  -2   1 -15  861.49   80.04
   2  -1  16  524.21   25.04
   2  -1  16  488.98   91.52
  -2   1 -16  553.00   54.76
   2  -1  17   71.94   34.44
   2  -1  17   23.31   33.54
  -2   1 -17  108.41   44.28
   2  -1  18    8.33   19.25
  -2   1 -18   23.69   11.51
   2  -1  19   53.92   36.33
  -2   1 -19  212.19   45.74
   2   0 -20   94.16   32.26
  -2   0  20  142.03   36.78
   2   0 -19   36.27   17.39
   2   0 -19   75.31   26.64
  -2   0  19   85.96   37.79
  -2   0  19   55.73   28.65
   2   0 -18  117.71   60.01
   2   0 -18  172.27   27.93
  -2   0  18  148.95   59.69
  -2   0  18  160.25   36.99
   2   0 -17  110.17   42.01
   2   0 -17  186.12   29.30
  -2   0  17  156.22   53.10
  -2   0  17  149.52   41.65
   2   0 -16   86.63   28.42
   2   0 -16  105.33   29.29
  -2   0  16   82.37   27.82
  -2   0  16   96.56   32.68
   2   0 -15  384.38   52.01
   2   0 -15  412.82   34.40
  -2   0  15  435.77   68.42
  -2   0  15  425.31   42.33
   2   0 -14 1170.53   62.91
   2   0 -14 1149.50   64.38
  -2   0  14 1229.78   57.49
  -2   0  14 1037.03   89.84
   2   0 -13   90.86   21.87
   2   0 -13   73.25   18.70
  -2   0  13   35.33   24.53
  -2   0  13  115.81   38.11
   2   0 -12 1801.89   76.16
   2   0 -12 2059.88  107.90
  -2   0  12 2087.00  100.41
  -2   0  12 1958.80   95.24
   2   0 -11   19.81    9.08
   2   0 -11  -15.19   12.05
  -2   0  11    4.87    7.71
  -2   0  11    6.39    8.56
   2   0 -10  993.02   47.19
   2   0 -10 1031.75   56.99
  -2   0  10  867.73   47.51
  -2   0  10  984.18   60.76
   2   0  -9 1221.78   52.91
   2   0  -9 1198.48   53.34
  -2   0   9 1240.13   59.82
  -2   0   9 1178.54   50.38
   2   0  -8 3020.94   93.95
   2   0  -8 3114.75   90.35
  -2   0   8 3214.75   97.59
  -2   0   8 3286.18   94.41
   2   0  -7 1256.35   42.93
   2   0  -7 1244.91   43.21
   2   0  -7 1189.07   23.19
   2   0  -7 1288.77   43.84
  -2   0   7 1201.41   39.37
  -2   0   7 1300.91   48.38
  -2   0   7 1256.99   39.94
   2   0  -6  270.23   16.54
   2   0  -6  328.47   15.08
   2   0  -6  302.61   19.50
   2   0  -6  289.52   25.54
  -2   0   6  345.87   41.03
  -2   0   6  311.19   16.37
  -2   0   6  314.61   25.82
  -2   0   6  257.17    9.46
   2   0  -5 1990.39   50.75
   2   0  -5 1930.64   46.56
   2   0  -5 1973.57   44.44
   2   0  -5 1989.62   46.32
  -2   0   5 2006.74   46.34
  -2   0   5 1943.11   49.61
  -2   0   5 1956.34   46.66
  -2   0   5 2084.54   45.23
   2   0  -4 3813.59   79.51
   2   0  -4 3942.77   82.83
   2   0  -4 3768.57   77.62
   2   0  -4 3839.75   81.12
  -2   0   4 3873.05   81.27
  -2   0   4 3974.73   36.27
  -2   0   4 3969.43   96.86
  -2   0   4 3838.28   78.83
   2   0  -3  701.29   33.94
   2   0  -3  692.34   29.38
   2   0  -3  655.87   21.77
   2   0  -3  689.81   24.74
  -2   0   3  700.98   26.58
  -2   0   3  620.91   27.04
  -2   0   3  666.91   28.52
  -2   0   3  653.41   23.68
   2   0  -2 1695.28   39.77
   2   0  -2 1687.84   37.12
   2   0  -2 1738.52   34.45
   2   0  -2 1671.18   40.90
  -2   0   2 1652.77   41.53
  -2   0   2 1656.10   37.22
  -2   0   2 1663.61   42.35
  -2   0   2 1680.49   33.56
   2   0  -1  748.66   25.85
   2   0  -1  738.89   25.77
   2   0  -1  764.36   30.38
  -2   0   1  752.72   27.67
  -2   0   1  722.34   26.02
  -2   0   1  806.80   27.72
   2   0   032118.54   64.16
   2   0   218690.12  145.68
   2   0   218162.35  141.44
   2   0   218931.39  159.32
   2   0   217992.83  148.98
  -2   0  -218133.24  149.33
   2   0   3 6005.96   59.25
   2   0   3 5944.54   64.69
  -2   0  -3 6052.00   58.55
  -2   0  -3 6105.36   75.95
  -2   0  -3 5993.56   61.33
   2   0   4  519.56   28.22
   2   0   4  532.22   21.59
   2   0   4  484.82   22.66
  -2   0  -4  512.86   23.31
  -2   0  -4  499.68   20.96
  -2   0  -4  462.62   19.32
   2   0   5 3377.30   65.93
   2   0   5 3371.45   47.03
   2   0   5 3433.40   61.77
  -2   0  -5 3513.75   69.94
  -2   0  -5 3222.15   87.78
  -2   0  -5 3388.24   70.62
   2   0   610791.03  187.91
   2   0   7 6542.93  122.19
   2   0   7 6306.00  104.25
   2   0   7 6566.60  139.81
  -2   0  -7 6751.19  120.71
  -2   0  -7 6516.72  108.84
   2   0   8 1166.96   66.88
   2   0   8 1188.81   48.86
   2   0   8 1265.59   59.03
  -2   0  -8 1119.96   59.53
  -2   0  -8 1174.80   49.15
   2   0   9    6.61    9.23
   2   0   9    9.98    7.96
   2   0   9   -5.65   15.56
  -2   0  -9   16.85   15.54
  -2   0  -9   12.34    4.35
   2   0  10 1068.77   54.31
   2   0  10 1021.73   46.48
   2   0  10 1149.43   92.17
  -2   0 -10 1084.23   51.36
  -2   0 -10 1124.17   50.32
   2   0  11 1003.47   59.68
   2   0  11  917.47   75.74
  -2   0 -11  977.29   52.17
  -2   0 -11  972.37   66.24
   2   0  12  456.00   79.42
   2   0  12  377.81   40.24
  -2   0 -12  359.64   12.39
  -2   0 -12  419.39   34.18
   2   0  13   21.21    8.96
   2   0  13    0.52   10.00
  -2   0 -13    9.62    9.03
  -2   0 -13    2.08   11.63
   2   0  14    8.14   12.60
   2   0  14   31.90   24.82
  -2   0 -14   15.14   10.02
   2   0  15  251.16   70.83
   2   0  15  405.83   85.45
  -2   0 -15  328.11   63.35
   2   0  16   37.81   22.98
   2   0  16   53.83   25.12
  -2   0 -16   51.10   26.38
   2   0  17   26.25   13.83
   2   0  17   45.56   19.43
  -2   0 -17   46.66   36.74
   2   0  18   14.36   24.77
  -2   0 -18   26.44   14.49
   2   0  19  134.16   68.45
   2   1 -21   28.70   13.79
  -2  -1  21   23.76   13.90
   2   1 -20   -1.77    9.12
  -2  -1  20   22.92   14.52
   2   1 -19  116.04   69.19
   2   1 -19  173.28   48.89
  -2  -1  19  190.70   56.59
  -2  -1  19  196.83   35.11
   2   1 -18   79.70   37.65
   2   1 -18   72.41   30.91
  -2  -1  18   86.04   29.45
  -2  -1  18   45.59   24.79
   2   1 -17   19.60   10.41
   2   1 -17   24.44   16.37
  -2  -1  17   17.30   16.60
  -2  -1  17   11.53    8.80
   2   1 -16    9.48   13.01
   2   1 -16   20.85   11.18
  -2  -1  16   -0.86   15.35
  -2  -1  16    9.12    7.42
   2   1 -15  810.03   33.59
   2   1 -15  680.20   53.09
  -2  -1  15  773.22   48.63
  -2  -1  15  855.83   76.78
   2   1 -14 2231.44   91.78
   2   1 -14 2316.87  107.91
  -2  -1  14 2231.02  100.67
  -2  -1  14 2239.55   93.06
   2   1 -13   18.81    9.01
   2   1 -13   12.45    8.73
  -2  -1  13   10.23   10.00
  -2  -1  13   12.91   12.56
   2   1 -12  690.73   37.05
   2   1 -12  706.69   58.92
  -2  -1  12  767.09   46.05
  -2  -1  12  710.91   39.31
   2   1 -11   54.19   11.54
   2   1 -11   31.80   12.22
  -2  -1  11   19.35   10.68
  -2  -1  11   19.08   13.48
   2   1 -10  287.05   16.12
   2   1 -10  334.51   31.38
  -2  -1  10  350.12   26.18
  -2  -1  10  370.50   31.76
   2   1  -9 2663.47   84.15
   2   1  -9 2520.72   82.01
  -2  -1   9 2645.67   88.85
  -2  -1   9 2724.00   83.80
   2   1  -8 5066.73   90.82
   2   1  -8 5220.65   94.51
   2   1  -8 5096.35   97.91
  -2  -1   8 5291.41   98.26
  -2  -1   8 5008.02   97.35
  -2  -1   8 5129.96  107.17
   2   1  -7  863.53   32.50
   2   1  -7  898.97   42.19
   2   1  -7  946.69   36.76
   2   1  -7  923.71   36.36
  -2  -1   7  899.25   35.20
  -2  -1   7  890.50   46.15
  -2  -1   7  840.66   32.57
   2   1  -6  479.36   27.62
   2   1  -6  569.56   33.79
   2   1  -6  482.43   25.21
   2   1  -6  541.26   21.39
  -2  -1   6  582.14   32.10
  -2  -1   6  518.09   22.42
  -2  -1   6  549.32   27.12
  -2  -1   6  524.59   21.33
   2   1  -5  388.29   42.34
   2   1  -5  303.24   13.39
   2   1  -5  310.56   10.39
   2   1  -5  308.49    9.94
  -2  -1   5  306.99   36.00
  -2  -1   5  305.08   11.35
  -2  -1   5  328.45   20.91
  -2  -1   5  313.83   15.72
   2   1  -4 3526.70   77.42
   2   1  -4 3459.49   72.90
   2   1  -4 3460.26   70.97
   2   1  -4 3580.00   78.11
  -2  -1   4 3406.13   72.89
  -2  -1   4 3414.99   71.84
  -2  -1   4 3495.53   73.84
  -2  -1   4 3424.94   71.08
   2   1  -3   19.42    9.32
   2   1  -3   13.64    9.79
   2   1  -3    7.59    3.79
   2   1  -3   19.84   11.49
  -2  -1   3   13.13    9.51
  -2  -1   3   12.30   10.19
  -2  -1   3   24.72   12.08
  -2  -1   3   12.77    5.04
   2   1  -2  106.19   11.91
   2   1  -2  109.86   16.20
   2   1  -2  101.75   15.52
  -2  -1   2   97.45    8.03
  -2  -1   2  102.07   11.56
  -2  -1   2  104.19    8.86
  -2  -1   2  125.05   32.78
  -2  -1   2  115.35   12.74
   2   1  -1 1661.64   36.17
   2   1  -1 1708.87   41.22
   2   1  -1 1730.77   42.48
   2   1  -1 1660.30   35.23
   2   1  -1 1860.05   43.59
  -2  -1   1 1779.04   51.32
  -2  -1   1 1698.25   36.23
  -2  -1   1 1672.51   37.77
  -2  -1   030312.02  239.01
  -2  -1   030382.45  239.75
   2   1   1 3966.53   78.84
   2   1   1 4070.70   43.10
   2   1   1 4133.55   56.37
   2   1   1 4192.43   40.00
  -2  -1  -1 4215.99   49.69
  -2  -1  -1 3829.38   78.11
  -2  -1  -1 3816.17   78.76
   2   1   2 4629.07   45.13
   2   1   2 4671.22   52.64
  -2  -1  -2 4775.08   54.16
  -2  -1  -2 4818.70   52.52
   2   1   3  483.61   23.97
   2   1   3  511.59   20.38
   2   1   3  500.62   34.33
  -2  -1  -3  486.80   29.69
  -2  -1  -3  474.17   27.04
  -2  -1  -3  458.29   32.48
   2   1   4  955.34   39.43
   2   1   4  956.54   39.09
   2   1   4  949.88   51.77
  -2  -1  -4 1017.05   37.90
  -2  -1  -4 1008.21   45.93
  -2  -1  -4  979.49   47.96
   2   1   5 2578.12   77.20
  -2  -1  -5 2486.08   68.19
  -2  -1  -5 2475.53   72.66
  -2  -1  -5 2296.37   73.99
  -2  -1  -5 2670.55   73.39
   2   1   6 8756.09  161.03
   2   1   6 9299.69  167.90
  -2  -1  -6 9345.64  163.83
  -2  -1  -6 9296.17  151.57
  -2  -1  -6 9043.27  147.87
   2   1   7 5330.27  140.65
   2   1   7 5201.12  128.14
  -2  -1  -7 5014.34  116.10
  -2  -1  -7 5374.89  133.83
   2   1   8   51.87   21.27
   2   1   8   32.02   16.20
  -2  -1  -8   46.38    9.15
  -2  -1  -8    9.88    3.34
  -2  -1  -8   12.18    4.12
   2   1   9   13.95   14.40
   2   1   9   11.26   10.31
  -2  -1  -9    4.34    3.17
  -2  -1  -9   17.06   15.17
   2   1  10 1491.88   68.74
   2   1  10 1631.70   89.26
  -2  -1 -10 1590.42   75.44
  -2  -1 -10 1481.73   61.10
  -2  -1 -10 1465.27   62.18
   2   1  11 2029.20   94.31
   2   1  11 2036.65   94.52
  -2  -1 -11 1711.72   71.20
  -2  -1 -11 1843.94  103.48
   2   1  12  214.92   30.99
   2   1  12  270.55   27.22
  -2  -1 -12  196.96   22.20
  -2  -1 -12  256.13   67.25
   2   1  13    6.29   19.56
   2   1  13   15.47   10.82
  -2  -1 -13   37.15   15.87
   2   1  14   51.79   17.61
   2   1  14   94.93   36.14
  -2  -1 -14   12.89   16.61
   2   1  15 1028.46   63.56
   2   1  15 1127.68   91.55
  -2  -1 -15 1153.83  107.94
   2   1  16  209.49   72.74
   2   1  16  233.12   84.64
  -2  -1 -16  273.30   53.65
   2   1  17   18.03   12.57
   2   1  17   31.61   14.71
  -2  -1 -17   16.28   10.65
   2   1  18   93.06   39.60
  -2  -1 -18   66.06   30.16
   2   2 -21   46.53   35.77
  -2  -2  21   77.75   30.18
   2   2 -20  359.11   58.86
   2   2 -20  451.79   66.01
  -2  -2  20  353.20   94.30
   2   2 -19   76.18   42.93
   2   2 -19   85.85   40.92
  -2  -2  19   78.37   32.61
   2   2 -18  165.23   44.02
   2   2 -18  250.39   47.73
  -2  -2  18  214.30   56.51
  -2  -2  18  201.62   42.23
   2   2 -17  138.66   36.24
   2   2 -17  126.02   34.18
  -2  -2  17  135.39   39.32
  -2  -2  17  144.07   27.12
   2   2 -16   15.12   10.93
   2   2 -16   20.49   10.17
  -2  -2  16   25.58   11.04
  -2  -2  16    9.51    8.04
   2   2 -15  583.43   47.41
  -2  -2  15  646.05   39.18
  -2  -2  15  578.01   36.62
   2   2 -14 3835.34  135.86
   2   2 -14 3700.50  149.44
  -2  -2  14 3945.90  155.56
  -2  -2  14 3728.83  136.13
   2   2 -13 1395.47  101.89
   2   2 -13 1449.54   82.69
  -2  -2  13 1335.41   84.78
  -2  -2  13 1308.19   72.10
   2   2 -12  181.64   43.45
   2   2 -12  172.98   26.68
  -2  -2  12  175.62   31.82
  -2  -2  12  215.30   43.73
   2   2 -11   71.50   27.00
   2   2 -11   42.33   14.92
  -2  -2  11   86.22   24.85
  -2  -2  11   33.90    9.94
   2   2 -10  622.26   36.25
   2   2 -10  501.61   32.12
  -2  -2  10  646.19   43.22
  -2  -2  10  608.48   40.33
   2   2  -9 6088.88  112.85
   2   2  -9 6000.81  117.09
  -2  -2   9 6160.78  113.59
  -2  -2   9 6069.60  110.04
   2   2  -8 3736.93  106.00
   2   2  -8 3813.81  111.85
   2   2  -8 3791.63  108.31
  -2  -2   8 3699.75  108.29
  -2  -2   8 3806.18  112.81
  -2  -2   8 3958.65   42.99
   2   2  -7  657.88   31.80
   2   2  -7  632.57   29.40
   2   2  -7  637.48   27.33
  -2  -2   7  596.12   23.87
  -2  -2   7  569.12   36.17
  -2  -2   7  662.75   37.11
   2   2  -6  985.66   37.37
   2   2  -6  983.95   36.79
   2   2  -6  935.76   35.29
   2   2  -6  969.97   40.43
  -2  -2   6  993.36   37.28
  -2  -2   6  988.50   35.65
  -2  -2   6  998.49   44.29
  -2  -2   6 1024.55   36.14
   2   2  -5  488.45   41.61
   2   2  -5  455.50   34.52
   2   2  -5  442.29   21.41
   2   2  -5  430.95   17.94
  -2  -2   5  464.93   21.44
  -2  -2   5  393.44   16.87
  -2  -2   5  468.64   22.88
  -2  -2   5  468.91   19.18
   2   2  -4 4974.51   52.41
   2   2  -4 4800.23   46.71
   2   2  -4 4932.41   60.25
  -2  -2   4 4805.15   52.63
  -2  -2   4 4801.41   49.13
  -2  -2   4 4663.75   52.46
   2   2  -3   35.98   15.65
   2   2  -3   21.42   12.81
   2   2  -3   27.13   12.30
  -2  -2   3   46.54    8.82
  -2  -2   3   36.65   15.66
  -2  -2   3   54.71   14.09
  -2  -2   3   45.50   10.63
   2   2  -2 2170.90   47.34
   2   2  -2 2167.23   48.04
   2   2  -2 2244.68   48.65
   2   2  -2 2162.98   46.58
   2   2  -2 2123.98   47.71
  -2  -2   2 2183.13   55.07
  -2  -2   2 2130.68   46.20
  -2  -2   2 2189.78   46.81
   2   2  -1  591.14   29.20
   2   2  -1  604.67   22.11
   2   2  -1  689.18   45.35
   2   2  -1  606.16   20.41
  -2  -2   1  618.99   40.62
  -2  -2   1  629.33   21.42
  -2  -2   1  611.94   20.68
  -2  -2   1  609.78   24.85
   2   2   0 7891.18   68.28
   2   2   0 7595.07   70.36
   2   2   0 8066.80   76.77
   2   2   0 7907.38   73.26
  -2  -2   0 7703.05   73.10
  -2  -2   0 7691.21   67.28
  -2  -2   0 7960.36   69.67
  -2  -2   0 7986.66   79.98
   2   2   1 1234.72   39.25
   2   2   1 1204.13   40.49
   2   2   1 1232.59   39.59
  -2  -2  -1 1294.71   42.90
  -2  -2  -1 1301.18   47.59
  -2  -2  -1 1289.97   41.42
  -2  -2  -1 1213.15   41.95
   2   2   2  158.54   14.46
   2   2   2  141.25   10.03
   2   2   2  145.11   18.31
   2   2   2  128.31   10.61
  -2  -2  -2  174.53   38.17
  -2  -2  -2  143.54   10.07
  -2  -2  -2  158.70   10.61
  -2  -2  -2  143.43   30.06
   2   2   3  137.17    9.23
   2   2   3  125.02   14.13
   2   2   3  134.19   34.12
   2   2   3  131.69    9.73
  -2  -2  -3  180.64   41.71
  -2  -2  -3  115.80    7.72
  -2  -2  -3  124.99   17.92
  -2  -2  -3  143.77   34.16
   2   2   4 1776.69   60.04
  -2  -2  -4 1754.83   48.93
  -2  -2  -4 1840.70   64.84
  -2  -2  -4 1814.11   62.99
  -2  -2  -4 1755.59   48.99
   2   2   5 8582.35  153.61
  -2  -2  -5 8330.79  137.15
  -2  -2  -5 8866.82  156.81
  -2  -2  -5 8533.01  157.66
  -2  -2  -5 8749.33  143.29
   2   2   6 4933.68  130.14
  -2  -2  -6 4953.85  123.16
  -2  -2  -6 4851.11  112.20
   2   2   7 3381.18  107.99
   2   2   7 3273.96   87.14
  -2  -2  -7 3259.46   88.72
  -2  -2  -7 3030.88   73.06
  -2  -2  -7 3156.43   74.26
   2   2   8   13.26   24.18
   2   2   8   16.73   10.57
  -2  -2  -8   11.02    8.82
  -2  -2  -8    1.95    3.78
  -2  -2  -8    5.25    3.36
   2   2   9   10.80   10.31
   2   2   9    5.85   10.96
  -2  -2  -9   15.40   11.35
  -2  -2  -9   11.37    4.11
  -2  -2  -9    4.06    2.61
   2   2  10 1591.09   72.43
   2   2  10 1533.84   68.00
  -2  -2 -10 1610.46   64.57
  -2  -2 -10 1773.97   79.46
   2   2  11 1212.95   54.69
   2   2  11 1111.92   80.11
  -2  -2 -11 1178.80   58.65
  -2  -2 -11 1277.51   60.55
   2   2  12  809.70   49.15
   2   2  12  777.86   61.38
  -2  -2 -12  821.23   43.85
   2   2  13  173.95   60.76
   2   2  13  170.16   44.14
  -2  -2 -13  231.91   65.55
   2   2  14   25.22   14.19
   2   2  14   28.69   16.56
  -2  -2 -14   22.95   14.22
   2   2  15  201.58   68.54
   2   2  15  296.13  118.44
  -2  -2 -15  329.62   88.15
   2   2  16  428.69   74.42
   2   2  16  444.30  131.35
  -2  -2 -16  580.78   60.26
   2   2  17   21.88   18.54
   2   2  17   29.95   25.85
  -2  -2 -17   33.11   31.07
   2   2  18  185.10  101.85
   2   2  18  138.30   69.93
   2   3 -22   51.67   27.14
   2   3 -21   -1.71   10.71
   2   3 -21   10.28   10.91
  -2  -3  21   24.60   17.75
   2   3 -20  306.78   57.74
   2   3 -20  228.13   96.68
  -2  -3  20  277.35   51.21
   2   3 -19  320.37   22.48
   2   3 -19  233.22   62.62
  -2  -3  19  289.98   89.48
   2   3 -18  204.40   25.62
   2   3 -18  204.59   68.41
  -2  -3  18  274.52   55.56
  -2  -3  18  169.01   51.99
   2   3 -17   13.22    6.59
   2   3 -17   36.04   16.16
  -2  -3  17    6.27   20.23
  -2  -3  17   20.32   12.45
   2   3 -16  436.49   31.25
   2   3 -16  554.24   55.43
  -2  -3  16  486.11   35.92
  -2  -3  16  492.53   37.12
   2   3 -15 2040.38   84.39
   2   3 -15 2070.92  116.40
  -2  -3  15 2291.44   97.17
  -2  -3  15 2008.83   70.25
   2   3 -14 2515.83  104.46
   2   3 -14 2532.44  132.58
  -2  -3  14 2388.76  118.62
  -2  -3  14 2313.79   99.09
   2   3 -13 3600.14  144.75
   2   3 -13 3319.69  129.64
  -2  -3  13 3435.18  136.11
  -2  -3  13 3429.83  127.14
   2   3 -12  785.24   59.49
   2   3 -12  821.52   43.98
  -2  -3  12  835.94   49.49
  -2  -3  12  789.11   49.34
   2   3 -11   29.82   13.71
   2   3 -11   18.03   18.77
  -2  -3  11   14.26    5.69
  -2  -3  11   18.24   10.43
   2   3 -10 2573.28  108.84
   2   3 -10 2623.11  112.77
  -2  -3  10 2620.51  112.61
  -2  -3  10 2615.43  112.96
   2   3  -9 1471.97   55.75
   2   3  -9 1539.02   54.89
   2   3  -9 1546.49   62.80
  -2  -3   9 1579.09   54.95
  -2  -3   9 1676.11   62.56
   2   3  -8 3519.73  108.01
   2   3  -8 3433.84  108.29
   2   3  -8 3206.06   92.00
  -2  -3   8 3403.17   96.56
  -2  -3   8 3501.85   99.25
  -2  -3   8 3672.92  107.33
   2   3  -7 1351.39   56.39
   2   3  -7 1446.63   51.29
   2   3  -7 1525.06   47.67
  -2  -3   7 1397.00   46.59
  -2  -3   7 1435.96   51.26
  -2  -3   7 1377.23   45.11
   2   3  -6  410.97   20.37
   2   3  -6  363.06   22.55
   2   3  -6  373.92   19.31
   2   3  -6  318.45   18.28
  -2  -3   6  340.99   17.19
  -2  -3   6  310.14   12.04
  -2  -3   6  348.48   15.00
  -2  -3   6  352.38   16.45
   2   3  -5 1580.83   51.32
   2   3  -5 1581.12   62.78
   2   3  -5 1530.19   46.85
   2   3  -5 1478.74   46.66
  -2  -3   5 1560.45   49.95
  -2  -3   5 1578.75   48.39
  -2  -3   5 1569.27   53.86
  -2  -3   5 1597.95   48.84
   2   3  -4 1925.16   45.63
   2   3  -4 1947.99   50.27
   2   3  -4 1959.25   43.84
   2   3  -4 1930.01   50.85
  -2  -3   4 1980.94   58.58
  -2  -3   4 1971.83   49.83
  -2  -3   4 2013.24   45.27
  -2  -3   4 1938.45   46.75
   2   3  -3 5068.16   53.13
   2   3  -3 5184.02   54.76
   2   3  -3 5214.43   54.54
   2   3  -3 5216.07   52.53
   2   3  -3 5136.81   56.99
  -2  -3   3 5204.04   77.23
  -2  -3   3 5077.96   53.31
  -2  -3   3 5233.10   57.56
   2   3  -2 1539.25   37.70
   2   3  -2 1549.64   36.64
   2   3  -2 1707.46   55.54
   2   3  -2 1609.84   38.21
  -2  -3   2 1626.62   56.70
  -2  -3   2 1645.22   40.02
  -2  -3   2 1585.39   38.67
  -2  -3   2 1640.91   42.98
   2   3  -1   -0.75    8.48
   2   3  -1    9.16    6.46
   2   3  -1    9.37   10.60
   2   3  -1   -2.01    6.42
  -2  -3   1   16.21   11.44
  -2  -3   1    8.69    4.58
  -2  -3   1    6.08    6.58
  -2  -3   1    2.51    4.61
   2   3   0  332.50   25.70
   2   3   0  308.59   18.74
   2   3   0  407.78   32.21
   2   3   0  329.50   17.70
  -2  -3   0  291.21   14.67
  -2  -3   0  322.30   18.85
  -2  -3   0  326.06   16.36
  -2  -3   0  334.84   26.43
   2   3   1 1548.25   47.36
   2   3   1 1509.13   48.64
   2   3   1 1359.90   43.51
   2   3   1 1529.47   46.79
  -2  -3  -1 1518.58   50.58
  -2  -3  -1 1491.32   45.90
  -2  -3  -1 1595.00   47.99
  -2  -3  -1 1436.59   47.94
   2   3   2 1646.44   48.54
   2   3   2 1543.28   52.33
   2   3   2 1687.59   51.36
  -2  -3  -2 1775.20   60.32
  -2  -3  -2 1602.62   55.64
  -2  -3  -2 1591.92   46.79
   2   3   3  323.84   17.08
   2   3   3  433.13   55.47
  -2  -3  -3  421.04   20.23
  -2  -3  -3  355.27   28.91
  -2  -3  -3  379.06   19.20
   2   3   4 1535.03   51.78
   2   3   4 1563.71   57.87
  -2  -3  -4 1585.59   52.80
  -2  -3  -4 1530.86   61.02
  -2  -3  -4 1537.49   59.92
   2   3   5 5274.00  104.25
  -2  -3  -5 5061.04   88.62
  -2  -3  -5 5295.49  113.72
  -2  -3  -5 5101.10  121.73
  -2  -3  -5 5137.85   86.96
   2   3   6 7457.35  200.38
  -2  -3  -6 7089.86  164.83
  -2  -3  -6 7565.40  197.60
  -2  -3  -6 7293.76  183.02
  -2  -3  -6 7602.65  173.72
   2   3   7 3062.37  107.62
   2   3   7 2917.36  110.45
  -2  -3  -7 3016.67   79.39
  -2  -3  -7 2958.68   70.70
  -2  -3  -7 3163.48   75.01
   2   3   8   62.06   14.23
   2   3   8   47.01   29.94
  -2  -3  -8   57.96   19.40
  -2  -3  -8   55.63   11.98
  -2  -3  -8   48.65    9.07
   2   3   9  154.59   34.18
   2   3   9  161.55   37.42
  -2  -3  -9  178.78   36.46
  -2  -3  -9  148.51   17.51
  -2  -3  -9  107.20   22.91
   2   3  10 2082.80   46.13
   2   3  10 1915.15  120.66
  -2  -3 -10 1823.50   75.59
  -2  -3 -10 2021.74  105.89
   2   3  11  977.48   63.54
   2   3  11  811.86   63.35
  -2  -3 -11  880.47   43.78
   2   3  12  423.62   37.34
   2   3  12  458.35   50.94
  -2  -3 -12  486.35   41.35
   2   3  13   94.47   39.11
   2   3  13   93.02   29.05
  -2  -3 -13  152.66   44.34
   2   3  14  547.99   54.88
   2   3  14  532.91   82.77
  -2  -3 -14  516.43   46.78
   2   3  15  311.67  118.88
   2   3  15  410.07  117.45
  -2  -3 -15  453.29   38.73
   2   3  16  186.59   80.50
   2   3  16  172.85   71.16
  -2  -3 -16  309.71   34.58
   2   3  17   44.11   21.95
   2   3  17   45.10   30.17
  -2  -3 -17   87.34   33.84
   2   4 -22   14.84   16.90
   2   4 -21   21.31   14.19
   2   4 -21   14.71   17.97
  -2  -4  21   26.40   12.03
   2   4 -20  316.52   42.46
   2   4 -20  344.96   45.62
  -2  -4  20  301.59   82.56
   2   4 -19  222.29   67.72
   2   4 -19  151.84   42.23
  -2  -4  19  165.89   65.95
   2   4 -18  179.00   57.73
   2   4 -18  174.73   55.72
  -2  -4  18  186.91   62.65
   2   4 -17   22.83   12.85
   2   4 -17   43.46   22.38
  -2  -4  17   10.14   13.46
  -2  -4  17    4.87    7.15
   2   4 -16  538.08   26.37
   2   4 -16  567.32   51.42
  -2  -4  16  576.93  105.22
  -2  -4  16  435.52   29.52
   2   4 -15 1813.41   82.45
   2   4 -15 1751.26   95.58
  -2  -4  15 1730.34  120.70
  -2  -4  15 1876.85   76.29
   2   4 -14 1118.74   82.99
   2   4 -14 1218.67   61.32
  -2  -4  14 1217.56   59.87
  -2  -4  14 1272.78   55.13
   2   4 -13 1296.12   62.27
   2   4 -13 1208.80   59.68
  -2  -4  13 1295.54   84.46
  -2  -4  13 1206.18   57.46
   2   4 -12   46.74   21.26
   2   4 -12   33.80   10.97
  -2  -4  12   44.35   18.68
  -2  -4  12   39.37   12.49
   2   4 -11   47.42   19.28
   2   4 -11   11.69   13.90
  -2  -4  11   29.51   11.96
  -2  -4  11   41.91   11.72
   2   4 -10 3879.79  109.82
   2   4 -10 4076.82  119.68
   2   4 -10 3807.23   97.50
  -2  -4  10 3920.42  112.60
  -2  -4  10 4115.46  117.42
   2   4  -9 8017.96  190.19
   2   4  -9 7723.95  187.73
   2   4  -9 7453.58  172.27
  -2  -4   9 7743.29  181.33
  -2  -4   9 7911.01  197.54
   2   4  -8 1881.16   80.99
   2   4  -8 1938.81   68.25
   2   4  -8 1866.58   64.55
  -2  -4   8 1736.08   65.62
  -2  -4   8 1801.45   83.95
   2   4  -7 3384.38   99.34
   2   4  -7 3096.14   91.97
   2   4  -7 3063.63   86.79
  -2  -4   7 3170.78   92.20
  -2  -4   7 3153.12   93.12
  -2  -4   7 3108.83   94.31
   2   4  -6  219.37   21.88
   2   4  -6  234.72   12.09
   2   4  -6  217.21   22.92
  -2  -4   6  227.72   48.56
  -2  -4   6  242.86   14.77
  -2  -4   6  190.12   26.55
   2   4  -5 1606.56   56.13
   2   4  -5 1469.95   46.56
   2   4  -5 1444.22   46.54
   2   4  -5 1459.60   54.39
  -2  -4   5 1535.29   48.21
  -2  -4   5 1509.29   50.57
  -2  -4   5 1642.67   52.46
  -2  -4   5 1445.30   46.67
   2   4  -4 3690.33   74.30
   2   4  -4 3802.04   67.33
   2   4  -4 3651.88   63.74
   2   4  -4 3727.93   70.76
  -2  -4   4 3650.88   71.10
  -2  -4   4 3806.14   67.00
  -2  -4   4 3658.06   66.77
  -2  -4   4 3725.36   64.26
   2   4  -3  418.72   23.61
   2   4  -3  427.84   19.12
   2   4  -3  393.86   20.04
   2   4  -3  424.85   20.96
  -2  -4   3  440.41   22.07
  -2  -4   3  398.85   19.12
  -2  -4   3  398.71   22.65
  -2  -4   3  396.59   19.13
   2   4  -2   47.79   23.65
   2   4  -2   48.41   17.28
   2   4  -2   30.41   10.49
   2   4  -2   33.45   11.39
  -2  -4   2   34.22   10.16
  -2  -4   2   15.91   11.00
  -2  -4   2   41.58    8.95
  -2  -4   2   30.52   17.91
   2   4  -1  958.82   35.30
   2   4  -1  871.82   31.66
   2   4  -1 1086.44   60.87
   2   4  -1  912.15   36.59
  -2  -4   1  909.23   35.01
  -2  -4   1  968.46   39.17
  -2  -4   1 1009.16   40.01
  -2  -4   1  944.03   38.22
   2   4   0  151.86   21.96
   2   4   0  166.97   31.19
   2   4   0  135.73   14.43
   2   4   0  166.81   29.01
  -2  -4   0  139.37   15.43
  -2  -4   0  144.43   19.19
  -2  -4   0  144.24   21.49
  -2  -4   0  118.56   35.86
   2   4   1 3368.27   30.85
   2   4   1 3167.53   97.13
   2   4   1 3318.88   45.62
  -2  -4  -1 3165.11   93.16
  -2  -4  -1 3362.54   42.45
  -2  -4  -1 3295.68   35.10
   2   4   2   14.05    6.14
   2   4   2   20.86   10.53
  -2  -4  -2   29.25   10.00
  -2  -4  -2   14.51    9.76
  -2  -4  -2   17.50    3.92
   2   4   3    2.10    2.95
   2   4   3   13.48    6.79
  -2  -4  -3    1.44    2.68
  -2  -4  -3   -4.16   10.63
  -2  -4  -3   31.83    8.87
   2   4   4  317.66   21.74
   2   4   4  301.58   27.57
  -2  -4  -4  318.75   23.50
  -2  -4  -4  346.47   44.57
  -2  -4  -4  369.22   28.26
   2   4   5 1585.35   75.47
  -2  -4  -5 1571.25   66.30
  -2  -4  -5 1660.91   86.13
  -2  -4  -5 1540.49   79.33
  -2  -4  -5 1512.83   64.49
   2   4   6  634.09   77.62
  -2  -4  -6  716.75   39.71
  -2  -4  -6  733.08   43.27
  -2  -4  -6  690.03   64.61
  -2  -4  -6  608.80   39.66
   2   4   7  616.10   74.85
   2   4   7  563.68   39.73
  -2  -4  -7  590.38   57.66
  -2  -4  -7  559.89   27.32
  -2  -4  -7  514.78   34.58
   2   4   8    9.68   18.81
   2   4   8   20.63   16.04
  -2  -4  -8   10.12    9.42
  -2  -4  -8    0.85    3.53
  -2  -4  -8    5.41    3.48
   2   4   9 1134.50   51.39
   2   4   9 1249.87   69.73
  -2  -4  -9 1146.90   45.55
  -2  -4  -9 1199.84   78.43
   2   4  10 1179.40   70.35
   2   4  10 1159.58   95.89
  -2  -4 -10 1115.99   55.53
  -2  -4 -10 1115.35   60.87
   2   4  11 1064.63   56.95
   2   4  11 1058.91   91.64
  -2  -4 -11 1140.76   65.95
   2   4  12  520.24   44.64
   2   4  12  507.46   64.20
  -2  -4 -12  541.79   66.45
   2   4  13   67.75   30.76
   2   4  13   32.97   18.11
  -2  -4 -13   26.60   16.29
   2   4  14  167.86   54.46
   2   4  14  186.54   44.00
  -2  -4 -14  183.20   85.21
   2   4  15  105.12   37.48
   2   4  15  100.97   31.35
  -2  -4 -15  144.24   43.77
   2   4  16  468.86   63.77
   2   4  16  302.69  121.33
  -2  -4 -16  445.09   81.07
   2   4  17    3.78   13.04
   2   4  17   17.93   14.67
   2   5 -22   50.48   34.73
   2   5 -21    6.44    8.71
  -2  -5  21   12.39   14.78
   2   5 -20  140.67   67.10
   2   5 -20  127.78   79.52
  -2  -5  20  151.39   45.92
   2   5 -19  474.45   66.69
   2   5 -19  357.17   39.52
  -2  -5  19  430.37   70.77
   2   5 -18  167.83   45.99
   2   5 -18  111.39   75.67
  -2  -5  18  188.23   76.90
   2   5 -17  110.62   33.22
   2   5 -17   61.89   21.11
  -2  -5  17  122.09   45.56
   2   5 -16   52.15   23.08
   2   5 -16   19.88   12.11
  -2  -5  16   31.70   27.27
  -2  -5  16   17.58   13.16
   2   5 -15 1239.55   65.34
   2   5 -15 1014.52   48.37
  -2  -5  15 1076.72   54.49
  -2  -5  15 1150.58   46.26
   2   5 -14  230.46   75.25
   2   5 -14  276.89   56.88
  -2  -5  14  242.82   51.20
  -2  -5  14  184.69   27.03
   2   5 -13  597.15   52.31
   2   5 -13  591.33   45.48
  -2  -5  13  650.62   66.93
  -2  -5  13  563.05   41.80
   2   5 -12   11.29    7.82
   2   5 -12    8.08   12.78
  -2  -5  12    3.81   11.06
  -2  -5  12    9.44    6.82
   2   5 -11   57.28   22.92
   2   5 -11   58.39   21.11
   2   5 -11   35.01   10.30
  -2  -5  11   68.34   15.68
  -2  -5  11   42.84   23.99
   2   5 -10 6135.04  149.93
   2   5 -10 6198.40  185.58
   2   5 -10 6117.58  147.12
  -2  -5  10 6001.28  145.86
  -2  -5  10 5998.45  170.01
   2   5  -9 3944.23  114.82
   2   5  -9 3817.21  110.19
   2   5  -9 3925.49   95.96
  -2  -5   9 3932.57  100.55
  -2  -5   9 3934.50  102.88
   2   5  -8 1829.38   66.76
   2   5  -8 1733.30   63.14
   2   5  -8 1750.05   60.33
   2   5  -8 1762.61   59.04
  -2  -5   8 1856.32   68.45
   2   5  -7  841.93   38.70
   2   5  -7  781.59   35.96
   2   5  -7  780.43   36.43
  -2  -5   7  796.69   35.98
  -2  -5   7  860.74   47.17
   2   5  -6  531.61   30.16
   2   5  -6  485.46   34.61
   2   5  -6  456.24   23.89
  -2  -5   6  512.36   28.56
  -2  -5   6  553.58   37.53
  -2  -5   6  502.89   28.34
   2   5  -5 1750.03   56.29
   2   5  -5 1894.34   57.33
   2   5  -5 1846.16   54.92
  -2  -5   5 1855.70   57.31
  -2  -5   5 1758.25   53.94
  -2  -5   5 1906.29   60.55
   2   5  -4 1648.62   62.09
   2   5  -4 1658.79   55.85
   2   5  -4 1676.38   62.62
  -2  -5   4 1646.82   52.41
  -2  -5   4 1698.62   64.65
  -2  -5   4 1668.92   58.25
   2   5  -3 3567.93   65.55
   2   5  -3 3850.56   80.36
   2   5  -3 3708.99   67.16
  -2  -5   3 3644.92   71.62
  -2  -5   3 3629.63   74.51
  -2  -5   3 3724.54   67.84
  -2  -5   3 3657.75   66.82
   2   5  -2 1032.02   55.46
   2   5  -2  904.05   34.86
   2   5  -2 1020.23   38.82
   2   5  -2 1020.00   37.19
  -2  -5   2 1066.91   54.80
  -2  -5   2 1009.94   41.54
  -2  -5   2  988.98   55.03
  -2  -5   2  950.94   36.62
   2   5  -1 7273.90  132.32
   2   5  -1 7380.00  127.61
   2   5  -1 7269.98  124.40
  -2  -5   1 7503.36  125.07
  -2  -5   1 7306.89  131.51
  -2  -5   1 7281.04  120.22
   2   5   0  235.36   26.21
   2   5   0  328.56   47.75
  -2  -5   0  252.53   18.39
  -2  -5   0  283.02   34.26
  -2  -5   0  222.42   22.59
   2   5   1 2214.81   71.86
   2   5   1 2201.36   75.02
  -2  -5  -1 2114.51   70.26
  -2  -5  -1 2203.43   70.73
  -2  -5  -1 2092.22   72.89
   2   5   2  119.95   25.60
   2   5   2  138.18   43.68
  -2  -5  -2  100.14   18.93
  -2  -5  -2  136.50   30.11
  -2  -5  -2  139.79   20.63
   2   5   3   15.51   13.77
   2   5   3   58.38   21.68
  -2  -5  -3   55.93   10.77
  -2  -5  -3   55.91   19.67
  -2  -5  -3   51.26   11.26
   2   5   4 1947.87   90.70
   2   5   4 1816.00   82.87
  -2  -5  -4 1776.90   80.44
  -2  -5  -4 2133.89  102.49
  -2  -5  -4 1896.69  100.46
   2   5   5 3147.28   84.80
  -2  -5  -5 3101.34   75.95
  -2  -5  -5 3240.55   99.22
  -2  -5  -5 3327.80  103.93
   2   5   6  361.26   30.85
  -2  -5  -6  418.72   34.59
  -2  -5  -6  422.28   35.60
  -2  -5  -6  378.25   48.26
  -2  -5  -6  317.45   33.40
   2   5   7   -4.16   13.14
  -2  -5  -7    1.41    3.31
  -2  -5  -7   14.94    7.54
  -2  -5  -7    1.35    5.66
   2   5   8   30.64   26.90
   2   5   8   26.74   21.99
  -2  -5  -8   48.68   13.56
  -2  -5  -8   77.83   12.62
   2   5   9  931.39   80.72
   2   5   9  917.69   73.30
  -2  -5  -9  903.88   48.25
  -2  -5  -9  929.96   53.19
   2   5  10  859.59  113.88
   2   5  10  837.94   52.26
  -2  -5 -10  909.87   63.52
   2   5  11  360.48   32.11
   2   5  11  262.13   60.99
  -2  -5 -11  296.62   32.88
   2   5  12   32.71   15.90
   2   5  12   31.17   18.69
  -2  -5 -12    6.71   12.01
   2   5  13   86.30   31.24
   2   5  13   43.74   30.61
  -2  -5 -13   56.83   44.25
   2   5  14  134.94   57.66
   2   5  14   87.85   33.44
  -2  -5 -14  147.37   52.37
   2   5  15  172.03   87.28
   2   5  15  169.45   79.46
  -2  -5 -15  214.52  110.37
   2   5  16   19.49   20.13
   2   5  16   16.19   16.67
   2   6 -22   99.30   52.19
   2   6 -21   58.61   19.94
   2   6 -20   51.49   37.97
   2   6 -20   75.98   32.45
  -2  -6  20   55.18   35.86
   2   6 -19 1029.98   73.39
   2   6 -19 1068.95   57.00
  -2  -6  19 1031.40  121.59
   2   6 -18  142.88   47.35
   2   6 -18  194.36   50.99
  -2  -6  18  105.95   41.08
   2   6 -17   13.82    9.93
   2   6 -17   13.84   15.32
  -2  -6  17   17.20   15.58
   2   6 -16  360.64   31.95
   2   6 -16  441.28   41.36
  -2  -6  16  345.68   36.56
   2   6 -15  348.71   32.63
   2   6 -15  311.63   52.45
  -2  -6  15  320.67   79.72
  -2  -6  15  330.31   41.40
   2   6 -14  222.93   49.87
   2   6 -14  178.80   17.67
  -2  -6  14  158.65   47.07
  -2  -6  14  191.03   28.13
   2   6 -13 1213.27   60.64
   2   6 -13 1151.33   52.53
  -2  -6  13 1044.81   58.54
  -2  -6  13 1027.24   45.63
   2   6 -12   -2.93   13.31
   2   6 -12    7.31   10.67
   2   6 -12    1.54    4.90
  -2  -6  12    2.93    6.94
  -2  -6  12  -11.90   17.55
   2   6 -11 2186.64   94.82
   2   6 -11 2103.10  100.26
   2   6 -11 2064.59   85.26
  -2  -6  11 2086.70   97.52
   2   6 -10 6730.08  163.03
   2   6 -10 6324.34  155.51
   2   6 -10 6517.12  153.78
   2   6 -10 6581.34  155.78
  -2  -6  10 6516.32  164.73
   2   6  -9 5421.28  139.98
   2   6  -9 5419.91  134.87
   2   6  -9 5424.04  129.52
  -2  -6   9 5756.51  147.81
   2   6  -8 1843.55  103.39
   2   6  -8 1752.76   75.26
   2   6  -8 1858.63   81.60
  -2  -6   8 1847.61   89.64
  -2  -6   8 1873.27   83.96
   2   6  -7  123.60   42.17
   2   6  -7  110.11   10.20
   2   6  -7  118.31   18.25
  -2  -6   7  129.05   23.15
  -2  -6   7  124.58   32.30
   2   6  -6  532.16   32.94
   2   6  -6  474.71   28.26
   2   6  -6  499.55   29.53
  -2  -6   6  556.62   32.79
  -2  -6   6  605.78   61.79
   2   6  -5 2252.92   85.46
   2   6  -5 2257.42   72.14
  -2  -6   5 2235.95   76.39
  -2  -6   5 2382.98   71.22
   2   6  -4 9410.46  167.19
   2   6  -4 9104.21  162.29
  -2  -6   4 9222.53  159.38
  -2  -6   4 9329.52  160.56
  -2  -6   4 9015.37  155.27
   2   6  -3 6341.41  114.84
   2   6  -3 7053.05  130.25
  -2  -6   3 6683.77  126.52
  -2  -6   3 6960.07  126.35
   2   6  -2 1334.34   67.76
   2   6  -2 1334.68   61.70
  -2  -6   2 1293.38   63.04
  -2  -6   2 1399.66   62.48
   2   6  -1  145.34   20.09
   2   6  -1  120.45   21.93
  -2  -6   1   81.61   28.74
  -2  -6   1   88.67   29.48
   2   6   0  736.49   42.75
   2   6   0  692.98   36.87
  -2  -6   0  697.52   40.87
  -2  -6   0  757.71   52.18
  -2  -6   0  718.45   24.73
   2   6   1 2594.10  108.96
   2   6   1 2600.60  133.29
  -2  -6  -1 2362.58  100.43
  -2  -6  -1 2474.41  107.51
  -2  -6  -1 2692.80   76.27
   2   6   2   69.96   36.29
   2   6   2   74.60   36.11
  -2  -6  -2   53.03   13.50
  -2  -6  -2   76.57   46.26
  -2  -6  -2   52.58   15.79
   2   6   3    6.27    4.17
   2   6   3   11.42   20.89
  -2  -6  -3   16.39    9.20
  -2  -6  -3   39.19   18.78
  -2  -6  -3   20.94   20.30
   2   6   4  217.80   41.60
   2   6   4  261.27   57.63
  -2  -6  -4  211.90   21.36
  -2  -6  -4  258.55   24.75
   2   6   5 3004.67   87.75
   2   6   5 3141.68  108.85
  -2  -6  -5 2798.38   88.81
  -2  -6  -5 3128.91  102.51
  -2  -6  -5 3019.16  107.79
   2   6   6 2398.98   97.33
  -2  -6  -6 2347.08   89.97
  -2  -6  -6 2245.55  102.33
  -2  -6  -6 2304.83  107.91
  -2  -6  -6 2128.69   78.47
   2   6   7   92.50   42.14
  -2  -6  -7  115.69   35.30
  -2  -6  -7   99.08   23.20
   2   6   8   81.44   21.22
   2   6   8   85.91   32.96
  -2  -6  -8   80.31   17.81
  -2  -6  -8   80.83   30.42
   2   6   9 1615.98   87.92
   2   6   9 1799.47   89.33
  -2  -6  -9 1789.78   75.58
   2   6  10  182.00   59.48
   2   6  10  178.64   49.81
  -2  -6 -10  167.36   62.52
   2   6  11  614.60   92.58
   2   6  11  697.43   32.14
  -2  -6 -11  816.57   45.96
   2   6  12  515.24   57.12
   2   6  12  499.49   54.03
  -2  -6 -12  421.95   41.55
   2   6  13   60.84   23.56
   2   6  13   26.30   19.58
  -2  -6 -13   25.69   16.43
   2   6  14   82.00   46.10
   2   6  14   94.75   59.46
  -2  -6 -14  126.68   42.64
   2   6  15   19.02   16.46
   2   6  15   55.16   23.44
   2   6  16   18.69   19.84
   2   7 -21   47.87   28.30
  -2  -7  21   13.01   24.34
   2   7 -20    2.77   10.32
   2   7 -20   12.25   20.34
  -2  -7  20   19.07   17.46
   2   7 -19  676.77   82.87
   2   7 -19  813.69   52.86
  -2  -7  19  839.02   48.71
   2   7 -18  183.48   63.66
   2   7 -18  267.83   54.63
  -2  -7  18  230.17   62.00
   2   7 -17   17.48   12.49
   2   7 -17   40.99   43.38
  -2  -7  17   13.73    9.59
   2   7 -16   35.75   12.00
   2   7 -16   13.81   20.37
  -2  -7  16   15.27   18.95
   2   7 -15  163.89   41.37
   2   7 -15  128.04   37.31
  -2  -7  15  197.16   50.13
   2   7 -14   97.43   28.10
   2   7 -14  147.72   37.51
  -2  -7  14  176.05   36.15
   2   7 -13   82.48   20.86
   2   7 -13   74.62   13.81
   2   7 -13   73.85   13.45
  -2  -7  13   98.96   27.11
   2   7 -12  217.48   50.26
   2   7 -12  185.12   39.26
   2   7 -12  191.40   34.63
   2   7 -12  150.62   18.36
  -2  -7  12  169.14   44.63
   2   7 -11 1233.33   60.50
   2   7 -11 1340.23   69.89
   2   7 -11 1268.56   55.90
   2   7 -11 1222.32   60.35
  -2  -7  11 1212.54   64.49
   2   7 -10 2264.36   95.47
   2   7 -10 2091.34   85.89
   2   7 -10 2260.16   94.83
  -2  -7  10 2346.93   71.43
  -2  -7  10 2257.56   98.52
   2   7  -9 2982.85   81.58
   2   7  -9 2700.23   69.65
   2   7  -9 2919.10   75.18
  -2  -7   9 2818.39   94.08
  -2  -7   9 2797.33  105.78
   2   7  -8  481.91   70.55
   2   7  -8  358.67   28.87
   2   7  -8  463.20   31.42
  -2  -7   8  427.30   45.47
  -2  -7   8  482.70  105.11
   2   7  -7   32.77   28.82
   2   7  -7    7.62    5.27
   2   7  -7    7.93    4.91
  -2  -7   7    9.14    8.85
  -2  -7   7   49.82   25.86
   2   7  -6  667.51   39.98
   2   7  -6  615.08   34.97
  -2  -7   6  647.00   38.94
  -2  -7   6  633.55   35.79
   2   7  -5 5428.60  134.35
  -2  -7   5 5658.12  141.56
  -2  -7   5 5655.74  144.72
   2   7  -4 1372.54   69.01
   2   7  -4 1289.74   61.07
  -2  -7   4 1337.94   59.19
  -2  -7   4 1237.77   60.41
   2   7  -3 1137.55   57.22
   2   7  -3 1053.49   48.49
  -2  -7   3 1070.38   46.66
  -2  -7   3 1086.06   47.44
   2   7  -2  738.72   45.60
   2   7  -2  803.48   46.29
  -2  -7   2  723.42   41.47
  -2  -7   2  736.04   43.24
   2   7  -1  950.93   87.38
   2   7  -1  992.65   46.49
  -2  -7   1  949.81   47.41
  -2  -7   1  987.93   49.30
   2   7   0 1566.84   83.14
   2   7   0 1563.61   80.07
  -2  -7   0 1457.95   77.85
  -2  -7   0 1463.82   66.34
   2   7   1  868.83   61.43
   2   7   1  881.26   70.10
  -2  -7  -1  968.53   98.02
  -2  -7  -1  911.87   53.87
   2   7   2  778.93   48.46
   2   7   2  811.22   70.14
  -2  -7  -2  969.43   60.52
  -2  -7  -2  846.18   79.58
   2   7   3    5.89    4.96
   2   7   3   13.88   18.56
  -2  -7  -3   21.35   12.13
  -2  -7  -3   13.71   10.42
   2   7   4  359.51   40.45
   2   7   4  314.44   21.25
  -2  -7  -4  330.66   31.40
  -2  -7  -4  330.05   40.42
   2   7   5 1155.57   51.34
   2   7   5 1225.59   57.96
  -2  -7  -5 1422.55   95.67
  -2  -7  -5 1249.50   55.68
   2   7   6 2208.71  114.90
  -2  -7  -6 2179.39   71.04
  -2  -7  -6 2259.48   79.80
  -2  -7  -6 2206.89   91.80
   2   7   7  169.07   45.88
  -2  -7  -7  176.69   46.23
  -2  -7  -7  164.99   23.71
   2   7   8   44.13   24.17
   2   7   8   16.61   16.41
  -2  -7  -8   24.87    8.06
  -2  -7  -8   27.82   10.41
   2   7   9  510.05   95.51
   2   7   9  422.53   70.20
  -2  -7  -9  441.77   63.51
   2   7  10 1821.13  128.34
   2   7  10 2126.10  162.05
  -2  -7 -10 2141.93  147.51
   2   7  11 3868.31   85.34
  -2  -7 -11 3163.00  189.97
   2   7  12  545.41   78.40
   2   7  12  494.18   70.93
  -2  -7 -12  602.89   55.32
   2   7  13   -0.77   17.31
  -2  -7 -13   15.32   28.58
   2   7  14  118.13   45.49
   2   7  14  101.40   31.80
  -2  -7 -14   62.08   51.76
   2   7  15   75.30   37.24
   2   8 -22   66.27   34.19
   2   8 -21   85.39   35.28
   2   8 -21   34.40   24.49
  -2  -8  21  131.39   36.63
   2   8 -20   90.43   44.74
   2   8 -20   87.39   49.55
  -2  -8  20  129.25   48.40
   2   8 -19  337.56   57.90
   2   8 -19  230.46   84.62
  -2  -8  19  280.70   53.00
   2   8 -18  436.11   58.21
   2   8 -18  383.40  102.24
  -2  -8  18  432.54   40.20
   2   8 -17  367.45   29.55
   2   8 -17  385.49  106.54
  -2  -8  17  333.59   71.05
   2   8 -16   12.13   12.07
   2   8 -16   13.54   14.76
  -2  -8  16   10.82   20.83
   2   8 -15   91.39   40.60
   2   8 -15  142.30   34.80
  -2  -8  15  125.97   40.99
   2   8 -14  794.77   49.71
   2   8 -14  660.94   48.94
   2   8 -14  722.37   30.65
  -2  -8  14  858.98   71.22
   2   8 -13   72.44   18.79
   2   8 -13   41.41    8.33
  -2  -8  13   23.86   15.05
   2   8 -12    9.81   10.51
   2   8 -12   14.69    9.11
  -2  -8  12    9.63    9.03
  -2  -8  12   21.08   17.59
   2   8 -11   11.61    8.47
  -2  -8  11    6.99   10.31
  -2  -8  11   16.73    8.50
   2   8 -10   17.85   12.20
   2   8 -10    4.16    5.73
   2   8 -10    4.62    7.10
  -2  -8  10   -2.28   11.48
  -2  -8  10   15.44    6.20
   2   8  -9  590.37   54.49
   2   8  -9  479.22   37.11
   2   8  -9  555.49   33.73
  -2  -8   9  505.30   37.90
  -2  -8   9  593.05   71.63
   2   8  -8  886.45   66.27
   2   8  -8  770.31   51.59
  -2  -8   8  796.86   48.61
  -2  -8   8  768.01   47.30
   2   8  -7  182.46   46.99
   2   8  -7  176.98   29.16
  -2  -8   7  177.04   58.42
  -2  -8   7  148.89   37.75
   2   8  -6 1443.80   78.71
   2   8  -6 1270.46   63.36
  -2  -8   6 1329.77   66.66
  -2  -8   6 1385.90   65.02
   2   8  -5 1202.45  108.37
   2   8  -5 1013.90   57.74
  -2  -8   5 1088.59   77.84
  -2  -8   5  988.57   57.65
   2   8  -4 1639.79  127.64
   2   8  -4 1709.22   82.00
  -2  -8   4 1696.29  130.26
  -2  -8   4 1431.12   65.99
   2   8  -3 2256.07  106.70
   2   8  -3 1951.28   98.23
  -2  -8   3 2208.36  111.45
  -2  -8   3 2009.91   84.86
   2   8  -2   59.09   29.28
  -2  -8   2   14.91    6.23
  -2  -8   2    8.08    8.56
   2   8  -1   64.50   20.69
   2   8  -1   83.59   27.19
  -2  -8   1   53.64   23.77
  -2  -8   1   83.82   37.70
   2   8   0 1328.40   69.06
   2   8   0 1391.95   67.97
  -2  -8   0 1391.06   74.21
  -2  -8   0 1498.79   76.38
   2   8   1  752.06   40.00
   2   8   1  767.26   64.26
  -2  -8  -1  810.33   56.54
  -2  -8  -1  799.91   72.08
   2   8   2 2133.17   98.41
   2   8   2 2172.07   85.22
  -2  -8  -2 2162.00  101.27
  -2  -8  -2 2152.35   81.97
   2   8   3   52.17   21.73
   2   8   3   33.79   22.77
  -2  -8  -3   62.47   17.06
  -2  -8  -3   70.13   16.06
   2   8   4 1477.69   71.89
   2   8   4 1417.07   67.36
  -2  -8  -4 1487.64   79.37
  -2  -8  -4 1475.59   68.70
   2   8   5 1463.13   61.62
   2   8   5 1524.63   69.30
  -2  -8  -5 1431.78  109.89
  -2  -8  -5 1494.86   64.27
   2   8   6  117.71   51.17
  -2  -8  -6   98.72   24.75
  -2  -8  -6  115.03   26.06
  -2  -8  -6  115.69   29.11
   2   8   7  208.31   57.16
  -2  -8  -7  187.20   47.38
  -2  -8  -7  183.38   28.50
   2   8   8   15.64   17.39
   2   8   8   15.54    9.44
  -2  -8  -8   23.18   10.89
   2   8   9  897.67   81.56
   2   8   9  895.78  100.44
  -2  -8  -9  958.79   47.91
   2   8  10  995.85   90.68
   2   8  10 1056.61   76.30
  -2  -8 -10 1045.99   73.14
   2   8  11  545.75   77.20
   2   8  11  545.92   80.83
  -2  -8 -11  622.42   56.09
   2   8  12  155.17   64.14
   2   8  12  161.92   60.70
  -2  -8 -12  233.45   68.67
   2   8  13   24.56    9.92
   2   8  13   10.67   13.93
  -2  -8 -13    8.70    9.15
   2   9 -22    4.60   18.62
   2   9 -21   85.66   58.97
   2   9 -21   94.83   51.12
   2   9 -20  378.53   48.75
   2   9 -20  357.46   47.67
  -2  -9  20  385.36   62.18
   2   9 -19  247.28   96.65
   2   9 -19  227.38   85.67
  -2  -9  19  365.51   58.07
   2   9 -18  401.25  123.89
   2   9 -18  394.31   97.75
  -2  -9  18  383.01   60.94
   2   9 -17  258.11   79.17
   2   9 -17  273.53   72.85
  -2  -9  17  149.86   65.28
   2   9 -16   19.34   15.90
   2   9 -16   22.64   12.82
  -2  -9  16    7.96   17.92
   2   9 -15  315.63   45.29
  -2  -9  15  301.88   41.93
  -2  -9  15  220.07   66.14
   2   9 -14  348.38   35.08
  -2  -9  14  387.08   63.89
  -2  -9  14  388.49   44.69
   2   9 -13  313.25   34.94
   2   9 -13  270.52   28.75
  -2  -9  13  221.79   24.22
  -2  -9  13  268.88   77.26
   2   9 -12  114.24   40.64
   2   9 -12   90.57   19.65
  -2  -9  12   93.59   27.87
  -2  -9  12   48.11   19.04
   2   9 -11 1136.83   72.24
   2   9 -11 1206.76   30.56
  -2  -9  11 1209.01   56.71
  -2  -9  11 1235.03   59.05
   2   9 -10  373.82   43.02
   2   9 -10  494.07   51.08
  -2  -9  10  502.41   43.52
  -2  -9  10  485.78   41.84
   2   9  -9  767.57   46.93
   2   9  -9  707.93   53.17
  -2  -9   9  787.33   66.16
  -2  -9   9  760.62   51.17
   2   9  -8 1933.71   85.08
   2   9  -8 1722.93   82.68
  -2  -9   8 1781.26   79.50
  -2  -9   8 1644.54   76.19
   2   9  -7   21.38   14.96
   2   9  -7   11.05    9.53
  -2  -9   7   -0.32   13.04
  -2  -9   7    7.61    9.48
   2   9  -6 2283.31  104.45
   2   9  -6 2207.75  106.75
  -2  -9   6 2188.06   92.96
  -2  -9   6 2227.17   94.08
   2   9  -5 2401.53   81.70
  -2  -9   5 2442.38   74.27
  -2  -9   5 2493.91   85.78
   2   9  -4 3997.39  115.96
   2   9  -4 4095.01  120.80
  -2  -9   4 3935.04  112.50
  -2  -9   4 3909.69  111.68
   2   9  -3 2031.77   92.35
   2   9  -3 2007.93   91.90
  -2  -9   3 1933.79   90.99
  -2  -9   3 1877.72   97.56
   2   9  -2   84.66   14.75
   2   9  -2   57.28   18.72
  -2  -9   2   56.55   15.24
  -2  -9   2   43.19   18.13
   2   9  -1    9.97   10.81
   2   9  -1   27.39   10.01
  -2  -9   1   23.45    9.52
  -2  -9   1   -1.12   12.79
   2   9   0 2669.00  104.33
   2   9   0 2572.25  110.49
  -2  -9   0 2468.20  103.18
  -2  -9   0 2646.92  121.22
   2   9   1  287.38   33.50
   2   9   1  337.13   26.59
  -2  -9  -1  357.21   45.01
  -2  -9  -1  327.99   45.45
   2   9   2 3142.89  128.88
   2   9   2 3182.66  130.10
  -2  -9  -2 3103.84  110.59
  -2  -9  -2 3068.04  120.55
   2   9   3   -2.81   10.70
   2   9   3    5.82   15.49
  -2  -9  -3   25.19    9.12
  -2  -9  -3   33.74   17.16
   2   9   4  448.17   43.14
   2   9   4  552.36   44.97
  -2  -9  -4  526.65   46.68
  -2  -9  -4  603.14   41.43
   2   9   5  847.47   48.71
   2   9   5  883.11   43.96
  -2  -9  -5  855.72   47.28
  -2  -9  -5  882.71   37.69
   2   9   6  663.87   48.99
  -2  -9  -6  557.85   21.25
  -2  -9  -6  530.90   50.22
  -2  -9  -6  622.44   51.83
   2   9   7   70.90   32.37
   2   9   7   46.75   28.57
  -2  -9  -7   31.81   16.03
   2   9   8   69.22   30.30
   2   9   8   43.09   30.96
  -2  -9  -8  110.76   29.50
   2   9   9  718.62   81.73
   2   9   9  773.75   53.71
  -2  -9  -9  718.74   81.28
   2   9  10  945.18   72.23
   2   9  10  827.54   50.74
  -2  -9 -10  990.13   66.60
   2   9  11   82.55   42.06
   2   9  11   78.55   26.20
  -2  -9 -11   89.42   58.23
   2   9  12   16.36   17.05
   2   9  12   -7.64   15.20
  -2  -9 -12   10.41    9.01
   2  10 -21  100.35   73.13
   2  10 -20  189.67  124.46
   2  10 -20  226.71   76.88
  -2 -10  20  147.20   87.78
   2  10 -19  412.56   29.48
  -2 -10  19  413.28   63.42
   2  10 -18  461.81   49.81
  -2 -10  18  455.22   76.03
  -2 -10  18  444.45   48.36
   2  10 -17   15.32   12.11
  -2 -10  17    2.75   17.00
  -2 -10  17   21.39   12.73
   2  10 -16   -3.44   17.41
  -2 -10  16   22.67   15.44
  -2 -10  16    1.32   14.62
   2  10 -15  174.99   53.89
  -2 -10  15  144.73   46.68
  -2 -10  15  136.99   33.86
   2  10 -14 1151.37   55.90
  -2 -10  14 1180.81   66.25
  -2 -10  14 1211.56  110.03
   2  10 -13  838.14   65.63
  -2 -10  13  739.24   76.09
  -2 -10  13  826.89   71.81
   2  10 -12  206.38   67.34
   2  10 -12  223.74   22.84
  -2 -10  12  253.23   72.95
  -2 -10  12  227.29   64.02
   2  10 -11  670.61   43.59
   2  10 -11  681.58   38.89
  -2 -10  11  732.62   67.38
  -2 -10  11  605.79   31.59
   2  10 -10 1184.40   83.32
   2  10 -10 1049.68   45.64
  -2 -10  10 1056.54   54.22
  -2 -10  10 1076.94   49.70
   2  10  -9  425.67   35.24
   2  10  -9  396.94   21.47
  -2 -10   9  383.87   34.04
  -2 -10   9  447.56   27.08
   2  10  -8  817.78   48.45
   2  10  -8  963.76   54.11
  -2 -10   8  746.07   50.75
  -2 -10   8  748.00   89.03
   2  10  -7  343.51   25.70
   2  10  -7  359.82   38.03
  -2 -10   7  430.80   45.14
  -2 -10   7  399.83   38.56
   2  10  -6  950.10   71.11
   2  10  -6  933.41   51.31
  -2 -10   6  974.67   62.97
  -2 -10   6  976.81   70.79
   2  10  -5 3504.63  131.39
   2  10  -5 3673.32  132.41
  -2 -10   5 3405.57  128.57
  -2 -10   5 3475.24  127.18
   2  10  -4 3646.53  147.69
   2  10  -4 3463.37  126.07
  -2 -10   4 3593.67  134.28
  -2 -10   4 3566.90  131.24
   2  10  -3 1931.74   86.65
   2  10  -3 1706.56   77.48
  -2 -10   3 1853.17  104.99
  -2 -10   3 1839.04   83.35
   2  10  -2    1.70    8.87
   2  10  -2   44.48   18.30
  -2 -10   2   64.32   18.31
  -2 -10   2   54.91    9.65
   2  10  -1  112.00   36.96
   2  10  -1  125.20   32.79
  -2 -10   1  120.10   30.22
  -2 -10   1  129.02   30.34
   2  10   0  877.64   58.21
   2  10   0  888.77   44.02
  -2 -10   0  931.14   51.18
  -2 -10   0  948.92   50.89
   2  10   1   42.85   24.85
   2  10   1   43.51   16.35
  -2 -10  -1   24.85   19.99
  -2 -10  -1   27.07    8.02
   2  10   2  134.91   21.53
   2  10   2  117.46   50.37
  -2 -10  -2  148.69   38.45
  -2 -10  -2  114.47   36.10
   2  10   3   44.67   21.42
   2  10   3   43.44   19.67
  -2 -10  -3   48.79   20.24
  -2 -10  -3   87.41   18.40
   2  10   4  743.63   80.32
   2  10   4  815.31   69.45
  -2 -10  -4  739.65   60.76
  -2 -10  -4  709.80   68.84
   2  10   5  263.58   34.13
   2  10   5  319.32   71.20
  -2 -10  -5  263.72   37.60
  -2 -10  -5  330.88   38.97
   2  10   6   93.74   43.94
  -2 -10  -6   70.89   19.31
  -2 -10  -6   91.55   24.88
  -2 -10  -6  103.71   31.68
   2  10   7   55.61   33.06
   2  10   7   25.01   22.68
  -2 -10  -7   71.89   27.13
   2  10   8  460.04   44.83
   2  10   8  415.33   68.67
  -2 -10  -8  424.88   55.36
   2  10   9  540.02   67.80
   2  10   9  567.25   84.55
  -2 -10  -9  578.16   55.19
   2  10  10  781.81  119.22
   2  10  10  721.99   32.20
  -2 -10 -10  773.84   90.87
   2  11 -21  578.97   98.62
  -2 -11  21  454.00   74.98
   2  11 -20 1741.20  125.23
  -2 -11  20 2007.34  141.37
  -2 -11  20 1877.05  155.79
   2  11 -19  621.87   34.40
  -2 -11  19  458.35   87.19
  -2 -11  19  572.30   54.22
   2  11 -18  487.94   70.13
  -2 -11  18  492.41   77.64
  -2 -11  18  609.25   63.25
   2  11 -17  284.29   94.22
  -2 -11  17  187.13   72.37
  -2 -11  17  253.82   32.77
   2  11 -16   57.02   23.25
  -2 -11  16   55.06   27.08
  -2 -11  16   72.63   22.63
   2  11 -15  618.99   99.70
  -2 -11  15  688.92   45.70
  -2 -11  15  701.09   42.75
   2  11 -14  271.21   78.90
  -2 -11  14  204.06   60.55
  -2 -11  14  196.41   58.58
   2  11 -13  465.42   67.88
  -2 -11  13  330.14   46.16
  -2 -11  13  435.85   84.87
   2  11 -12   35.41   22.21
   2  11 -12   34.53   13.83
  -2 -11  12   52.21   25.21
  -2 -11  12   19.37   18.59
   2  11 -11 1020.55   67.63
   2  11 -11 1118.31   58.55
  -2 -11  11 1141.94   98.67
  -2 -11  11 1089.89   59.56
   2  11 -10 1206.30   98.23
   2  11 -10 1237.30   62.29
  -2 -11  10 1203.74   70.18
  -2 -11  10 1182.55   58.00
   2  11  -9  482.63   36.65
   2  11  -9  446.38   30.65
  -2 -11   9  490.09   42.20
  -2 -11   9  537.33   28.44
   2  11  -8  157.19   40.13
   2  11  -8  200.42   23.23
  -2 -11   8  220.82   42.27
  -2 -11   8  230.38   73.02
   2  11  -7   91.39   35.12
   2  11  -7   62.60   14.17
  -2 -11   7   71.95   15.44
  -2 -11   7   82.66   22.48
   2  11  -6  174.39   64.48
   2  11  -6  178.21   33.36
  -2 -11   6  156.24   43.11
  -2 -11   6  132.90   47.06
   2  11  -5 1149.40   62.07
   2  11  -5 1131.38   55.11
  -2 -11   5 1176.51   58.23
  -2 -11   5 1094.17   48.14
   2  11  -4 2110.82   96.88
   2  11  -4 2154.20   86.10
  -2 -11   4 2098.39   91.26
  -2 -11   4 2296.81   91.26
   2  11  -3   84.30   24.75
   2  11  -3   63.73   43.92
  -2 -11   3   63.28   37.49
  -2 -11   3   80.67   25.29
   2  11  -2    9.71    7.15
   2  11  -2    5.44   12.94
  -2 -11   2    1.82   10.75
  -2 -11   2    6.00    6.09
   2  11  -1   57.74   26.84
   2  11  -1   72.93   18.44
  -2 -11   1   42.25   18.80
  -2 -11   1   38.55   18.49
   2  11   0 1496.95   86.53
   2  11   0 1844.60   78.63
  -2 -11   0 1858.03   89.72
  -2 -11   0 1714.85   79.60
   2  11   1  659.73   60.26
   2  11   1  701.45   39.86
  -2 -11  -1  831.05   53.79
  -2 -11  -1  841.01   43.01
   2  11   2  404.28   35.89
   2  11   2  467.56   27.71
  -2 -11  -2  437.54   46.87
  -2 -11  -2  376.03   70.94
   2  11   3    3.90    8.39
   2  11   3    0.06   19.59
  -2 -11  -3   16.07    8.90
  -2 -11  -3   10.60   10.61
   2  11   4  265.84   39.06
   2  11   4  293.24   96.41
  -2 -11  -4  320.33   38.82
  -2 -11  -4  265.68   65.75
   2  11   5   60.24   26.11
   2  11   5   81.42   22.48
  -2 -11  -5   75.22   22.75
  -2 -11  -5   35.96   16.95
   2  11   6   37.00   26.21
  -2 -11  -6   23.86   14.99
  -2 -11  -6   20.81   19.89
   2  11   7  132.48   37.28
   2  11   7   60.80   32.92
  -2 -11  -7   24.19   16.34
   2  11   8   90.38   88.14
   2  11   8  111.49   32.98
  -2 -11  -8  108.30   40.59
   2  11   9  457.72  149.96
  -2 -11  -9  606.69   92.65
   2  12 -20  939.81   88.61
  -2 -12  20  704.98  104.45
   2  12 -19 1019.01   69.57
  -2 -12  19 1018.96  100.97
  -2 -12  19  968.68   89.81
   2  12 -18 1185.52   60.36
  -2 -12  18 1094.92   55.28
  -2 -12  18  874.19  120.45
   2  12 -17   23.06   21.52
  -2 -12  17   15.96   17.60
  -2 -12  17   11.74   23.27
  -2 -12  16  211.08   80.12
  -2 -12  16  232.09   36.18
   2  12 -15  679.00   98.43
  -2 -12  15  953.64   62.64
  -2 -12  15  854.19   86.64
   2  12 -14  741.17   70.04
  -2 -12  14  809.23   95.49
  -2 -12  14  701.99   56.93
   2  12 -13  585.18   76.48
  -2 -12  13  568.87   28.65
  -2 -12  13  576.99   84.65
   2  12 -12   17.52   14.04
  -2 -12  12   17.23   16.76
  -2 -12  12    3.95   15.79
   2  12 -11  629.62   79.26
  -2 -12  11  611.59   39.92
  -2 -12  11  656.24   58.41
   2  12 -10  603.84   52.31
   2  12 -10  675.29   34.57
  -2 -12  10  692.89   65.64
  -2 -12  10  740.68   40.82
   2  12  -9  376.23   36.14
   2  12  -9  423.74   23.15
  -2 -12   9  451.40   29.29
  -2 -12   9  440.78   53.34
   2  12  -8    8.16   19.50
   2  12  -8   12.41    8.01
  -2 -12   8   51.74   11.24
  -2 -12   8   -4.73   13.92
   2  12  -7   38.81   25.72
   2  12  -7   19.69   15.15
  -2 -12   7   83.59   23.60
  -2 -12   7   18.09   13.74
   2  12  -6 2188.84  104.12
   2  12  -6 2167.55   89.08
  -2 -12   6 2033.36   94.86
  -2 -12   6 2203.69   97.71
   2  12  -5 1619.47   76.06
   2  12  -5 1722.70   86.90
  -2 -12   5 1684.65   71.38
  -2 -12   5 1745.47   92.08
   2  12  -4  281.34   42.43
   2  12  -4  353.01   37.01
  -2 -12   4  304.50   40.42
  -2 -12   4  311.29   42.13
   2  12  -3   84.27   30.15
   2  12  -3  131.21   35.64
  -2 -12   3   69.53   29.58
  -2 -12   3   78.78   32.64
   2  12  -2   14.69   11.87
   2  12  -2   17.27   17.77
  -2 -12   2   14.01    6.93
  -2 -12   2    7.65    8.09
   2  12  -1  747.26   84.78
   2  12  -1  846.77   40.87
  -2 -12   1  761.04   34.16
  -2 -12   1  822.53   37.67
   2  12   0 1005.74   55.89
   2  12   0  907.77   50.68
  -2 -12   0  995.80   64.53
  -2 -12   0 1013.27   49.91
   2  12   1 1650.36  118.63
   2  12   1 1492.10  139.65
  -2 -12  -1 1677.53   99.53
  -2 -12  -1 1873.19  109.10
   2  12   2  553.73   60.04
   2  12   2  615.53   39.45
  -2 -12  -2  621.71   70.33
  -2 -12  -2  718.19   42.84
   2  12   3   40.63   16.60
   2  12   3   44.80   23.29
  -2 -12  -3   34.95   24.53
  -2 -12  -3   32.86   12.33
   2  12   4  365.36   28.43
   2  12   4  307.07   85.70
  -2 -12  -4  325.81   49.35
  -2 -12  -4  342.33   45.18
   2  12   5  111.45   41.19
  -2 -12  -5   59.80   25.22
  -2 -12  -5   84.91   30.99
   2  12   6   40.74   24.57
  -2 -12  -6   41.51   11.56
   2  12   7    4.46   14.85
  -2 -12  -7   14.70   13.97
  -2 -12  -8  176.07   74.27
  -2 -13  20   85.88   79.21
   2  13 -19  533.85  105.30
  -2 -13  19  553.30   59.45
  -2 -13  19  642.45   89.20
   2  13 -18  241.59  117.00
  -2 -13  18  185.59   90.60
   2  13 -17   26.33   22.12
  -2 -13  17    9.61   13.25
  -2 -13  17    1.67   13.74
   2  13 -16  270.81   38.02
  -2 -13  16  250.13   27.69
  -2 -13  16  338.20   42.06
   2  13 -15  475.54   45.90
  -2 -13  15  475.44  113.21
   2  13 -14 1466.60   90.25
  -2 -13  14 1178.37   96.99
  -2 -13  14 1488.15   96.86
   2  13 -13  579.33  101.09
  -2 -13  13  645.00   39.72
  -2 -13  13  608.88   64.57
   2  13 -12   16.60   18.68
  -2 -13  12   24.08   20.68
   2  13 -11   30.59   23.68
  -2 -13  11   78.74   21.14
  -2 -13  11   65.27   34.97
   2  13 -10  280.09   82.50
   2  13 -10  238.68   40.52
  -2 -13  10  321.27   80.33
  -2 -13  10  219.50   67.14
   2  13  -9  553.20   48.61
   2  13  -9  574.06   33.42
  -2 -13   9  565.52   46.24
  -2 -13   9  512.38   84.60
   2  13  -8   36.72   19.88
   2  13  -8   79.90   21.06
  -2 -13   8   67.04   41.94
  -2 -13   8   53.77   17.10
   2  13  -7  227.34   52.94
   2  13  -7  159.87   42.00
  -2 -13   7  159.61   47.00
  -2 -13   7  192.77   22.99
   2  13  -6 1632.75   60.51
   2  13  -6 1752.22   68.51
  -2 -13   6 1791.06   95.29
  -2 -13   6 1786.05   72.62
   2  13  -5 1905.72   86.74
   2  13  -5 1937.90   78.57
  -2 -13   5 1978.30   83.53
  -2 -13   5 2045.78   94.47
   2  13  -4  850.38   85.37
   2  13  -4  804.10   44.94
  -2 -13   4  799.17   62.95
  -2 -13   4  713.70   35.95
   2  13  -3  290.12   31.70
   2  13  -3  264.61   26.21
  -2 -13   3  326.80   28.77
  -2 -13   3  302.36   43.60
   2  13  -2   65.14   20.35
  -2 -13   2   59.86   22.71
  -2 -13   2   90.37   29.08
   2  13  -1 1954.14  107.62
   2  13  -1 2068.93  115.20
  -2 -13   1 1808.67  124.79
  -2 -13   1 1756.83  102.75
   2  13   0  991.27   62.96
   2  13   0  995.17   60.35
  -2 -13   0  917.66   45.88
  -2 -13   0 1001.13   85.83
   2  13   1 2002.27  118.27
   2  13   1 2031.71  129.96
  -2 -13  -1 2058.84  121.50
  -2 -13  -1 1811.22  111.59
   2  13   2   14.15   25.72
   2  13   2   12.51   17.92
  -2 -13  -2   13.72   10.47
  -2 -13  -2   19.07   14.46
   2  13   3    2.41    7.07
   2  13   3   39.33   21.57
  -2 -13  -3    6.81    9.51
  -2 -13  -3   15.36   11.63
   2  13   4  104.54   33.95
  -2 -13  -4   96.12   45.97
   2  13   5  456.56   54.33
  -2 -13  -5  488.11   60.75
   2  13   6  138.90   63.65
  -2 -13  -6  133.39   51.90
  -2 -14  19   57.77   43.96
  -2 -14  18  103.38   78.10
  -2 -14  18  154.88   58.65
   2  14 -17   39.48   21.05
  -2 -14  17   55.40   23.51
   2  14 -16  103.87   48.72
  -2 -14  16   38.76   36.04
  -2 -14  16   87.41   25.65
   2  14 -15   80.87   36.65
  -2 -14  15   76.28   40.11
  -2 -14  15   71.94   57.81
   2  14 -14  215.81   72.43
  -2 -14  14  155.01   73.69
  -2 -14  14  198.52   48.63
   2  14 -13  103.31   41.88
  -2 -14  13  104.67   62.61
  -2 -14  13  156.16   41.68
   2  14 -12  114.07   23.31
  -2 -14  12   87.29   20.49
   2  14 -11   33.05   22.92
  -2 -14  11   13.67   13.58
   2  14 -10  361.76   39.04
  -2 -14  10  288.16   43.55
  -2 -14  10  243.30   67.35
   2  14  -9   63.84   35.12
  -2 -14   9  145.16   35.10
  -2 -14   9  143.39   41.84
   2  14  -8  -12.81   17.50
   2  14  -8   21.15   12.00
  -2 -14   8   18.28   17.23
  -2 -14   8   29.12   10.51
   2  14  -7  338.26   48.20
   2  14  -7  233.87   65.04
  -2 -14   7  337.78   31.10
  -2 -14   7  275.48   84.18
   2  14  -6 1031.53   57.42
   2  14  -6 1035.53   53.75
  -2 -14   6  870.68   58.64
  -2 -14   6  988.04   62.77
   2  14  -5  815.64   45.30
   2  14  -5  744.05   82.45
  -2 -14   5  737.77   40.98
  -2 -14   5  709.20   66.05
   2  14  -4  222.76   60.27
   2  14  -4  218.24   64.97
  -2 -14   4  243.92   30.10
  -2 -14   4  232.02   75.28
   2  14  -3  105.08   42.24
   2  14  -3  121.27   43.83
  -2 -14   3   94.59   33.00
  -2 -14   3   96.02   40.83
   2  14  -2  277.05   37.19
   2  14  -2  249.31   42.10
  -2 -14   2  212.58   39.99
  -2 -14   2  286.03   67.84
   2  14  -1 2139.55  140.35
   2  14  -1 2205.55  136.74
  -2 -14   1 2039.38  113.03
  -2 -14   1 2259.96  141.76
   2  14   0 1401.70   76.55
   2  14   0 1523.12  100.58
  -2 -14   0 1425.35   87.75
  -2 -14   0 1462.50  100.40
   2  14   1  973.53   74.85
   2  14   1 1080.70   78.10
  -2 -14  -1 1030.57   67.37
   2  14   2   13.83   10.39
   2  14   2   10.24   15.35
  -2 -14  -2    1.42    9.02
   2  14   3   26.64   27.78
  -2 -14  -3   34.68   18.74
  -2 -14  -4  561.02   89.21
  -2 -15  18   36.76   17.61
  -2 -15  17   29.44   35.13
  -2 -15  17   81.13   32.92
   2  15 -16  247.79   95.56
  -2 -15  16  203.59   81.92
  -2 -15  16  270.34   55.29
   2  15 -15  605.56   66.40
  -2 -15  15  463.33   96.51
  -2 -15  15  411.15   98.09
   2  15 -14  213.85   86.52
  -2 -15  14  190.53   90.16
  -2 -15  14  201.65   37.77
   2  15 -13   67.19   28.47
  -2 -15  13  110.07   41.24
   2  15 -12   40.94   18.68
  -2 -15  12   28.58   20.11
  -2 -15  12   33.87   13.03
   2  15 -11   47.61   28.10
  -2 -15  11   15.40   25.97
  -2 -15  11   37.15   20.88
   2  15 -10  179.69   66.35
  -2 -15  10  156.21   50.04
  -2 -15  10  167.63   29.46
   2  15  -9  312.06   33.44
  -2 -15   9  268.68   77.01
  -2 -15   9  261.24   59.39
   2  15  -8   39.03   31.61
  -2 -15   8   92.10   51.08
  -2 -15   8   62.83   26.41
   2  15  -7  366.40   37.18
   2  15  -7  371.21   63.79
  -2 -15   7  288.75   50.92
  -2 -15   7  377.64   67.50
   2  15  -6  659.56   65.45
   2  15  -6  636.24   64.47
  -2 -15   6  605.69   33.20
  -2 -15   6  688.61   48.87
   2  15  -5  499.29   56.35
   2  15  -5  541.43   34.51
  -2 -15   5  343.27   61.13
  -2 -15   5  581.57   57.95
   2  15  -4   51.14   20.12
   2  15  -4   71.08   25.11
  -2 -15   4   43.93   19.74
  -2 -15   4   58.04   26.30
   2  15  -3   19.75   19.90
   2  15  -3   20.75   24.57
  -2 -15   3   -2.59   10.14
  -2 -15   3   13.69   11.65
   2  15  -2  569.07   36.61
   2  15  -2  540.18   73.55
  -2 -15   2  552.81   28.34
   2  15  -1  614.07   30.98
   2  15  -1  545.15   55.61
  -2 -15   1  596.59   76.69
   2  15   0  227.09   56.68
   2  15   0  159.04   72.60
  -2 -15   0  241.63   22.02
   2  15   1  424.06   86.07
   2  15   1  604.94   69.47
  -2 -15  -1  543.02   97.70
  -2 -15  -2   15.84   10.82
   2  15   3  109.86   56.87
  -2 -16  16  210.42   91.81
  -2 -16  15  987.44   85.24
  -2 -16  15  915.15   69.27
   2  16 -14  615.82   81.33
  -2 -16  14  481.28   84.97
  -2 -16  14  668.04  103.86
   2  16 -13   14.22    7.71
  -2 -16  13    9.59   16.85
  -2 -16  13    4.68    8.86
   2  16 -12   21.63   21.62
  -2 -16  12   10.88    9.04
  -2 -16  12   15.48   12.60
   2  16 -11   14.60   22.84
  -2 -16  11   14.33   13.28
   2  16 -10   95.87   34.70
  -2 -16  10  103.11   46.21
  -2 -16  10   86.46   39.99
   2  16  -9  147.44   50.88
  -2 -16   9  108.19   41.04
  -2 -16   9  110.39   37.23
   2  16  -8  275.13  112.56
  -2 -16   8  341.77   59.53
  -2 -16   8  252.58   31.41
   2  16  -7   44.02   29.98
  -2 -16   7   12.02   14.94
  -2 -16   7   -0.40    9.67
   2  16  -6   34.36   24.33
   2  16  -6   33.64   21.02
  -2 -16   6   68.52   30.71
   2  16  -5  356.00   48.16
   2  16  -5  344.82   59.70
  -2 -16   5  433.90   55.95
   2  16  -4    7.30    8.97
  -2 -16   4   23.93   11.80
   2  16  -3   65.65   32.54
  -2 -16   3   57.82   23.65
   2  16  -2  109.12   64.55
  -2 -16   2  157.15   83.83
   2  16  -1  649.67   47.95
   2  16  -1  922.58   62.39
  -2 -16   1  874.63   69.61
   2  16   0 1044.17   81.56
   2  16   0 1030.34  114.93
  -2 -16   0  887.16   95.47
  -2 -17  15  481.46   81.72
  -2 -17  14  172.76  102.94
  -2 -17  14  408.60   45.48
  -2 -17  13  339.32   42.32
  -2 -17  13  262.24   53.96
  -2 -17  12   -5.81   16.23
   2  17 -11   -2.02   18.59
  -2 -17  11   10.37   21.19
  -2 -17  11   -5.16    8.61
   2  17 -10   29.19   31.76
   2  17  -9   46.88   19.14
  -2 -17   9   49.55   49.04
   2  17  -8   12.24   11.19
  -2 -17   8    5.98   27.48
   2  17  -7   27.81   14.85
   2  17  -6   26.00   22.07
  -2 -17   6   17.80   17.08
   2  17  -5   42.67   25.69
  -2 -17   5   62.09   30.11
  -2 -17   4   39.35   39.12
   2  17  -3   10.89    8.23
  -2 -17   3    6.08   21.33
   2  17  -2   37.49   22.51
   2  17  -2   59.03   29.42
   2  17  -1  146.78   55.10
  -3  18   2   10.29   21.40
  -3  18   1  151.43   74.37
  -3  18  -1  820.93   72.86
   3 -18   2  912.27   71.44
  -3  18  -2 1005.13   75.53
   3 -18   3   18.50   19.46
  -3  18  -3   19.24   11.07
   3 -18   4  292.66  113.60
  -3  18  -4  277.10   95.71
   3 -18   5  161.10   99.00
  -3  18  -5  222.52   79.36
   3 -18   6  105.20   56.04
  -3  18  -6  131.74   28.88
   3 -18   7  359.95   74.32
  -3  18  -7  356.74  124.66
   3 -18   8  128.75   60.94
  -3  18  -8  111.91   61.89
   3 -18   9   99.98   61.81
  -3  18  -9  125.38   63.33
   3 -18  10  854.16   65.96
  -3  18 -10  637.36   92.04
  -3  17   4  278.13   79.06
  -3  17   3  107.81   46.63
  -3  17   3  143.74   75.29
  -3  17   2   11.24   18.95
  -3  17   2   10.25   13.90
   3 -17  -1   89.56   61.28
  -3  17   1   64.82   32.72
  -3  17   1   62.53   40.64
   3 -17   0 1044.76   67.25
  -3  17   0  814.65   80.20
  -3  17   0  830.13   54.27
   3 -17   1 1812.18   79.42
  -3  17  -1 1750.26   85.57
  -3  17  -1 1702.42   80.58
   3 -17   2  394.28   93.66
  -3  17  -2  347.97   41.15
   3 -17   3   10.79   14.76
  -3  17  -3    7.27   13.51
   3 -17   4  136.54   48.27
  -3  17  -4  154.82   49.86
   3 -17   5  745.11   33.65
  -3  17  -5  779.34   54.46
   3 -17   6  110.56   44.69
  -3  17  -6  157.09   46.10
   3 -17   7  134.93   50.51
  -3  17  -7  121.55   36.14
   3 -17   8  139.30   77.24
  -3  17  -8  181.51   85.37
   3 -17   9  102.73   37.72
  -3  17  -9  110.65   43.32
   3 -17  10  380.47   49.65
  -3  17 -10  261.52  106.05
   3 -17  11   84.03   33.95
  -3  17 -11   42.04   33.00
   3 -17  12   31.82   30.85
   3 -17  13  197.41   91.75
  -3  17 -13  231.47  102.11
  -3  17 -14  432.49   74.78
   3 -16  -6  847.31   69.18
   3 -16  -5  921.93   67.73
  -3  16   5  729.68   85.06
   3 -16  -4  142.82   81.13
   3 -16  -4  160.36   93.86
  -3  16   4  189.67   59.60
   3 -16  -3   20.46    7.48
  -3  16   3   27.44   28.73
  -3  16   3    6.21   21.01
   3 -16  -2    2.40    8.71
  -3  16   2   10.42   18.54
  -3  16   2   13.57   12.57
   3 -16  -1  658.98   70.02
  -3  16   1  657.70   75.02
  -3  16   1  728.67   29.91
   3 -16   0 1032.81   63.92
  -3  16   0 1157.11   90.65
  -3  16   0 1068.00   67.22
   3 -16   1 1441.59   95.38
  -3  16  -1 1239.03   71.64
  -3  16  -1 1204.96   72.00
   3 -16   2  502.69   58.93
  -3  16  -2  417.04   52.60
  -3  16  -2  460.63   25.58
  -3  16  -3   70.37   28.89
  -3  16  -3   16.98   20.21
   3 -16   4   23.63   26.69
  -3  16  -4   10.80   17.00
   3 -16   5  364.83   44.09
  -3  16  -5  400.64   68.07
   3 -16   6  184.34   58.18
  -3  16  -6  171.28   65.88
   3 -16   7  368.62   50.83
  -3  16  -7  355.52   41.24
   3 -16   8   46.79   21.04
  -3  16  -8   17.21   19.35
   3 -16   9  155.55   49.09
  -3  16  -9  152.50   79.88
   3 -16  10  354.51   40.39
  -3  16 -10  349.96   60.40
   3 -16  11  126.96   54.30
  -3  16 -11  149.90   67.32
   3 -16  12   44.54   28.11
  -3  16 -12   21.87   18.21
   3 -16  13  110.91   51.48
  -3  16 -13  106.35   50.07
   3 -16  14   62.82   41.19
  -3  16 -14   74.94   51.02
  -3  16 -15  711.02   58.13
  -3  16 -16  447.90   84.27
   3 -15  -8  135.10   64.88
   3 -15  -7    1.68   20.43
  -3  15   7    7.87   17.15
   3 -15  -6  486.97   54.34
  -3  15   6  419.70   48.78
   3 -15  -5  406.75   78.26
   3 -15  -5  431.07   54.94
  -3  15   5  414.25   30.44
   3 -15  -4  477.12   59.43
  -3  15   4  471.00   56.51
   3 -15  -3  155.50   53.19
  -3  15   3  162.94   64.84
  -3  15   3   78.47   33.90
   3 -15  -2  134.69   56.23
  -3  15   2  201.21   82.68
  -3  15   2  206.41   63.68
   3 -15  -1 1137.89   74.87
  -3  15   1 1218.49   77.99
  -3  15   1 1164.63   75.11
   3 -15   0  810.07   56.54
  -3  15   0  734.39   72.66
  -3  15   0  693.70   38.81
   3 -15   1  546.84   44.98
  -3  15  -1  646.04   34.91
  -3  15  -1  534.90   32.63
   3 -15   2  252.96   58.00
  -3  15  -2  230.77   62.93
  -3  15  -2  285.97   31.84
   3 -15   3   28.76   15.55
  -3  15  -3    5.58   16.72
   3 -15   4  395.24   51.53
  -3  15  -4  498.28   92.05
  -3  15  -4  384.02   28.98
   3 -15   5  411.51   49.54
  -3  15  -5  274.57   87.32
   3 -15   6  261.48   39.96
  -3  15  -6  196.40   77.11
   3 -15   7  703.70   99.73
  -3  15  -7  674.96   62.75
   3 -15   8  315.30   36.96
  -3  15  -8  307.77   60.88
   3 -15   9  529.69   56.01
  -3  15  -9  451.79   47.35
   3 -15  10  106.92   67.94
  -3  15 -10  119.57   49.39
   3 -15  11   26.19   18.35
  -3  15 -11   36.56   26.21
   3 -15  12    2.11    6.48
   3 -15  12    5.99   17.38
  -3  15 -12    6.45   12.89
   3 -15  13   64.57   28.83
   3 -15  13   99.31   38.84
  -3  15 -13   62.57   31.43
   3 -15  14  262.90   34.25
   3 -15  14  176.68   97.49
  -3  15 -14  239.13   31.69
   3 -15  15 1043.11   86.71
   3 -15  15 1168.61  103.05
  -3  15 -15 1096.56   75.54
   3 -15  16  570.01   59.98
   3 -15  16  671.38  110.18
  -3  15 -16  547.07   76.80
   3 -14  -8   99.16   51.55
   3 -14  -8  151.16   35.11
  -3  14   8  172.07   63.84
   3 -14  -7   28.91   15.82
   3 -14  -7   17.19    8.14
  -3  14   7   26.01   27.27
   3 -14  -6   24.91   22.92
   3 -14  -6   47.50   24.13
  -3  14   6    6.22   11.90
   3 -14  -5 1102.20   79.77
   3 -14  -5  913.05   91.58
  -3  14   5 1097.66   64.96
   3 -14  -4  655.30   86.68
  -3  14   4  684.87   56.69
  -3  14   4  768.43   51.64
   3 -14  -3  145.49   45.10
  -3  14   3  164.06   41.63
   3 -14  -2   -6.44   17.99
  -3  14   2   17.02   17.72
  -3  14   2   18.42   12.68
   3 -14  -1 1310.77   76.24
  -3  14   1 1085.83   96.39
  -3  14   1 1109.96   63.94
   3 -14   0  874.19   37.70
  -3  14   0  864.57   62.44
  -3  14   0  928.72   54.60
   3 -14   1 1490.79   67.11
  -3  14  -1 1511.81  103.93
  -3  14  -1 1597.76   43.13
   3 -14   2  676.51   41.36
  -3  14  -2  693.30   52.84
  -3  14  -2  538.00   57.52
   3 -14   3   27.56   20.67
  -3  14  -3   27.96   19.27
  -3  14  -3   38.71   14.57
   3 -14   4  541.40  117.34
  -3  14  -4  569.95  101.18
  -3  14  -4  501.66   34.47
   3 -14   5  739.90   79.71
  -3  14  -5  906.61   51.32
  -3  14  -5  775.79   36.17
   3 -14   6 1577.37   77.46
  -3  14  -6 1289.84   84.83
   3 -14   7   25.40   18.58
  -3  14  -7   28.02   19.78
   3 -14   8   10.93    9.22
   3 -14   8   13.14   11.73
  -3  14  -8   17.72   16.16
   3 -14   9  149.47   36.60
   3 -14   9  222.36   61.30
  -3  14  -9  278.74   53.11
   3 -14  10  159.37   35.50
   3 -14  10  159.08   60.98
  -3  14 -10  160.84   45.30
   3 -14  11  218.07   26.41
   3 -14  11  131.83   56.60
  -3  14 -11  200.06   76.70
   3 -14  12   11.12   13.00
   3 -14  12   21.48   22.68
  -3  14 -12   13.02   20.88
   3 -14  13  175.31   69.43
   3 -14  13  215.58   85.27
  -3  14 -13  284.87   44.25
   3 -14  14  189.20   74.06
   3 -14  14  247.21   96.15
  -3  14 -14  263.55   29.49
   3 -14  15  583.16   77.12
   3 -14  15  537.82   49.62
  -3  14 -15  584.56   54.62
   3 -14  16  128.28   68.16
   3 -14  16  108.60   72.15
  -3  14 -16  217.54   45.82
   3 -14  17   29.01   30.96
   3 -14  17    7.91   12.41
  -3  14 -17   12.29   14.48
   3 -14  18  137.77   77.57
  -3  14 -18  132.83   67.91
   3 -13 -11   19.72   16.28
   3 -13 -10  366.92   55.18
   3 -13 -10  393.13   71.81
   3 -13  -9  532.66   88.82
   3 -13  -9  499.85   59.86
  -3  13   9  568.42  103.44
   3 -13  -8  137.54   55.83
   3 -13  -8  184.63   54.11
  -3  13   8  212.62   39.56
   3 -13  -7   80.45   32.66
   3 -13  -7   19.93   10.49
  -3  13   7   48.67   24.96
   3 -13  -6  199.74   66.74
   3 -13  -6  252.58   29.54
  -3  13   6  204.88   84.30
   3 -13  -5  865.75   54.58
   3 -13  -5  815.93   71.88
  -3  13   5  839.68   61.72
   3 -13  -4  480.02   45.30
  -3  13   4  418.16   87.20
  -3  13   4  423.10   37.56
   3 -13  -3  149.88   55.15
  -3  13   3  125.66   23.81
  -3  13   3  174.63   52.47
   3 -13  -2   71.43   22.64
  -3  13   2  143.11   33.01
  -3  13   2  134.20   36.99
   3 -13  -1 1371.04   77.66
  -3  13   1 1478.24  121.47
  -3  13   1 1500.89   86.12
   3 -13   0 2113.44   86.95
  -3  13   0 2127.08   88.85
  -3  13   0 2006.38   82.27
   3 -13   1 1621.88   73.75
  -3  13  -1 1591.10   74.44
  -3  13  -1 1576.90   69.79
   3 -13   2   27.76   19.64
  -3  13  -2   14.16   10.98
  -3  13  -2   15.34   11.98
   3 -13   3  333.01   81.67
  -3  13  -3  322.22   32.92
  -3  13  -3  260.15   22.32
   3 -13   4 1084.97  101.22
  -3  13  -4 1267.56   65.08
  -3  13  -4 1045.59   55.85
   3 -13   5 4212.93  135.11
   3 -13   5 4367.90  166.80
  -3  13  -5 4417.45  172.82
  -3  13  -5 4305.64  144.68
   3 -13   6 2760.71   91.17
   3 -13   6 3027.09  105.78
  -3  13  -6 2932.77  101.87
  -3  13  -6 3013.08  101.97
   3 -13   7    7.80   12.19
   3 -13   7    7.44   19.06
  -3  13  -7   -4.56   16.65
   3 -13   8  143.13   39.38
   3 -13   8  206.12   33.19
  -3  13  -8  150.11   80.80
   3 -13   9 1323.51   85.08
   3 -13   9 1522.79  102.42
  -3  13  -9 1388.09   78.58
   3 -13  10  770.81   50.53
   3 -13  10  812.63   71.59
  -3  13 -10  764.91   49.23
   3 -13  11  311.09   40.70
   3 -13  11  262.91   79.52
  -3  13 -11  385.36   66.02
   3 -13  12   27.59   40.54
   3 -13  12   29.38   34.35
  -3  13 -12   19.79   12.27
   3 -13  13  209.36   59.19
  -3  13 -13  223.65   27.12
   3 -13  14  326.24   30.38
   3 -13  14  367.42   43.24
   3 -13  15  489.51   43.55
   3 -13  15  417.97  120.72
  -3  13 -15  478.74   67.17
   3 -13  16  273.88   58.07
   3 -13  16  210.08  105.66
  -3  13 -16  268.23   71.18
   3 -13  17   -3.50   14.98
   3 -13  17    1.61    7.78
  -3  13 -17   28.75   15.65
   3 -13  18  116.93   47.99
  -3  13 -18  126.67   69.39
   3 -13  19   84.12   46.74
   3 -12 -11   44.47   24.63
   3 -12 -11   63.66   19.61
  -3  12  11   38.74   33.93
   3 -12 -10  195.72   70.53
   3 -12 -10  246.96   36.20
  -3  12  10  158.52   67.64
   3 -12  -9 1438.92   85.97
   3 -12  -9 1263.66  116.64
  -3  12   9 1524.00   91.98
   3 -12  -8   14.31   18.09
   3 -12  -8   -0.13   14.69
  -3  12   8   34.16   23.25
   3 -12  -7   21.01   16.54
   3 -12  -7   52.48   13.67
  -3  12   7    2.64   20.54
   3 -12  -6   86.55   32.69
   3 -12  -6  123.07   48.54
  -3  12   6  127.73   34.50
   3 -12  -5  491.84   28.06
   3 -12  -5  550.52   51.52
  -3  12   5  588.74   38.77
   3 -12  -4  540.46   54.91
  -3  12   4  537.36   43.55
  -3  12   4  565.91   66.67
   3 -12  -3  202.96   43.70
  -3  12   3  241.30   54.06
  -3  12   3  223.19   48.81
   3 -12  -2  246.68   69.82
  -3  12   2  319.56   78.34
  -3  12   2  255.73   37.57
   3 -12  -1 1682.02   72.91
  -3  12   1 1611.23   77.38
  -3  12   1 1521.18  103.51
   3 -12   0 3783.96  128.49
  -3  12   0 3609.74  136.39
  -3  12   0 3682.28  120.19
   3 -12   1 2413.13   95.12
  -3  12  -1 2349.74   84.60
  -3  12  -1 2229.81   79.41
   3 -12   2  296.62   25.96
  -3  12  -2  290.56   29.70
  -3  12  -2  291.36   26.23
   3 -12   3 1253.96   50.74
   3 -12   3 1315.38   98.91
  -3  12  -3 1126.85   94.46
  -3  12  -3 1176.45   51.33
   3 -12   4 1201.03   45.00
   3 -12   4 1171.51   83.56
  -3  12  -4 1196.82   56.71
  -3  12  -4 1224.47   54.28
   3 -12   5  720.72   31.70
   3 -12   5  775.65   41.77
  -3  12  -5  824.03   64.49
  -3  12  -5  774.74   35.94
   3 -12   6 4175.62  128.57
   3 -12   6 4530.52  151.68
  -3  12  -6 4171.87  152.13
  -3  12  -6 4585.80  130.89
   3 -12   7  316.89   34.95
   3 -12   7  353.11   82.06
  -3  12  -7  312.98   81.26
  -3  12  -7  310.02   14.16
   3 -12   8   77.88   28.07
   3 -12   8   57.34   17.47
  -3  12  -8   85.37   21.87
   3 -12   9  840.35   36.02
   3 -12   9  853.55   65.55
  -3  12  -9  860.53   46.11
   3 -12  10  622.20   54.78
   3 -12  10  583.38   61.18
  -3  12 -10  641.39   43.45
   3 -12  11  504.16   38.53
   3 -12  11  525.12   74.08
  -3  12 -11  641.08   82.11
   3 -12  12   38.08   27.31
   3 -12  12   74.41   37.51
  -3  12 -12   31.21   16.68
   3 -12  13  340.16   35.74
   3 -12  13  297.25   96.50
  -3  12 -13  295.59   69.53
   3 -12  14  486.35   53.41
   3 -12  14  433.82   86.88
  -3  12 -14  404.31   48.16
   3 -12  15  133.24   56.11
   3 -12  15  199.57   65.08
  -3  12 -15  103.52   84.97
   3 -12  16  140.87   73.53
   3 -12  16  132.20   57.16
  -3  12 -16  118.25   63.59
   3 -12  17   12.47   16.39
  -3  12 -17    2.41   14.27
   3 -12  18  133.02   52.29
   3 -12  19  190.70   96.99
   3 -11 -12   13.28   11.86
   3 -11 -12   10.77   16.23
  -3  11  12   19.60   21.51
   3 -11 -11  337.84   51.79
   3 -11 -11  421.70   43.49
  -3  11  11  280.80   45.54
   3 -11 -10 1253.79   83.23
   3 -11 -10 1200.40   66.80
  -3  11  10 1422.60   93.35
   3 -11  -9 1251.00   94.39
   3 -11  -9 1065.79   62.93
  -3  11   9 1276.10   84.47
   3 -11  -8  199.46   58.21
   3 -11  -8  274.12   68.83
  -3  11   8  231.54   61.56
   3 -11  -7  137.98   34.40
   3 -11  -7  102.25   27.96
  -3  11   7   96.54   40.55
   3 -11  -6  321.23   60.96
   3 -11  -6  334.59   30.59
  -3  11   6  279.64   81.20
   3 -11  -5  115.33   26.94
  -3  11   5   87.65   22.96
   3 -11  -4  257.17   70.30
  -3  11   4  298.21   50.41
  -3  11   4  222.26   41.74
   3 -11  -3   -0.14   16.13
  -3  11   3   11.62   15.61
  -3  11   3   17.61   10.15
   3 -11  -2  839.34   40.12
  -3  11   2  833.09   54.22
  -3  11   2  820.71   42.19
   3 -11  -1  669.31   75.11
  -3  11   1  622.68   56.91
  -3  11   1  625.66   35.20
   3 -11   0 4553.39  163.18
  -3  11   0 4351.15  157.34
  -3  11   0 4270.21  160.53
   3 -11   1 2791.06  116.26
  -3  11  -1 2873.44  109.84
  -3  11  -1 2885.67  104.48
   3 -11   2    0.12    1.92
   3 -11   2   24.20    9.96
  -3  11  -2   23.27    8.59
  -3  11  -2    2.57    2.96
  -3  11  -2   15.72   10.56
   3 -11   3    5.00    3.03
   3 -11   3    7.00    8.29
  -3  11  -3   31.78   23.10
  -3  11  -3    4.64    4.99
  -3  11  -3   18.04    9.75
   3 -11   4  536.49   41.83
   3 -11   4  516.14   73.06
  -3  11  -4  436.22   43.38
  -3  11  -4  475.50   34.17
  -3  11  -4  535.60   40.91
   3 -11   5 3081.42  113.49
   3 -11   5 2985.25  122.90
   3 -11   5 2884.18  102.68
  -3  11  -5 3248.62  129.69
  -3  11  -5 3077.92  114.11
  -3  11  -5 2928.30  103.28
   3 -11   6 1438.97   66.95
   3 -11   6 1566.50   72.00
  -3  11  -6 1306.26   85.83
   3 -11   7  166.99   25.11
   3 -11   7  217.85   65.49
  -3  11  -7  152.32   24.57
  -3  11  -7  154.20   17.36
   3 -11   8  262.63   35.79
   3 -11   8  255.73   28.46
  -3  11  -8  216.19   52.42
   3 -11   9  552.36   29.05
   3 -11   9  581.17   32.82
  -3  11  -9  517.97   35.29
   3 -11  10  582.47   35.71
   3 -11  10  681.29   37.54
  -3  11 -10  666.57   61.21
   3 -11  11 1377.24   65.30
   3 -11  11 1327.89   62.86
  -3  11 -11 1260.17   91.51
   3 -11  12  282.18   45.67
   3 -11  12  340.01   86.52
  -3  11 -12  272.75   65.99
   3 -11  13  228.85   34.85
   3 -11  13  317.18   94.92
  -3  11 -13  203.94   67.48
   3 -11  14  553.04   51.74
  -3  11 -14  564.95   29.51
   3 -11  15  144.96   48.92
  -3  11 -15  116.40   36.86
  -3  11 -15  119.46   64.14
   3 -11  16  148.22   54.25
  -3  11 -16  153.11   45.45
   3 -11  17  116.27   51.06
  -3  11 -17   52.99   38.48
   3 -11  18  497.07  108.29
  -3  11 -18  629.78   56.68
   3 -11  19  146.75   75.01
   3 -10 -14  928.00  106.12
   3 -10 -13  131.12   40.80
   3 -10 -13  208.47   32.47
  -3  10  13  121.98   50.85
   3 -10 -12   78.96   47.35
   3 -10 -12   85.42   42.91
  -3  10  12  107.16   37.62
   3 -10 -11  726.57   52.68
   3 -10 -11  821.46   80.36
  -3  10  11  828.74   48.22
   3 -10 -10 1164.54   73.66
   3 -10 -10 1099.27   91.41
  -3  10  10 1241.51   78.60
   3 -10  -9 1791.53  105.56
   3 -10  -9 1769.55  114.48
  -3  10   9 2003.37  112.19
   3 -10  -8  948.40   48.29
   3 -10  -8 1028.03   57.17
  -3  10   8  981.96   66.25
   3 -10  -7  107.35   22.30
   3 -10  -7  140.25   44.29
  -3  10   7   66.82   28.85
   3 -10  -6  885.47   40.26
   3 -10  -6  792.41   44.44
  -3  10   6  817.29   37.60
   3 -10  -5  372.37   47.02
   3 -10  -5  377.70   43.95
  -3  10   5  444.40   45.62
   3 -10  -4  794.86   46.32
  -3  10   4  808.38   51.77
  -3  10   4  699.62   82.44
   3 -10  -3   38.02   20.20
  -3  10   3   11.18   16.18
  -3  10   3   10.96   11.54
   3 -10  -2 1036.89   30.02
  -3  10   2  941.88   55.56
  -3  10   2 1021.98   59.64
   3 -10  -1  431.04   52.03
  -3  10   1  440.91   41.75
  -3  10   1  419.03   33.32
   3 -10   0 1146.96   68.62
  -3  10   0 1064.28   79.64
  -3  10   0 1147.86   58.33
   3 -10   1  436.96   26.09
   3 -10   1  540.61   34.36
  -3  10  -1  622.89   99.45
  -3  10  -1  571.80   31.73
   3 -10   2    1.59    1.61
   3 -10   2   12.07    9.49
  -3  10  -2   22.32   15.40
  -3  10  -2    6.11    4.79
  -3  10  -2    6.71    4.68
   3 -10   3  636.42   29.32
   3 -10   3  751.42   66.19
  -3  10  -3  624.45   50.67
  -3  10  -3  582.12   30.43
  -3  10  -3  589.21   33.12
   3 -10   4 3563.00  100.54
   3 -10   4 3582.61  121.24
   3 -10   4 3315.81  100.83
  -3  10  -4 3651.41  112.55
  -3  10  -4 3520.21   98.67
  -3  10  -4 3405.22   95.39
   3 -10   5 3457.08   97.79
   3 -10   5 3559.73  105.78
   3 -10   5 3650.67  104.86
  -3  10  -5 3571.02  107.19
  -3  10  -5 3743.30  101.25
  -3  10  -5 3489.35   96.16
   3 -10   6 2456.55   68.24
   3 -10   6 2451.99   95.09
   3 -10   6 2547.95   81.30
  -3  10  -6 2498.70   69.16
  -3  10  -6 2474.88   90.64
   3 -10   7  139.01   35.81
   3 -10   7  152.81   42.38
   3 -10   7  121.72    5.47
  -3  10  -7  210.30   57.67
   3 -10   8  907.61   54.35
   3 -10   8  938.38   77.48
  -3  10  -8  944.99   59.17
   3 -10   9   12.75    8.32
   3 -10   9    9.13   10.48
  -3  10  -9   14.24   14.40
   3 -10  10 1010.46   76.19
   3 -10  10 1020.42   58.72
  -3  10 -10 1002.82   58.28
   3 -10  11 1145.54   81.68
   3 -10  11 1024.55   59.25
  -3  10 -11 1138.51   67.79
   3 -10  12   29.58   17.64
  -3  10 -12   31.07   21.72
  -3  10 -12    6.64   17.85
   3 -10  13   73.73   26.43
  -3  10 -13   34.67   23.04
  -3  10 -13   55.85   17.97
   3 -10  14  656.65   62.66
  -3  10 -14  531.70   53.84
  -3  10 -14  572.52   27.81
   3 -10  15  620.69   60.73
  -3  10 -15  708.89   64.93
  -3  10 -15  628.70   45.14
   3 -10  16    8.07   18.03
  -3  10 -16   10.48   17.92
  -3  10 -16   15.98   14.76
   3 -10  17  122.84   46.30
  -3  10 -17  124.65   30.68
   3 -10  18  378.76   45.94
  -3  10 -18  393.58   93.30
   3 -10  19  280.51   89.98
  -3  10 -19  209.42   74.00
   3  -9 -15  884.71   72.94
   3  -9 -14  686.97   43.80
   3  -9 -14  789.52   46.88
  -3   9  14  687.36   45.76
   3  -9 -13   51.90   25.87
   3  -9 -13   51.98   24.75
  -3   9  13   23.58   21.23
   3  -9 -12   50.16   28.82
  -3   9  12   69.00   20.10
   3  -9 -11  742.38   37.52
   3  -9 -11  770.55   29.25
  -3   9  11  716.77  104.59
   3  -9 -10 1822.94  113.76
   3  -9 -10 1729.08   94.02
  -3   9  10 1897.26  112.24
   3  -9  -9 1490.52   67.88
   3  -9  -9 1358.95  109.25
  -3   9   9 1467.34  104.26
   3  -9  -8  698.96   40.37
   3  -9  -8  653.34   53.14
  -3   9   8  621.07   54.21
   3  -9  -7    8.52    9.15
   3  -9  -7    7.27   13.62
  -3   9   7   -0.57    3.98
  -3   9   7   11.99   23.37
   3  -9  -6  246.05   40.63
   3  -9  -6  287.81   25.41
  -3   9   6  233.97   21.89
  -3   9   6  303.68   62.51
   3  -9  -5 3334.37  121.85
   3  -9  -5 3307.59  128.31
  -3   9   5 3424.51  112.30
  -3   9   5 3445.75  122.68
   3  -9  -4 2329.47   94.49
  -3   9   4 2465.54   95.83
  -3   9   4 2411.90   81.54
  -3   9   4 2434.45   93.25
   3  -9  -3  241.75   31.56
  -3   9   3  236.98   53.00
  -3   9   3  257.94   30.23
   3  -9  -2  427.92   32.79
  -3   9   2  420.46   44.62
  -3   9   2  366.03   29.05
   3  -9  -1 1440.32   78.39
  -3   9   1 1368.54   66.65
  -3   9   1 1312.85   83.29
   3  -9   0 2252.76  100.92
  -3   9   0 2122.04   92.69
  -3   9   0 2152.68   90.37
   3  -9   1  121.68   41.03
  -3   9  -1   99.57   52.61
  -3   9  -1  167.48   35.56
   3  -9   2   87.02   12.25
   3  -9   2  149.51   36.28
  -3   9  -2  102.02   15.49
  -3   9  -2   66.30   11.24
  -3   9  -2   83.13   25.70
   3  -9   3 1015.83   54.17
   3  -9   3 1200.06   63.42
   3  -9   3 1002.73   57.23
  -3   9  -3 1097.77   90.43
  -3   9  -3 1135.73   42.81
  -3   9  -3 1075.64   56.20
   3  -9   4 4550.54  107.17
   3  -9   4 4532.64  125.18
   3  -9   4 4658.23  110.11
  -3   9  -4 4797.82  132.71
  -3   9  -4 4861.01  116.41
  -3   9  -4 4533.91  110.18
   3  -9   5 3296.06   84.98
   3  -9   5 3136.71  113.02
   3  -9   5 3342.70   83.21
  -3   9  -5 3341.95   89.07
  -3   9  -5 3330.19   81.97
  -3   9  -5 3150.83   81.10
   3  -9   6 2128.86   86.86
   3  -9   6 1995.33   88.86
   3  -9   6 2056.99   85.49
  -3   9  -6 2150.62   85.72
  -3   9  -6 2165.50   99.76
   3  -9   7 1388.77   73.53
   3  -9   7 1334.13   62.30
  -3   9  -7 1196.89   79.97
   3  -9   8 1005.94   66.07
   3  -9   8 1086.20   88.23
  -3   9  -8 1000.36   56.16
   3  -9   9   60.46   11.95
   3  -9   9   52.32   21.65
  -3   9  -9   64.38   19.65
   3  -9  10  905.69   42.33
  -3   9 -10  910.57   45.68
  -3   9 -10  865.96   46.28
   3  -9  11  555.00   42.64
  -3   9 -11  607.91   35.55
  -3   9 -11  538.38   30.25
   3  -9  12  131.38   31.74
  -3   9 -12  103.91   31.60
  -3   9 -12  137.24   52.64
   3  -9  13   24.38   29.34
  -3   9 -13   22.10   18.40
  -3   9 -13   -0.29   13.18
   3  -9  14   33.36   13.58
  -3   9 -14   54.83   28.87
  -3   9 -14   37.61   20.94
   3  -9  15   57.05   23.37
  -3   9 -15   53.92   28.45
  -3   9 -15   27.25   15.06
   3  -9  16   15.71   21.06
  -3   9 -16    5.83   22.50
  -3   9 -16   12.05   16.56
   3  -9  17   76.90   47.10
  -3   9 -17   98.04   39.82
   3  -9  18   91.32   47.84
  -3   9 -18   79.63   59.74
   3  -9  19  243.17   89.88
  -3   9 -19  212.73   95.20
   3  -8 -16  322.16   60.17
   3  -8 -15  710.75   38.63
  -3   8  15  657.33   78.83
   3  -8 -14  577.36   35.18
   3  -8 -14  523.21   86.46
  -3   8  14  565.05   83.02
   3  -8 -13   68.22   40.35
  -3   8  13   37.68   15.48
   3  -8 -12  105.32   35.46
   3  -8 -12   90.94   32.14
  -3   8  12  119.58   45.97
   3  -8 -11  963.68   61.49
   3  -8 -11  924.32   57.31
  -3   8  11  838.76   78.19
   3  -8 -10 1676.56   67.78
   3  -8 -10 1737.46   69.65
  -3   8  10 1810.04   78.26
  -3   8  10 1782.42   75.17
   3  -8  -9 1368.93   62.02
   3  -8  -9 1402.24   84.36
  -3   8   9 1336.88   62.48
   3  -8  -8  362.02   55.47
   3  -8  -8  334.16   37.43
  -3   8   8  221.57   27.16
  -3   8   8  329.95   59.21
   3  -8  -7  649.69   34.94
   3  -8  -7  582.67   49.92
  -3   8   7  643.92   43.15
   3  -8  -6  225.13   38.49
   3  -8  -6  215.59   48.39
  -3   8   6  129.47   17.60
  -3   8   6  167.86   20.79
  -3   8   6  198.09   49.80
   3  -8  -5 2641.31  101.39
   3  -8  -5 2947.83   97.25
  -3   8   5 2678.73   74.00
  -3   8   5 2897.98   78.63
  -3   8   5 2979.12   95.49
   3  -8  -4 3154.71   99.12
  -3   8   4 3174.49   83.16
  -3   8   4 3174.66   83.60
  -3   8   4 3406.09  106.94
   3  -8  -3  470.34   50.10
  -3   8   3  451.16   40.59
  -3   8   3  393.46   41.29
   3  -8  -2  203.56   66.85
  -3   8   2  193.30   61.16
  -3   8   2  107.71   30.83
   3  -8  -1  708.79   50.63
  -3   8   1  604.35   38.57
  -3   8   1  613.92   38.05
   3  -8   0 1314.79   62.16
  -3   8   0 1344.53   79.65
  -3   8   0 1346.43   58.77
   3  -8   1 1664.33   67.85
   3  -8   1 1566.37   71.36
   3  -8   1 1599.32   64.93
  -3   8  -1 1563.12   75.77
  -3   8  -1 1667.50   74.55
   3  -8   2  250.31   11.87
   3  -8   2  350.59   37.16
  -3   8  -2  252.88   21.92
  -3   8  -2  247.33   16.70
  -3   8  -2  272.46   16.53
   3  -8   3 3012.89   73.25
   3  -8   3 3037.65   81.97
   3  -8   3 3005.40   79.51
  -3   8  -3 2940.15  101.38
  -3   8  -3 3057.12   76.77
  -3   8  -3 3011.26   72.83
   3  -8   4 2665.73   28.65
   3  -8   4 2502.66  108.58
   3  -8   4 2695.09   66.66
  -3   8  -4 2684.31   74.76
  -3   8  -4 2555.01  106.64
  -3   8  -4 2586.09  108.22
   3  -8   5 1511.01   71.75
   3  -8   5 1537.29   73.29
   3  -8   5 1472.59   63.47
  -3   8  -5 1481.36   65.80
  -3   8  -5 1458.64   60.60
  -3   8  -5 1355.49   63.46
   3  -8   6  589.94   36.06
   3  -8   6  660.15   51.37
   3  -8   6  613.83   42.74
  -3   8  -6  526.35   32.50
  -3   8  -6  600.57   41.07
   3  -8   7   29.41   10.28
   3  -8   7   34.89   14.95
  -3   8  -7   32.97   19.68
   3  -8   8 1200.13   69.45
  -3   8  -8 1306.79   61.34
  -3   8  -8 1234.72   78.60
   3  -8   9  720.34   55.18
  -3   8  -9  593.08   47.75
  -3   8  -9  623.62   36.96
   3  -8  10 1601.75   73.31
  -3   8 -10 1645.04   75.64
  -3   8 -10 1605.80   70.28
   3  -8  11   25.10   15.87
  -3   8 -11   31.17   15.54
  -3   8 -11   22.70   15.12
   3  -8  12   40.58   19.33
  -3   8 -12   28.98   20.84
  -3   8 -12   12.90    9.76
   3  -8  13    8.77   23.66
  -3   8 -13   32.23   19.88
  -3   8 -13   15.37   13.54
   3  -8  14  292.86   64.05
  -3   8 -14  272.48   67.69
  -3   8 -14  250.19   25.29
   3  -8  15  150.46   43.44
  -3   8 -15   69.98   50.36
  -3   8 -15   91.81   32.42
   3  -8  16   30.01   14.59
  -3   8 -16   18.43   18.38
  -3   8 -16   24.72   15.58
   3  -8  17   17.33   21.58
  -3   8 -17   29.34   25.38
   3  -8  18  156.75   73.81
  -3   8 -18  129.97   48.14
   3  -8  19  180.56   80.26
  -3   8 -19  264.79   43.75
   3  -7 -17   94.76   51.51
   3  -7 -16  110.24   57.99
  -3   7  16   74.03   45.99
   3  -7 -15  478.50   30.52
   3  -7 -15  444.33   54.76
  -3   7  15  279.16  102.45
   3  -7 -14  704.18   40.83
   3  -7 -14  602.75   72.56
  -3   7  14  678.18   65.16
   3  -7 -13   20.06   14.57
   3  -7 -13   34.38   15.25
  -3   7  13    6.81    8.25
  -3   7  13   15.68   12.43
   3  -7 -12  348.60   71.73
   3  -7 -12  433.37   37.38
  -3   7  12  328.91   52.45
  -3   7  12  429.40   85.35
   3  -7 -11 1348.00   77.52
   3  -7 -11 1320.11   72.59
  -3   7  11 1198.29   65.19
  -3   7  11 1268.22   74.38
   3  -7 -10 5818.21   82.66
   3  -7 -10 5609.29  201.86
  -3   7  10 5453.59  172.70
  -3   7  10 5753.56  107.86
   3  -7  -9 2988.45   94.58
   3  -7  -9 3085.83  104.98
  -3   7   9 2973.22   92.71
  -3   7   9 3065.54  107.70
   3  -7  -8  296.63   46.14
   3  -7  -8  329.32   40.31
  -3   7   8  277.70   38.08
  -3   7   8  315.76   70.65
   3  -7  -7   72.53   17.72
   3  -7  -7   31.63   17.09
  -3   7   7   32.68    7.71
  -3   7   7   28.35    9.12
  -3   7   7   27.60   13.22
   3  -7  -6  674.41   63.77
   3  -7  -6  652.36   35.63
  -3   7   6  589.99   32.02
  -3   7   6  601.17   28.16
  -3   7   6  680.21   47.14
   3  -7  -5 3062.81   84.11
   3  -7  -5 2969.82  100.23
  -3   7   5 2699.37   65.55
  -3   7   5 2938.68   72.03
  -3   7   5 2994.21   94.05
   3  -7  -4 2120.31  108.00
   3  -7  -4 2445.92  140.43
  -3   7   4 2080.94   82.80
  -3   7   4 2228.69   88.30
  -3   7   4 2328.49   99.94
   3  -7  -3   -4.92   17.78
  -3   7   3   17.89   10.84
  -3   7   3   10.06   13.05
   3  -7  -2  757.13   44.11
  -3   7   2  768.09   47.64
  -3   7   2  785.57   43.72
   3  -7  -1 1955.77   72.08
  -3   7   1 2065.36   76.33
  -3   7   1 1786.49   65.31
   3  -7   0  826.92   42.17
  -3   7   0  767.30   62.49
  -3   7   0  773.25   37.53
   3  -7   1  885.98   34.38
   3  -7   1  895.09   43.44
   3  -7   1  872.88   33.76
   3  -7   1  861.57   37.87
  -3   7  -1  917.26   43.61
  -3   7  -1  858.91   37.63
   3  -7   2   27.52    6.01
   3  -7   2   27.84   11.75
   3  -7   2   26.81    4.85
   3  -7   2   19.88    4.81
  -3   7  -2   15.03   10.85
  -3   7  -2   26.31    9.13
   3  -7   3  965.42   39.21
   3  -7   3  853.38   39.95
   3  -7   3  835.21   35.05
  -3   7  -3  887.06   39.51
  -3   7  -3  885.13   40.66
   3  -7   4  682.63   34.20
   3  -7   4  740.40   65.09
   3  -7   4  696.41   34.02
  -3   7  -4  712.42   21.96
  -3   7  -4  743.67   32.09
  -3   7  -4  653.90   36.73
   3  -7   5  513.80   28.42
   3  -7   5  560.61   35.96
   3  -7   5  500.20   27.75
  -3   7  -5  518.31   30.26
  -3   7  -5  517.60   35.04
   3  -7   6   13.97    6.84
   3  -7   6   13.81   15.26
  -3   7  -6   14.79    9.28
   3  -7   7 1834.06   89.55
  -3   7  -7 1643.48   73.99
  -3   7  -7 1586.87   78.13
   3  -7   8 1214.56   93.69
  -3   7  -8 1370.07   65.81
  -3   7  -8 1355.47   90.21
   3  -7   9 1719.75   77.51
  -3   7  -9 1807.29   79.59
  -3   7  -9 1706.93   78.70
   3  -7  10 2234.46  113.45
  -3   7 -10 2139.90  107.05
  -3   7 -10 2116.56   86.60
   3  -7  11  419.62   28.80
  -3   7 -11  458.74   38.29
  -3   7 -11  427.72   19.23
   3  -7  12  127.52   39.76
  -3   7 -12  109.94   66.79
  -3   7 -12   90.68   22.45
   3  -7  13  137.86   64.92
  -3   7 -13  185.54   46.41
  -3   7 -13  162.44   41.28
   3  -7  14  -15.45   21.53
  -3   7 -14   -1.31   12.78
  -3   7 -14   13.63   13.95
   3  -7  15  194.53   67.60
  -3   7 -15  224.68   73.13
  -3   7 -15  180.49   45.14
   3  -7  16   76.98   32.56
  -3   7 -16   53.56   23.06
   3  -7  17   93.96   32.47
  -3   7 -17   64.48   33.76
  -3   7 -18   38.02   26.34
   3  -7  19  165.86   60.95
  -3   7 -19  107.22   58.19
   3  -6 -17   34.15   34.84
  -3   6  17   72.76   33.23
   3  -6 -16   43.09   16.44
   3  -6 -16   51.96   21.49
  -3   6  16   64.57   31.81
   3  -6 -15   48.64   29.46
   3  -6 -15   31.68   16.28
  -3   6  15   34.06   20.70
  -3   6  15   80.04   33.14
   3  -6 -14  270.89   40.20
   3  -6 -14  255.76   78.42
  -3   6  14  226.10   38.19
  -3   6  14  215.22   86.25
   3  -6 -13    7.60    9.20
   3  -6 -13   10.57   10.78
  -3   6  13    2.73    5.69
  -3   6  13   18.20   26.42
   3  -6 -12  334.09   56.00
   3  -6 -12  316.60   28.24
  -3   6  12  267.99   67.16
  -3   6  12  276.40   71.79
   3  -6 -11 2891.02  100.08
   3  -6 -11 2947.43  148.18
  -3   6  11 2735.76  100.02
  -3   6  11 2841.39  103.61
   3  -6 -10 2368.95   84.81
   3  -6 -10 2371.02  128.70
  -3   6  10 2141.77   71.67
  -3   6  10 2243.23  107.47
   3  -6  -9  588.86   62.57
   3  -6  -9  584.14   35.05
  -3   6   9  513.46   38.05
  -3   6   9  592.60   35.57
   3  -6  -8  295.03   33.25
   3  -6  -8  339.92   26.45
  -3   6   8  217.03   27.06
  -3   6   8  295.65   39.56
  -3   6   8  276.64   22.07
   3  -6  -7  108.90   23.19
   3  -6  -7  118.58   27.29
  -3   6   7   68.95   13.90
  -3   6   7   85.29   16.84
  -3   6   7   54.37   21.17
   3  -6  -6  709.05   63.76
   3  -6  -6  772.84   51.89
  -3   6   6  733.77   45.15
  -3   6   6  734.42   43.05
  -3   6   6  858.12   69.54
   3  -6  -5 3929.07  108.72
   3  -6  -5 3631.90  115.83
  -3   6   5 3694.18   88.41
  -3   6   5 3891.60   92.18
  -3   6   5 3983.50  105.87
   3  -6  -4 2979.58   76.96
   3  -6  -4 2976.52   87.48
  -3   6   4 2933.82   68.26
  -3   6   4 3081.96   72.36
  -3   6   4 3096.32   85.78
   3  -6  -3  465.06   38.53
  -3   6   3  525.31   30.05
  -3   6   3  487.67   27.98
   3  -6  -2  933.40   50.39
  -3   6   2  977.65   44.94
  -3   6   2  957.90   60.76
   3  -6  -1 3400.60  102.76
  -3   6   1 3366.83   99.16
  -3   6   1 3383.54  104.12
   3  -6   0   99.94   22.59
   3  -6   0   96.05   20.78
  -3   6   0  109.64   20.91
  -3   6   0  106.43   27.39
   3  -6   1 5032.46   99.84
   3  -6   1 4753.94   79.91
   3  -6   1 4610.69   76.77
   3  -6   1 5011.71   88.18
  -3   6  -1 4859.03   87.83
   3  -6   2  351.17   18.04
   3  -6   2  356.74   27.85
   3  -6   2  349.65   18.26
   3  -6   2  346.07   18.77
  -3   6  -2  357.92   22.35
  -3   6  -2  337.92   25.18
   3  -6   3 1573.83   52.05
   3  -6   3 1643.36   69.38
   3  -6   3 1619.70   54.76
   3  -6   3 1636.10   53.60
  -3   6  -3 1610.22   58.71
  -3   6  -3 1592.08   53.17
   3  -6   4 2491.61   70.35
   3  -6   4 2517.64   79.78
   3  -6   4 2592.21   78.74
   3  -6   4 2561.22   71.68
  -3   6  -4 2400.56   74.36
  -3   6  -4 2540.69   73.04
   3  -6   5 3840.07  104.99
   3  -6   5 4189.10   73.29
   3  -6   5 4132.78   78.21
  -3   6  -5 4118.41   79.69
  -3   6  -5 4124.54   77.70
   3  -6   6  649.17   32.74
   3  -6   6  691.29   34.46
   3  -6   6  642.51   35.46
  -3   6  -6  685.54   39.40
  -3   6  -6  658.36   37.70
   3  -6   7  262.51   28.22
   3  -6   7  269.37   13.76
  -3   6  -7  283.34   26.02
  -3   6  -7  285.44   35.14
   3  -6   8  866.90   57.35
   3  -6   8  749.51   37.52
  -3   6  -8  732.17   46.23
  -3   6  -8  827.62   72.33
   3  -6   9 2890.81   81.54
   3  -6   9 2732.95   62.58
  -3   6  -9 2934.46   92.73
  -3   6  -9 2857.54   89.74
   3  -6  10 2343.85   73.75
   3  -6  10 2295.03   13.84
  -3   6 -10 2364.07   74.37
  -3   6 -10 2316.79   78.18
   3  -6  11 1115.67   60.32
   3  -6  11  893.14   44.08
  -3   6 -11  991.19   56.34
  -3   6 -11  915.32   56.30
   3  -6  12  319.49   26.42
   3  -6  12  295.67   13.50
  -3   6 -12  308.60   33.74
  -3   6 -12  321.16   28.14
   3  -6  13  967.60  103.23
  -3   6 -13  975.17   48.99
  -3   6 -13 1066.35   59.18
   3  -6  14  849.42   74.08
  -3   6 -14  877.46   74.78
  -3   6 -14  863.78   36.36
   3  -6  15  106.10   50.67
  -3   6 -15   98.24   39.14
  -3   6 -15  101.85   38.87
   3  -6  16   61.90   28.62
  -3   6 -16   49.50   24.68
   3  -6  17    2.72   13.90
  -3   6 -17   27.08   20.08
   3  -6  18   71.86   26.09
  -3   6 -18   55.67   28.44
   3  -6  19  147.47   46.36
  -3   6 -19   81.50   58.12
   3  -5 -18   77.85   38.84
  -3   5  18   24.96   24.63
   3  -5 -17   18.21   13.93
   3  -5 -17   12.13   14.85
  -3   5  17   20.45   12.70
  -3   5  17   14.92   19.85
   3  -5 -16   27.75   11.58
   3  -5 -16   77.47   32.30
  -3   5  16   15.02   21.14
  -3   5  16   64.83   42.65
   3  -5 -15   33.99   19.81
   3  -5 -15   29.76   14.90
  -3   5  15   26.59   19.73
  -3   5  15   30.57   12.63
   3  -5 -14  567.29   25.75
   3  -5 -14  565.30   65.10
  -3   5  14  543.82   48.82
  -3   5  14  566.10   48.35
   3  -5 -13   11.87    8.21
   3  -5 -13   35.64   11.66
  -3   5  13   24.29   17.99
  -3   5  13   19.62   12.58
   3  -5 -12  552.49   27.12
   3  -5 -12  535.78   31.21
  -3   5  12  547.21   29.15
  -3   5  12  558.82   42.83
   3  -5 -11 1370.26   66.40
   3  -5 -11 1405.25   64.21
  -3   5  11 1406.51   55.34
  -3   5  11 1299.53  107.32
   3  -5 -10 1187.18   52.44
   3  -5 -10 1292.01   59.07
  -3   5  10 1149.58   56.24
  -3   5  10 1192.69   65.94
   3  -5  -9 1070.53   77.11
   3  -5  -9  944.70   55.43
  -3   5   9  959.42   52.19
  -3   5   9  934.15   59.64
   3  -5  -8    8.30    9.55
   3  -5  -8    8.78   10.81
  -3   5   8    0.63    3.40
  -3   5   8   10.14   11.30
  -3   5   8   10.04   10.82
   3  -5  -7  316.08   26.22
   3  -5  -7  358.83   68.29
  -3   5   7  230.47   21.98
  -3   5   7  290.29   30.40
  -3   5   7  348.48   72.78
   3  -5  -6 2009.37   86.95
   3  -5  -6 1864.78   83.59
  -3   5   6 1733.03   73.49
  -3   5   6 1850.83   79.13
  -3   5   6 1873.64   97.90
   3  -5  -5 2130.36   76.63
   3  -5  -5 1995.07   67.85
  -3   5   5 1878.49   62.30
  -3   5   5 1929.89   66.15
  -3   5   5 1887.83   66.91
   3  -5  -4 6203.09  112.60
   3  -5  -4 6324.53  115.39
  -3   5   4 6085.76  100.80
  -3   5   4 6091.54  101.70
  -3   5   4 6563.34  120.83
   3  -5  -3   63.05   15.29
   3  -5  -3   51.53   12.35
  -3   5   3   53.85    9.98
  -3   5   3   57.53    8.31
  -3   5   3   74.11   21.89
   3  -5  -2  768.33   33.79
  -3   5   2  758.06   32.78
  -3   5   2  743.13   33.26
  -3   5   2  769.83   36.99
   3  -5  -1  283.63   18.66
   3  -5  -1  309.88   15.91
  -3   5   1  265.48   15.60
  -3   5   1  272.15   17.87
  -3   5   1  269.54   21.08
   3  -5   0  830.83   26.65
   3  -5   0  839.52   32.19
   3  -5   0  857.08   33.59
   3  -5   0  816.66   30.25
   3  -5   0  828.57   26.88
  -3   5   0  844.97   34.90
  -3   5   0  834.04   31.58
  -3   5   0  834.88   32.69
   3  -5   1 1004.85   34.72
   3  -5   1  995.62   38.74
   3  -5   1 1005.30   35.74
   3  -5   1 1066.14   40.34
   3  -5   1 1022.93   34.33
   3  -5   1  997.12   35.65
  -3   5  -1  958.79   37.99
  -3   5  -1  993.34   36.12
   3  -5   2   96.88   16.98
   3  -5   2   78.86   29.06
   3  -5   2   67.76   27.27
   3  -5   2  113.80   25.55
   3  -5   2   79.00    7.36
   3  -5   2   87.84   18.93
  -3   5  -2   87.43   12.12
  -3   5  -2   83.89   15.02
   3  -5   3 1055.66   37.75
   3  -5   3 1108.71   40.57
   3  -5   3 1098.96   42.29
   3  -5   3 1122.69   22.09
   3  -5   3 1080.47   39.14
   3  -5   3 1083.88   36.93
  -3   5  -3 1107.66   42.53
  -3   5  -3 1112.18   39.46
   3  -5   4 3203.78   97.74
   3  -5   4 3173.91   95.43
   3  -5   4 3256.29   91.15
   3  -5   4 3126.28   91.46
  -3   5  -4 3374.27   42.11
  -3   5  -4 2996.15   85.04
  -3   5  -4 3071.42   92.26
   3  -5   5 3029.65   89.94
   3  -5   5 2885.48   85.64
   3  -5   5 2875.31   79.94
   3  -5   5 2761.72   84.69
   3  -5   5 2921.92   80.28
  -3   5  -5 2803.27   81.02
  -3   5  -5 2976.95  100.81
   3  -5   6  375.57   21.85
   3  -5   6  353.21   20.23
   3  -5   6  348.02   23.53
   3  -5   6  371.43   22.15
  -3   5  -6  362.68   33.93
  -3   5  -6  380.87   22.85
   3  -5   7  303.03   12.99
   3  -5   7  268.10   25.28
   3  -5   7  289.06   28.18
   3  -5   7  261.74   15.70
  -3   5  -7  291.89   40.83
  -3   5  -7  283.11   34.85
   3  -5   8 1460.28   59.40
   3  -5   8 1430.22   59.17
   3  -5   8 1751.38  120.78
  -3   5  -8 1428.01   66.10
  -3   5  -8 1374.69   66.64
   3  -5   9 3852.74   91.83
   3  -5   9 3843.54   89.77
   3  -5   9 3972.84  111.52
  -3   5  -9 4151.91  125.96
  -3   5  -9 4101.97  107.26
   3  -5  10 1260.78   60.52
   3  -5  10 1126.80   50.61
  -3   5 -10 1198.03   54.07
  -3   5 -10 1136.13   70.22
  -3   5 -10 1089.75   49.51
   3  -5  11 3373.51  173.34
   3  -5  11 3187.18  113.51
  -3   5 -11 2733.68  107.24
  -3   5 -11 3249.18  123.39
  -3   5 -11 3180.61  113.75
   3  -5  12   38.20   20.90
   3  -5  12   11.94    7.95
  -3   5 -12   14.46    7.17
  -3   5 -12    9.01    7.86
   3  -5  13 2010.22  138.92
   3  -5  13 2045.15   70.92
  -3   5 -13 2264.73   85.62
  -3   5 -13 2167.82   78.36
   3  -5  14  717.77   55.62
  -3   5 -14  807.43   64.03
  -3   5 -14  736.73   38.29
   3  -5  15  500.13  118.68
  -3   5 -15  626.02   74.69
   3  -5  16  286.87   80.32
  -3   5 -16  254.21   57.28
   3  -5  17   11.94   15.31
  -3   5 -17   27.00   22.82
   3  -5  18  242.64   97.13
  -3   5 -18  393.90   48.53
   3  -5  19  440.64   85.46
  -3   5 -19  402.31  130.61
   3  -4 -19  142.14   86.54
  -3   4  19  258.68   38.83
   3  -4 -18   82.31   28.91
  -3   4  18   45.58   37.60
   3  -4 -17   77.99   32.93
   3  -4 -17  101.43   38.17
  -3   4  17   56.15   40.56
  -3   4  17   87.02   34.77
   3  -4 -16   90.17   27.93
   3  -4 -16   26.01   19.17
  -3   4  16   35.74   30.97
  -3   4  16   39.28   23.89
   3  -4 -15  325.44   61.17
   3  -4 -15  395.88   32.96
  -3   4  15  395.45   54.40
  -3   4  15  371.34   36.30
   3  -4 -14   68.54   18.62
   3  -4 -14   96.05   27.81
  -3   4  14   79.63   29.36
   3  -4 -13   24.40   17.73
   3  -4 -13   19.20    9.84
  -3   4  13   28.03   15.56
  -3   4  13   14.94   31.47
   3  -4 -12   90.84   29.06
   3  -4 -12   86.02   24.33
  -3   4  12   87.31   34.02
  -3   4  12   51.49   22.42
   3  -4 -11  287.45   35.24
   3  -4 -11  270.01   54.32
  -3   4  11  251.06   32.23
  -3   4  11  282.95   64.82
   3  -4 -10  680.02   30.17
   3  -4 -10  685.10   37.78
  -3   4  10  716.56   49.93
  -3   4  10  698.40   50.83
   3  -4  -9 1477.12   65.79
   3  -4  -9 1539.94   79.72
  -3   4   9 1497.03   64.25
  -3   4   9 1561.08   72.63
   3  -4  -8   10.96   10.69
   3  -4  -8   -3.82   15.76
   3  -4  -8    5.59    7.51
  -3   4   8   42.40   14.97
  -3   4   8   -0.74   22.57
   3  -4  -7  674.96   37.62
   3  -4  -7  756.48   46.98
   3  -4  -7  687.49   47.21
  -3   4   7  658.61   40.32
  -3   4   7  672.50   48.17
   3  -4  -6 9495.53  169.47
   3  -4  -6 9147.94  161.87
   3  -4  -6 9368.51  162.26
  -3   4   6 9279.42  157.15
  -3   4   6 9953.24  181.16
   3  -4  -5 2149.13   76.92
   3  -4  -5 2023.17   67.28
  -3   4   5 2109.35   69.70
  -3   4   5 2058.13   73.41
  -3   4   5 2133.80   74.54
   3  -4  -4  271.47   40.77
   3  -4  -4  226.32   12.89
   3  -4  -4  226.75   17.06
  -3   4   4  217.48   16.22
  -3   4   4  216.31   26.41
  -3   4   4  223.97   16.34
   3  -4  -3  435.70   22.37
   3  -4  -3  433.12   34.72
   3  -4  -3  415.41   17.18
  -3   4   3  410.32   16.28
  -3   4   3  389.04   25.34
  -3   4   3  439.08   30.42
   3  -4  -2  811.32   38.30
   3  -4  -2  871.92   53.79
   3  -4  -2  893.07   36.71
   3  -4  -2  901.68   33.51
   3  -4  -2  874.18   28.65
  -3   4   2  867.50   29.60
  -3   4   2  858.27   34.52
  -3   4   2  939.98   39.18
   3  -4  -1 5662.02   94.84
   3  -4  -1 5575.50   94.60
   3  -4  -1 5750.19   96.58
   3  -4  -1 5648.16   88.11
  -3   4   1 5787.66  105.50
  -3   4   1 5782.36   91.05
  -3   4   1 5539.94   93.59
  -3   4   1 5520.46   92.34
   3  -4   0  233.67   28.16
   3  -4   0  206.54   25.27
   3  -4   0  188.15   14.46
   3  -4   0  197.77   11.31
  -3   4   0  187.10   16.87
  -3   4   0  197.86   11.95
  -3   4   0  211.21   33.65
  -3   4   0  195.90    9.15
   3  -4   1  439.55   17.31
   3  -4   1  387.75   22.60
   3  -4   1  416.48   18.12
   3  -4   1  433.82   20.38
   3  -4   1  409.15   20.67
   3  -4   1  457.81   19.28
  -3   4  -1  420.15   20.49
  -3   4  -1  436.16   24.42
   3  -4   2    9.86    7.86
   3  -4   2   13.11    9.09
   3  -4   2    6.58    7.53
   3  -4   2   10.28    8.72
   3  -4   2    5.22    9.19
   3  -4   2   12.62    7.35
  -3   4  -2    7.11    7.72
  -3   4  -2    7.23    3.75
   3  -4   3 1424.76   42.83
   3  -4   3 1372.48   44.41
   3  -4   3 1439.63   44.55
   3  -4   3 1483.69   47.69
   3  -4   3 1469.48   48.14
  -3   4  -3 1459.16   46.16
  -3   4  -3 1445.45   45.80
  -3   4  -3 1361.25   42.47
   3  -4   4 1398.91   43.42
   3  -4   4 1525.81   45.69
   3  -4   4 1428.62   43.17
   3  -4   4 1445.56   47.33
   3  -4   4 1612.74   69.80
   3  -4   4 1451.72   42.82
  -3   4  -4 1563.88   51.10
  -3   4  -4 1606.19   52.81
   3  -4   5 1178.41   66.54
   3  -4   5 1124.84   45.38
   3  -4   5 1156.39   48.81
   3  -4   5 1157.20   48.14
   3  -4   5 1177.02   47.43
  -3   4  -5 1181.02   52.04
  -3   4  -5 1092.74   47.69
   3  -4   6  500.35   25.81
   3  -4   6  496.63   24.99
   3  -4   6  559.04   55.34
   3  -4   6  483.85   26.24
  -3   4  -6  527.94   29.06
  -3   4  -6  551.76   31.08
   3  -4   7 1173.94   49.23
   3  -4   7 1214.55   51.69
   3  -4   7 1259.03   56.76
   3  -4   7 1173.40   52.18
  -3   4  -7 1211.44   69.06
  -3   4  -7 1167.44   50.86
   3  -4   8  161.38   31.15
   3  -4   8  128.45   14.49
   3  -4   8  125.93   95.98
  -3   4  -8  178.26   35.91
  -3   4  -8  140.16   18.81
  -3   4  -8  129.97   15.12
   3  -4   9 2891.24   74.86
   3  -4   9 3161.69   79.50
   3  -4   9 2909.55  128.95
  -3   4  -9 2954.12   92.08
  -3   4  -9 2998.88   76.35
  -3   4  -9 2819.70   73.93
   3  -4  10 3882.71  111.57
   3  -4  10 3901.23  115.97
   3  -4  10 4142.72  121.00
  -3   4 -10 3830.30  123.28
  -3   4 -10 3969.85  108.33
  -3   4 -10 3827.14  108.14
   3  -4  11   69.01   26.97
   3  -4  11   59.19   13.00
   3  -4  11   94.05   27.47
  -3   4 -11   96.67   23.67
  -3   4 -11   63.26   14.10
  -3   4 -11   49.24   12.80
   3  -4  12   47.06   13.98
   3  -4  12   34.37   11.89
  -3   4 -12   44.70   16.85
  -3   4 -12   13.92   10.08
   3  -4  13   91.92   43.93
   3  -4  13   62.72   27.83
  -3   4 -13   55.38   18.01
  -3   4 -13  104.18   25.72
   3  -4  14  504.96   31.05
   3  -4  14  576.43   45.51
  -3   4 -14  566.61   78.63
   3  -4  15  721.28   49.93
  -3   4 -15  688.24   49.61
   3  -4  16  139.32   44.13
  -3   4 -16   91.85   47.97
   3  -4  17   25.26   22.50
  -3   4 -17   18.63   11.40
   3  -4  18   35.96   14.82
  -3   4 -18   38.78   32.21
   3  -4  19  257.14   85.28
  -3   4 -19  150.67   50.64
  -3   3  20  609.67  113.94
  -3   3  20  778.10   68.66
   3  -3 -19  323.83   50.61
  -3   3  19  234.99   83.49
  -3   3  19  312.02   36.37
   3  -3 -18  401.04   45.73
   3  -3 -18  521.99   41.34
  -3   3  18  362.53   69.92
  -3   3  18  421.01   69.22
   3  -3 -17   45.83   19.47
   3  -3 -17   51.22   17.01
  -3   3  17   45.74   19.64
  -3   3  17   51.15   16.25
   3  -3 -16  338.50   75.54
   3  -3 -16  338.44   54.14
  -3   3  16  359.42   54.56
  -3   3  16  323.30   40.86
   3  -3 -15  897.10   32.36
   3  -3 -15  778.27   69.04
  -3   3  15  869.17   55.14
  -3   3  15  750.72   68.92
   3  -3 -14  558.55   31.22
   3  -3 -14  598.83   43.62
  -3   3  14  568.13   41.18
  -3   3  14  590.88   51.81
   3  -3 -13    9.43   23.29
   3  -3 -13   63.40   21.38
  -3   3  13   40.95   20.07
  -3   3  13   38.73   21.38
   3  -3 -12  389.20   48.31
   3  -3 -12  298.32   32.27
  -3   3  12  295.50   34.75
  -3   3  12  275.91   22.09
   3  -3 -11  140.45   35.34
   3  -3 -11  172.34   44.72
  -3   3  11  129.70   26.35
  -3   3  11  137.32   40.57
   3  -3 -10  590.82   33.35
   3  -3 -10  551.46   31.42
  -3   3  10  541.05   50.31
  -3   3  10  526.86   38.95
   3  -3  -9  871.91   54.10
   3  -3  -9  879.44   78.33
  -3   3   9  876.75   59.13
  -3   3   9  753.16   46.51
   3  -3  -8   69.20   19.07
   3  -3  -8   47.69   29.67
  -3   3   8   23.17   13.06
  -3   3   8   22.22   23.98
   3  -3  -7 1194.54   54.79
   3  -3  -7 1075.66   48.65
   3  -3  -7 1017.74   44.94
  -3   3   7 1018.85   50.28
  -3   3   7 1157.41   54.03
   3  -3  -6 8502.11  150.14
   3  -3  -6 8369.92  145.19
   3  -3  -6 8253.93  141.38
  -3   3   6 8529.94  144.24
  -3   3   6 8338.26  142.63
  -3   3   6 7936.03  142.62
   3  -3  -5 8184.24  133.85
   3  -3  -5 8104.33  130.86
  -3   3   5 8082.36  128.96
  -3   3   5 8367.22  135.37
  -3   3   5 8126.56  136.39
   3  -3  -4 4063.30   74.42
   3  -3  -4 3924.11   66.83
   3  -3  -4 3887.07   68.00
  -3   3   4 3851.22   65.12
  -3   3   4 3724.42   65.46
  -3   3   4 3861.55   72.13
   3  -3  -3  242.09   20.94
   3  -3  -3  255.62   25.95
   3  -3  -3  220.18   11.84
   3  -3  -3  195.71   16.25
   3  -3  -3  227.98    9.47
  -3   3   3  227.20   15.24
  -3   3   3  248.09   50.46
  -3   3   3  257.22   11.67
   3  -3  -2 1291.39   49.68
   3  -3  -2 1312.53   43.71
   3  -3  -2 1266.66   40.27
   3  -3  -2 1219.14   50.52
   3  -3  -2 1241.21   39.41
  -3   3   2 1238.34   39.48
  -3   3   2 1294.23   44.96
  -3   3   2 1203.38   38.42
   3  -3  -1 7101.01   75.83
   3  -3  -1 7039.23   80.39
   3  -3  -1 7135.87   70.28
   3  -3  -1 7178.76   74.49
  -3   3   1 7149.34   64.69
  -3   3   1 7052.47   67.74
  -3   3   1 7249.62   63.09
   3  -3   0 9510.69   82.27
   3  -3   0 9730.34   88.79
   3  -3   0 9774.52   86.98
   3  -3   0 9644.20   84.24
   3  -3   0 9641.46   87.16
  -3   3   0 9840.19   91.84
  -3   3   0 9418.82   80.05
  -3   3   0 9877.95   93.22
   3  -3   1  131.64    8.27
   3  -3   1  131.67    9.60
   3  -3   1  139.28   25.09
   3  -3   1  126.61    8.24
   3  -3   1  128.36   18.91
  -3   3  -1  106.97    7.64
  -3   3  -1  109.79    9.41
  -3   3  -1  163.21   28.92
   3  -3   2   -0.19    5.85
   3  -3   2   12.80    5.75
   3  -3   2   11.95    5.93
   3  -3   2    4.62    4.16
  -3   3  -2   12.78    8.35
  -3   3  -2   13.43    7.11
  -3   3  -2   15.24   10.82
  -3   3  -2   11.19    6.81
   3  -3   3  335.78   14.34
   3  -3   3  296.66   12.40
   3  -3   3  305.38   13.16
   3  -3   3  333.18   23.11
   3  -3   3  339.73   41.60
   3  -3   3  327.42   13.09
  -3   3  -3  331.24   27.28
  -3   3  -3  315.53   16.25
   3  -3   4 3891.30   67.50
   3  -3   4 4048.96   67.41
   3  -3   4 3977.62   67.86
   3  -3   4 3970.13   68.96
   3  -3   4 4076.67   79.39
   3  -3   4 4194.51   71.95
  -3   3  -4 3977.66   67.78
  -3   3  -4 3975.70   79.84
   3  -3   5  367.97   21.49
   3  -3   5  373.45   20.80
   3  -3   5  416.43   23.24
   3  -3   5  463.20   25.97
  -3   3  -5  367.33   29.19
  -3   3  -5  366.72   19.16
   3  -3   6  352.17   19.48
   3  -3   6  346.25   18.02
   3  -3   6  406.98   51.10
  -3   3  -6  358.23   28.57
  -3   3  -6  349.00   24.85
  -3   3  -6  320.57   17.60
   3  -3   7   49.25   11.46
   3  -3   7   61.32   10.31
   3  -3   7   63.05   31.07
  -3   3  -7   46.66   11.76
  -3   3  -7   51.95   11.22
  -3   3  -7   35.63   19.91
   3  -3   8  910.23   46.28
   3  -3   8  784.57   40.67
   3  -3   8  931.63   68.55
  -3   3  -8  848.43   46.85
  -3   3  -8  829.71   45.01
  -3   3  -8  818.01   43.99
   3  -3   9 1480.15   69.49
   3  -3   9 1570.75   69.45
   3  -3   9 1538.93  105.04
  -3   3  -9 1429.12   83.39
  -3   3  -9 1493.26   68.64
  -3   3  -9 1459.76   67.47
   3  -3  10   48.97    9.43
   3  -3  10   29.41    8.85
   3  -3  10   30.14   18.25
  -3   3 -10   41.03   16.00
  -3   3 -10   39.47   13.81
   3  -3  11   25.91   12.76
   3  -3  11    1.39    3.58
   3  -3  11   -0.66   14.34
  -3   3 -11   23.72    8.37
  -3   3 -11    4.27    6.43
   3  -3  12  410.22   97.07
   3  -3  12  382.46   25.94
  -3   3 -12  364.90   17.94
  -3   3 -12  359.75   30.88
   3  -3  13  333.91   34.17
   3  -3  13  374.91   78.33
  -3   3 -13  373.02   36.28
   3  -3  14  867.78   53.92
   3  -3  14 1169.32   70.73
  -3   3 -14 1051.95   68.25
   3  -3  15  755.12   42.94
   3  -3  15  702.54   92.24
  -3   3 -15  973.78  103.55
   3  -3  16  121.44   48.14
  -3   3 -16  106.40   34.77
   3  -3  17   13.16   16.55
  -3   3 -17   27.24   13.93
   3  -3  18   11.80   17.68
  -3   3 -18   17.92   25.90
   3  -2 -20  769.83   58.09
  -3   2  20  622.95  100.72
   3  -2 -19   91.37   54.16
  -3   2  19  177.84   45.87
  -3   2  19  104.03   46.73
   3  -2 -18   55.18   24.00
  -3   2  18   59.00   42.14
  -3   2  18   86.78   38.87
   3  -2 -17    7.34   10.19
   3  -2 -17    3.62   11.53
  -3   2  17   29.54   14.91
   3  -2 -16  448.74   53.45
   3  -2 -16  522.56   64.64
  -3   2  16  470.91   43.04
  -3   2  16  621.92   37.08
   3  -2 -15 1333.85   62.09
   3  -2 -15 1136.48   69.79
  -3   2  15 1095.36   88.82
  -3   2  15 1143.97   64.94
   3  -2 -14  248.46   27.89
   3  -2 -14  347.65   56.90
  -3   2  14  290.66   40.79
  -3   2  14  342.01   27.39
   3  -2 -13  163.87   38.23
   3  -2 -13  158.11   40.73
  -3   2  13  137.99   35.78
  -3   2  13  142.18   40.18
   3  -2 -12 2544.20   99.17
   3  -2 -12 2725.79   99.63
  -3   2  12 2833.64  104.37
  -3   2  12 2601.88  122.40
   3  -2 -11 2544.53   79.16
   3  -2 -11 2662.89   80.34
  -3   2  11 2440.94   88.27
  -3   2  11 2441.07   88.85
   3  -2 -10 3425.74   98.13
   3  -2 -10 3267.55  101.93
  -3   2  10 3403.21   88.41
  -3   2  10 3394.49   95.23
   3  -2  -9  319.56   40.08
   3  -2  -9  354.36   40.25
  -3   2   9  318.54   25.81
  -3   2   9  356.87   36.39
   3  -2  -8  452.88   39.98
   3  -2  -8  433.55   25.82
  -3   2   8  515.23   34.69
  -3   2   8  482.58   57.93
   3  -2  -7  571.58   31.18
   3  -2  -7  539.26   29.16
   3  -2  -7  549.80   37.07
  -3   2   7  538.18   42.27
  -3   2   7  523.17   36.83
  -3   2   7  624.22   37.71
   3  -2  -6 8521.15  151.16
   3  -2  -6 8577.31  144.44
   3  -2  -6 8313.20  145.16
  -3   2   6 8635.52  147.88
  -3   2   6 8441.92  142.54
  -3   2   6 8562.07  150.41
   3  -2  -5 9029.88  143.10
   3  -2  -5 8634.62  138.73
  -3   2   5 8956.84  143.17
  -3   2   5 8725.97  141.23
  -3   2   5 8939.08  148.38
   3  -2  -4 2993.93   86.33
   3  -2  -4 3093.39   88.50
   3  -2  -4 3157.43   89.52
   3  -2  -4 3076.48   89.12
  -3   2   4 3080.84   90.08
  -3   2   4 2987.35   85.78
  -3   2   4 2992.94   96.25
  -3   2   4 3011.10   85.40
   3  -2  -3   11.22    9.92
   3  -2  -3    1.72    3.06
   3  -2  -3   -0.41    3.03
   3  -2  -3    2.82    3.74
  -3   2   3    3.93    3.66
  -3   2   3   11.38    8.60
  -3   2   3   10.47    8.53
  -3   2   3    4.93    3.79
   3  -2  -2  398.87   24.83
   3  -2  -2  384.56   19.09
   3  -2  -2  369.62   14.95
   3  -2  -2  427.05   18.62
  -3   2   2  372.92   23.55
  -3   2   2  388.55   16.37
  -3   2   2  371.54   32.46
  -3   2   2  369.16   19.53
   3  -2  -1 2006.48   47.35
   3  -2  -1 2067.72   48.60
   3  -2  -1 1959.39   42.99
   3  -2  -1 1985.16   43.05
   3  -2  -1 1929.60   41.05
   3  -2  -1 2019.19   52.36
  -3   2   1 2009.89   43.46
  -3   2   1 1989.47   53.88
   3  -2   014477.76  122.37
   3  -2   014530.35  127.32
   3  -2   015045.35  123.24
   3  -2   014821.75  121.70
  -3   2   014444.81  120.57
  -3   2   014463.63  125.53
   3  -2   1  788.94   30.66
   3  -2   1  765.44   26.04
   3  -2   1  761.55   24.55
   3  -2   1  776.69   26.17
   3  -2   1  757.83   27.95
  -3   2  -1  775.00   25.78
  -3   2  -1  748.90   28.44
  -3   2  -1  770.74   27.06
   3  -2   2  863.29   32.58
   3  -2   2  920.97   31.59
   3  -2   2  880.90   31.13
   3  -2   2 1029.54   34.61
   3  -2   2  973.78   40.27
  -3   2  -2  943.66   34.63
  -3   2  -2  972.04   33.89
  -3   2  -2  913.94   30.11
   3  -2   3  192.42    9.29
   3  -2   3  187.90   15.31
   3  -2   3  181.53    9.14
   3  -2   3  207.08   10.79
   3  -2   3  198.87   17.75
  -3   2  -3  176.03   10.95
  -3   2  -3  211.36   24.18
  -3   2  -3  173.99   13.28
   3  -2   4  103.12   15.22
   3  -2   4   89.08   12.36
   3  -2   4  112.37   23.50
   3  -2   4   99.72   24.21
  -3   2  -4   90.97    7.72
  -3   2  -4   93.97   31.88
  -3   2  -4  111.08   13.90
  -3   2  -4   83.70   12.79
   3  -2   5 3516.57   99.77
   3  -2   5 3512.84   97.32
   3  -2   5 3554.20  107.15
  -3   2  -5 3512.04   99.58
  -3   2  -5 3537.16   97.18
  -3   2  -5 3556.73  105.62
   3  -2   6  167.42   14.86
   3  -2   6  135.70    8.03
   3  -2   6  121.85   14.70
  -3   2  -6  209.34   41.96
  -3   2  -6  137.64   16.00
  -3   2  -6  147.28   15.36
   3  -2   7  892.54   49.69
   3  -2   7  862.71   16.27
   3  -2   7  908.47   43.98
  -3   2  -7  959.61   60.71
  -3   2  -7  832.60   42.24
  -3   2  -7  845.20   44.92
   3  -2   8 1395.73   68.36
   3  -2   8 1372.26   55.95
   3  -2   8 1471.76   68.04
  -3   2  -8 1338.07   71.52
  -3   2  -8 1285.52   54.29
   3  -2   9 1367.68   70.97
   3  -2   9 1431.22   64.69
   3  -2   9 1406.48  102.71
  -3   2  -9 1345.75   66.37
  -3   2  -9 1377.39   62.59
   3  -2  10  649.33   43.91
   3  -2  10  672.97   34.10
   3  -2  10  645.79   49.49
  -3   2 -10  691.33   63.70
  -3   2 -10  656.09   32.65
   3  -2  11   20.28    8.74
   3  -2  11   16.27    9.36
  -3   2 -11    9.01    8.92
  -3   2 -11    8.31    8.73
   3  -2  12  181.66   69.26
   3  -2  12  201.93   29.14
  -3   2 -12  220.59   25.18
  -3   2 -12  261.14   65.03
   3  -2  13  184.07   50.54
   3  -2  13  253.38   60.54
  -3   2 -13  288.63   52.94
   3  -2  14 1734.24   72.69
   3  -2  14 1785.02   77.24
  -3   2 -14 1814.18   82.96
   3  -2  15 1028.77   56.84
   3  -2  15 1227.82   76.80
  -3   2 -15 1167.72   70.86
   3  -2  16  143.18   45.60
  -3   2 -16  192.95   49.80
   3  -2  17   26.77   19.29
  -3   2 -17   36.49   23.34
  -3   2 -18  208.09   58.60
  -3   1  21  837.53   71.97
   3  -1 -20  982.34   84.49
  -3   1  20 1015.87   74.29
  -3   1  20  911.21   74.28
   3  -1 -19  401.92   54.82
  -3   1  19  322.96   44.64
  -3   1  19  359.45   45.89
   3  -1 -18   10.91   11.82
   3  -1 -18   19.24   20.53
  -3   1  18   31.51   23.34
  -3   1  18   21.83   18.24
   3  -1 -17   93.69   33.06
   3  -1 -17   87.58   40.51
  -3   1  17   71.63   31.50
  -3   1  17   76.39   24.60
   3  -1 -16  144.45   43.67
   3  -1 -16  163.00   67.47
  -3   1  16  119.09   28.73
  -3   1  16  178.87   56.10
   3  -1 -15 2557.85  105.65
   3  -1 -15 2727.95  108.60
  -3   1  15 2451.39   94.61
  -3   1  15 2411.98   99.45
   3  -1 -14  276.77   70.46
   3  -1 -14  289.47   22.04
  -3   1  14  291.74   63.14
  -3   1  14  250.38   23.80
   3  -1 -13   24.09   15.71
   3  -1 -13    7.94    7.55
  -3   1  13    3.21   12.01
  -3   1  13    8.75    9.84
   3  -1 -12  307.10   31.72
   3  -1 -12  351.29   36.50
  -3   1  12  268.16   27.13
  -3   1  12  288.85   25.60
   3  -1 -11 1119.96   51.98
   3  -1 -11 1205.56   59.87
  -3   1  11 1164.35   76.51
  -3   1  11 1112.09   52.33
   3  -1 -10 2092.43   92.37
   3  -1 -10 1998.13   92.55
  -3   1  10 2293.36  101.98
  -3   1  10 2066.34   95.84
   3  -1  -9  185.56   22.87
   3  -1  -9  143.71   38.78
  -3   1   9  183.33   39.83
  -3   1   9  178.50   47.31
   3  -1  -8   66.45   18.01
   3  -1  -8   27.18   12.91
  -3   1   8   49.88   14.34
  -3   1   8   59.97   21.53
   3  -1  -7 1791.73   61.81
   3  -1  -7 1724.50   59.14
   3  -1  -7 1623.90   58.35
  -3   1   7 1738.86   59.36
  -3   1   7 1609.10   55.44
  -3   1   7 1711.77   61.99
   3  -1  -6 3497.12   65.20
   3  -1  -6 3500.99   64.32
   3  -1  -6 3474.36   62.45
  -3   1   6 3416.69   62.63
  -3   1   6 3294.91   34.11
  -3   1   6 3369.51   39.67
   3  -1  -5 6475.65  108.16
   3  -1  -5 6167.19  103.90
   3  -1  -5 6023.92   96.34
   3  -1  -5 6168.25  114.12
  -3   1   5 6180.72  104.84
  -3   1   5 6028.63  107.02
  -3   1   5 6468.22  108.38
  -3   1   5 5840.47   94.26
   3  -1  -4   42.35   26.85
   3  -1  -4   81.08   22.23
   3  -1  -4   77.13   12.86
   3  -1  -4   74.70   19.76
  -3   1   4   75.30   11.46
  -3   1   4   83.62   17.94
  -3   1   4   71.04   22.74
  -3   1   4   69.04   11.98
   3  -1  -3   15.33    8.22
   3  -1  -3   22.96    6.74
   3  -1  -3   10.79    3.55
   3  -1  -3   22.06    9.92
  -3   1   3   21.59    7.38
  -3   1   3   20.22    5.99
  -3   1   3   21.22   14.63
  -3   1   3   11.01    3.98
   3  -1  -2 4754.58   39.35
   3  -1  -2 4860.33   50.71
   3  -1  -2 4828.72   50.61
  -3   1   2 4745.56   46.84
  -3   1   2 4817.41   50.00
  -3   1   2 4800.30   60.41
   3  -1  -1  159.93   11.08
   3  -1  -1  177.04   12.81
   3  -1  -1  178.04    7.59
   3  -1  -1  160.91    9.75
   3  -1  -1  176.02   17.80
  -3   1   1  168.68   23.13
  -3   1   1  147.19   17.92
  -3   1   1  182.72    8.55
   3  -1   0 2416.41   53.25
   3  -1   0 2429.54   55.96
   3  -1   0 2369.76   48.74
   3  -1   0 2314.14   50.40
  -3   1   0 2455.54   54.10
  -3   1   0 2393.80   59.59
  -3   1   0 2392.31   52.68
  -3   1   0 2402.91   51.48
   3  -1   1  149.18    7.01
   3  -1   1  138.04    6.40
   3  -1   1  156.52   17.35
   3  -1   1  136.59   10.72
   3  -1   1  161.33   11.10
   3  -1   1  157.72   36.26
  -3   1  -1  132.02   10.77
  -3   1  -1  134.28    7.92
   3  -1   2 4614.56   42.25
   3  -1   2 4636.99   42.17
   3  -1   2 4571.90   48.70
   3  -1   2 4782.55   48.94
   3  -1   2 4652.16   54.49
   3  -1   2 4470.87   53.83
  -3   1  -2 4687.94   61.32
  -3   1  -2 4623.04   45.55
   3  -1   3 1913.70   53.60
   3  -1   3 2023.58   56.16
   3  -1   3 2038.42   61.78
   3  -1   3 1982.62   57.84
   3  -1   3 2010.26   61.02
  -3   1  -3 2014.19   60.89
  -3   1  -3 1894.63   55.41
  -3   1  -3 1955.25   57.67
   3  -1   4 1843.51   51.23
   3  -1   4 1789.81   53.26
  -3   1  -4 1931.38   59.94
  -3   1  -4 1964.29   63.60
  -3   1  -4 1809.82   54.06
   3  -1   5   76.61   12.46
  -3   1  -5   82.31   18.99
  -3   1  -5   67.35   21.78
  -3   1  -5   71.47   19.28
   3  -1   6  108.35   25.81
   3  -1   6  101.57    5.13
   3  -1   6  114.69   30.97
  -3   1  -6  100.75   12.12
  -3   1  -6   98.92    5.44
  -3   1  -6   91.23   21.06
   3  -1   7  286.71   44.98
   3  -1   7  278.00    8.89
   3  -1   7  334.11   28.04
  -3   1  -7  257.78   17.32
  -3   1  -7  260.71   11.91
   3  -1   8 2778.37  100.49
   3  -1   8 2541.44  100.49
   3  -1   8 2697.49   95.15
  -3   1  -8 2737.49   80.28
  -3   1  -8 2374.40   94.06
   3  -1   9 1744.09  113.16
   3  -1   9 2039.23   98.21
  -3   1  -9 1939.47   76.76
  -3   1  -9 2107.47   92.99
   3  -1  10  943.74   54.83
   3  -1  10  903.78   44.72
   3  -1  10  985.09   59.71
  -3   1 -10  949.06   66.53
  -3   1 -10  889.75   44.83
   3  -1  11  165.81   26.75
   3  -1  11  186.73   33.58
  -3   1 -11  108.15   15.45
  -3   1 -11  165.27   33.09
   3  -1  12 1115.27   68.14
   3  -1  12 1103.28  103.08
  -3   1 -12 1235.60   60.99
   3  -1  13  112.92   32.48
   3  -1  13  108.55   39.51
  -3   1 -13  167.49   52.01
   3  -1  14  706.36   43.42
   3  -1  14  653.26   89.09
  -3   1 -14  699.31   68.93
   3  -1  15  519.42   27.38
   3  -1  15  538.64   81.23
  -3   1 -15  567.99   62.36
   3  -1  16   11.96   17.34
   3  -1  16   23.42   24.91
  -3   1 -16   34.41   22.54
   3  -1  17  102.43   47.29
  -3   1 -17  130.61   38.18
   3  -1  18   71.91   37.11
  -3   1 -18   30.01   30.26
   3   0 -21  902.52  111.56
  -3   0  21  988.94  106.20
   3   0 -20  850.88   92.84
  -3   0  20  889.66  100.92
  -3   0  20  933.37   68.89
   3   0 -19  864.48   42.23
   3   0 -19  844.13   56.60
  -3   0  19  736.20   89.73
  -3   0  19  784.59   41.05
   3   0 -18  310.47   37.49
   3   0 -18  334.54   38.78
  -3   0  18  296.12   47.38
  -3   0  18  243.10   40.30
   3   0 -17   81.53   27.51
   3   0 -17   64.04   28.97
  -3   0  17   75.73   23.07
  -3   0  17   87.18   26.57
   3   0 -16 1145.74   89.27
   3   0 -16 1153.34   88.59
  -3   0  16 1252.26   71.73
  -3   0  16 1032.48   99.35
   3   0 -15 1700.57   69.94
   3   0 -15 1521.23   82.53
  -3   0  15 1555.33   89.43
  -3   0  15 1553.59   96.23
   3   0 -14  262.67   58.92
   3   0 -14  288.51   21.33
  -3   0  14  283.14   31.27
  -3   0  14  336.71   33.72
   3   0 -13   73.53   17.61
   3   0 -13   59.23   20.18
  -3   0  13   73.98   23.05
  -3   0  13   53.22   13.10
   3   0 -12  659.63   27.98
   3   0 -12  613.34   57.26
  -3   0  12  639.28   48.61
  -3   0  12  710.02   54.79
   3   0 -11 1648.21   71.06
   3   0 -11 1686.20   80.52
  -3   0  11 1652.31   76.14
  -3   0  11 1603.36   77.18
   3   0 -10 1633.03   76.01
   3   0 -10 1741.48   54.19
  -3   0  10 1597.48   73.96
  -3   0  10 1688.59  135.16
   3   0  -9  633.45   56.82
   3   0  -9  630.38   37.77
  -3   0   9  608.07   35.63
  -3   0   9  574.13   66.28
   3   0  -8   -2.92    9.59
   3   0  -8   -2.94    6.48
  -3   0   8    2.75    4.63
  -3   0   8   -9.62   10.13
  -3   0   8    4.13    7.98
   3   0  -7 2651.25   84.37
   3   0  -7 2872.95   85.88
  -3   0   7 2713.10   81.02
  -3   0   7 2805.69   81.75
  -3   0   7 2817.05   90.10
   3   0  -6 3076.06   89.45
   3   0  -6 3082.64   90.27
   3   0  -6 2964.35   85.96
  -3   0   6 2958.74   89.76
  -3   0   6 2905.81   83.07
  -3   0   6 3159.25  101.92
   3   0  -5 6619.11  113.91
   3   0  -5 6609.95  104.11
   3   0  -5 6585.95  111.53
   3   0  -5 6638.17  112.44
  -3   0   5 6680.51  112.32
  -3   0   5 6769.14  114.66
  -3   0   5 6598.51  104.36
   3   0  -4  156.54   21.86
   3   0  -4  100.80   25.45
   3   0  -4  113.21    7.53
   3   0  -4  137.80   33.22
  -3   0   4  144.93   34.58
  -3   0   4  121.08   26.29
  -3   0   4  156.71   44.42
  -3   0   4  108.49    5.55
   3   0  -3 1236.84   41.73
   3   0  -3 1250.15   40.90
   3   0  -3 1253.02   46.77
  -3   0   3 1325.33   43.11
  -3   0   3 1228.01   41.27
  -3   0   3 1221.91   47.97
  -3   0   3 1214.94   35.82
   3   0  -2  237.37   13.25
   3   0  -2  168.38   12.77
   3   0  -2  205.69   17.58
  -3   0   2  201.25   18.68
  -3   0   2  187.59   35.69
  -3   0   2  177.97    9.49
   3   0  -110363.40   82.35
   3   0  -110549.00   94.61
  -3   0   110535.99   84.17
  -3   0   110649.93   96.58
   3   0   026990.77  220.82
   3   0   026263.97  215.85
   3   0   026698.41  210.86
  -3   0   026898.11  220.87
  -3   0   026091.58  208.81
  -3   0   026051.85  206.20
   3   0   1 1245.52   38.41
   3   0   1 1223.47   42.77
   3   0   1 1280.41   45.45
   3   0   1 1252.36   40.17
  -3   0  -1 1266.28   43.67
  -3   0  -1 1220.28   38.64
  -3   0  -1 1226.77   38.24
  -3   0  -1 1205.48   40.90
   3   0   2  149.36    7.85
   3   0   2   98.88   24.92
   3   0   2  139.16    8.96
   3   0   2  159.71   13.85
  -3   0  -2  141.80   13.47
  -3   0  -2  157.18   11.47
  -3   0  -2  124.81   15.96
   3   0   3  948.13   50.20
   3   0   3  875.49   31.05
   3   0   3  870.48   32.30
  -3   0  -3  886.96   35.53
  -3   0  -3  861.67   45.46
  -3   0  -3  842.15   36.06
   3   0   4  355.06   26.21
   3   0   4  382.99   41.27
  -3   0  -4  421.65   23.36
  -3   0  -4  324.54   17.21
  -3   0  -4  390.51   18.88
   3   0   5  209.69   30.04
  -3   0  -5  204.99   43.73
  -3   0  -5  178.60   34.58
   3   0   6  199.75   39.67
  -3   0  -6  214.65   26.53
   3   0   7  437.19   60.76
   3   0   7  399.80   48.40
  -3   0  -7  462.88   31.37
   3   0   8 1029.87   90.29
   3   0   8 1080.72   62.56
  -3   0  -8 1067.34   59.20
   3   0   9 2104.34   98.37
   3   0   9 1925.60  101.90
  -3   0  -9 1930.36   92.66
   3   0  10  387.24   40.68
   3   0  10  315.94   28.54
  -3   0 -10  422.00   34.32
   3   0  11  184.73   43.43
   3   0  11  208.16   42.00
  -3   0 -11  163.63   31.90
   3   0  12 1242.13   64.74
   3   0  12 1326.26   63.07
  -3   0 -12 1320.37   81.91
   3   0  13  538.27   58.79
   3   0  13  657.82   43.83
  -3   0 -13  631.38   39.05
   3   0  14  160.43   60.24
   3   0  14  268.24   57.28
  -3   0 -14  205.91   58.39
   3   0  15   13.95    6.85
   3   0  15   15.50   19.20
  -3   0 -15   -3.16   15.95
   3   0  16   36.49   23.24
   3   0  16   72.24   33.44
  -3   0 -16   83.14   19.75
   3   0  17  210.58   93.46
  -3   0 -17  224.09   89.39
   3   0  18  280.03  119.69
   3   1 -21  178.36   39.12
  -3  -1  21   91.61   67.52
   3   1 -20   65.32   33.89
   3   1 -20   82.69   40.60
  -3  -1  20   75.42   43.24
   3   1 -19  924.95   59.52
   3   1 -19  932.36   76.53
  -3  -1  19  986.41   68.01
  -3  -1  19  847.42   44.85
   3   1 -18   37.70   24.72
  -3  -1  18   47.54   21.68
  -3  -1  18   64.01   27.14
   3   1 -17  289.30   30.69
   3   1 -17  280.86   37.03
  -3  -1  17  261.18   60.24
  -3  -1  17  224.33   28.08
   3   1 -16  588.18   56.69
   3   1 -16  549.99   45.52
  -3  -1  16  498.22   40.41
  -3  -1  16  547.82   37.94
   3   1 -15 1491.65   70.80
   3   1 -15 1486.11  101.09
  -3  -1  15 1329.86   94.62
  -3  -1  15 1361.01   72.26
   3   1 -14 1044.34   60.25
   3   1 -14 1001.10   63.27
  -3  -1  14 1026.43   57.53
  -3  -1  14  926.04   55.35
   3   1 -13  325.39   55.88
   3   1 -13  376.07   31.95
  -3  -1  13  300.69   31.02
  -3  -1  13  314.54   29.49
   3   1 -12   -2.92   11.38
   3   1 -12    7.22   10.15
  -3  -1  12   12.50    9.17
  -3  -1  12   16.72   12.69
   3   1 -11 2258.32  103.14
   3   1 -11 2227.21   93.96
  -3  -1  11 2286.53  102.12
  -3  -1  11 2241.77   95.88
   3   1 -10  447.07   28.78
   3   1 -10  633.04   53.09
  -3  -1  10  499.35   31.13
  -3  -1  10  576.61   58.03
   3   1  -9   90.69   20.44
   3   1  -9   81.31   19.56
  -3  -1   9   59.91   26.20
  -3  -1   9   62.08   30.93
   3   1  -8  144.07   13.28
   3   1  -8  190.71   28.94
  -3  -1   8  151.29   20.16
  -3  -1   8  154.35   41.90
  -3  -1   8  164.57   43.43
   3   1  -710788.29  183.37
   3   1  -7 9990.96  167.59
  -3  -1   710751.25  179.91
  -3  -1   710354.44  179.47
  -3  -1   710775.12  183.00
   3   1  -611392.34  185.28
   3   1  -611393.73  178.30
   3   1  -611690.90  188.75
   3   1  -611252.14  182.37
  -3  -1   611583.02  189.97
  -3  -1   611503.92  184.74
  -3  -1   610939.81  170.75
   3   1  -5 4745.76   87.29
   3   1  -5 4585.18   83.79
   3   1  -5 4527.68   73.74
   3   1  -5 4425.01   79.03
  -3  -1   5 4512.21   78.67
  -3  -1   5 4535.02   81.84
  -3  -1   5 4657.55   92.50
  -3  -1   5 4583.80   74.74
   3   1  -4   47.60   13.20
   3   1  -4   96.35   25.88
   3   1  -4   77.40    9.50
   3   1  -4   82.20   16.67
  -3  -1   4   99.19   23.01
  -3  -1   4   92.64   19.81
  -3  -1   4  108.37   25.56
  -3  -1   4   65.42    4.76
   3   1  -3  735.67   45.23
   3   1  -3  702.84   25.88
   3   1  -3  715.68   28.85
  -3  -1   3  695.56   28.93
  -3  -1   3  695.76   26.27
  -3  -1   3  687.17   27.52
  -3  -1   3  721.89   22.59
   3   1  -2 2458.11   52.90
   3   1  -2 2458.32   54.52
   3   1  -2 2498.88   61.77
   3   1  -2 2548.68   51.25
   3   1  -2 2484.50   56.49
  -3  -1   2 2525.73   59.95
  -3  -1   2 2409.71   48.61
  -3  -1   2 2355.24   50.06
   3   1  -111997.89  103.08
   3   1  -111944.88  105.62
   3   1  -111635.61   94.77
   3   1  -111760.74  104.42
  -3  -1   111816.32  117.34
  -3  -1   112084.41  104.30
   3   1   0 5876.87   53.58
   3   1   0 5989.76   61.08
   3   1   0 5936.21   58.33
  -3  -1   0 6081.87   58.75
  -3  -1   0 6037.97   61.92
  -3  -1   0 5920.37   53.84
   3   1   1  777.71   26.48
   3   1   1  802.29   32.12
   3   1   1  868.53   52.32
   3   1   1  801.10   28.49
  -3  -1  -1  791.82   36.78
  -3  -1  -1  797.83   26.78
  -3  -1  -1  783.81   28.55
  -3  -1  -1  760.74   28.94
   3   1   2  502.84   17.15
   3   1   2  516.11   21.41
   3   1   2  581.88   40.30
   3   1   2  567.62   21.35
  -3  -1  -2  584.45   27.38
  -3  -1  -2  528.50   18.50
  -3  -1  -2  566.89   21.81
  -3  -1  -2  555.41   31.73
   3   1   3 1711.86   51.54
   3   1   3 1715.02   56.66
  -3  -1  -3 1641.77   51.71
  -3  -1  -3 1825.31   57.69
   3   1   4 1658.68   62.67
  -3  -1  -4 1647.73   59.76
  -3  -1  -4 1787.33   61.56
   3   1   5  270.38   33.36
  -3  -1  -5  236.63   38.54
  -3  -1  -5  216.46   21.80
   3   1   6  132.36   35.85
  -3  -1  -6  156.92   39.88
  -3  -1  -6  153.62   29.74
   3   1   7 2111.88   95.13
   3   1   7 2165.50  102.51
  -3  -1  -7 2148.68   94.93
   3   1   8  821.59   55.06
   3   1   8  794.31   60.37
  -3  -1  -8  811.45   43.69
   3   1   9  260.17   39.65
   3   1   9  220.85   30.19
  -3  -1  -9  258.85   31.08
   3   1  10  375.38   52.23
   3   1  10  285.14   63.78
  -3  -1 -10  344.51   42.02
   3   1  11  231.59   29.16
   3   1  11  239.82   54.58
  -3  -1 -11  235.93   44.38
   3   1  12  921.20   94.82
   3   1  12 1143.51   76.82
  -3  -1 -12 1151.31   92.93
   3   1  13 1963.64  102.00
   3   1  13 1912.93   98.31
  -3  -1 -13 2390.50  106.25
   3   1  14 1670.96  126.53
   3   1  14 1855.42  136.37
  -3  -1 -14 1909.56  137.28
   3   1  15  648.98   32.84
   3   1  15  857.65  111.24
  -3  -1 -15  732.71   79.40
   3   1  16   37.38   24.33
   3   1  16   41.67   18.26
  -3  -1 -16   79.50   25.05
   3   1  17   11.69   11.21
  -3  -1 -17   16.01   14.40
   3   2 -22   21.40   11.12
   3   2 -21  398.58   48.47
   3   2 -21  386.13   39.51
  -3  -2  21  382.02   63.21
   3   2 -20  484.16   82.67
  -3  -2  20  601.52   83.62
   3   2 -19   15.45   22.70
   3   2 -19   31.12   16.85
  -3  -2  19   47.19   19.61
  -3  -2  19   25.99   15.22
   3   2 -18   13.39   14.46
  -3  -2  18   17.76   18.94
  -3  -2  18   15.45   13.30
   3   2 -17  110.41   27.42
   3   2 -17  119.98   35.62
  -3  -2  17  151.11   35.22
  -3  -2  17   62.29   28.69
   3   2 -16 1436.60   81.29
   3   2 -16 1312.51  100.34
  -3  -2  16 1280.76   99.04
  -3  -2  16 1327.13   87.64
   3   2 -15 1246.36   60.83
   3   2 -15 1215.46   50.67
  -3  -2  15 1200.01   91.61
  -3  -2  15 1212.01   62.28
   3   2 -14  753.72   43.44
   3   2 -14  833.28   54.13
  -3  -2  14  898.59   63.70
  -3  -2  14  781.47   70.50
   3   2 -13   27.97   10.16
   3   2 -13   27.56    9.50
  -3  -2  13   13.79   13.67
  -3  -2  13   18.15   15.66
   3   2 -12 1027.79   51.00
   3   2 -12 1011.82   62.15
  -3  -2  12  948.67   48.03
  -3  -2  12 1183.67   65.72
   3   2 -11  542.21   41.46
   3   2 -11  547.87   38.93
  -3  -2  11  622.43   66.57
  -3  -2  11  532.01   57.72
   3   2 -10  384.26   29.79
   3   2 -10  485.67   42.17
  -3  -2  10  465.99   64.65
  -3  -2  10  549.42   59.84
   3   2  -9  127.91   46.53
   3   2  -9  127.11   25.63
  -3  -2   9  115.05   13.64
  -3  -2   9  108.06   42.68
  -3  -2   9  189.13   40.01
   3   2  -8  443.01   27.26
   3   2  -8  403.56   22.35
  -3  -2   8  379.79   27.96
  -3  -2   8  450.98   26.81
  -3  -2   8  472.47   30.05
   3   2  -7  380.60   46.26
   3   2  -7  392.87   21.55
   3   2  -7  392.73   26.26
  -3  -2   7  360.74   22.19
  -3  -2   7  401.56   24.41
  -3  -2   7  468.91   30.03
   3   2  -6  439.02   24.01
   3   2  -6  457.89   21.42
   3   2  -6  404.45   28.29
  -3  -2   6  423.58   17.02
  -3  -2   6  425.68   22.09
  -3  -2   6  398.36   24.72
   3   2  -5 3569.94   67.30
   3   2  -5 3445.46   61.90
   3   2  -5 3476.78   63.14
  -3  -2   5 3651.95   69.73
  -3  -2   5 3456.83   62.87
  -3  -2   5 3517.04   63.62
  -3  -2   5 3688.93   61.62
   3   2  -4  324.70   24.60
   3   2  -4  302.73   20.05
   3   2  -4  290.24   12.21
  -3  -2   4  299.60   12.52
  -3  -2   4  326.09   15.54
  -3  -2   4  294.53   11.73
  -3  -2   4  323.30   17.53
  -3  -2   4  260.38   13.90
   3   2  -3 1138.43   40.32
   3   2  -3  997.75   35.08
   3   2  -3 1091.33   39.53
   3   2  -3 1092.33   45.11
  -3  -2   3 1099.39   40.45
  -3  -2   3 1072.24   38.57
  -3  -2   3 1025.10   32.18
   3   2  -2 3755.24   81.12
   3   2  -2 3716.89   78.76
   3   2  -2 3874.99   84.98
   3   2  -2 3783.36   77.34
   3   2  -2 3930.35   97.26
  -3  -2   2 3771.08   81.64
  -3  -2   2 3828.59   78.39
  -3  -2   2 3790.72   80.26
   3   2  -1 3183.13   92.02
   3   2  -1 2974.04   67.48
   3   2  -1 3260.66   94.47
   3   2  -1 3040.50   84.69
  -3  -2   1 3169.40   98.98
  -3  -2   1 3213.42   70.16
  -3  -2   1 3067.10   86.39
  -3  -2   1 3064.09   70.63
   3   2   0    8.11    5.57
   3   2   0   11.89    5.79
   3   2   0    8.31   12.13
   3   2   0   11.33   10.36
  -3  -2   0   -0.66    9.45
  -3  -2   0    7.16    5.33
  -3  -2   0    7.88    5.33
  -3  -2   0    4.08    5.15
   3   2   1 1379.22   41.05
   3   2   1 1354.47   42.20
  -3  -2  -1 1387.76   41.12
  -3  -2  -1 1396.81   41.18
  -3  -2  -1 1395.26   50.35
   3   2   2 2370.16   67.03
   3   2   2 2303.02   72.71
   3   2   2 2204.00   65.04
  -3  -2  -2 2166.67   68.13
  -3  -2  -2 2282.58   68.93
  -3  -2  -2 2177.29   60.46
   3   2   3  391.51   45.43
   3   2   3  368.27   20.84
  -3  -2  -3  398.31   22.65
  -3  -2  -3  407.32   24.85
  -3  -2  -3  374.89   18.09
   3   2   4 1852.97   69.31
  -3  -2  -4 1556.40   60.54
  -3  -2  -4 1623.75   55.82
   3   2   5 1259.48   80.63
  -3  -2  -5 1217.05   59.07
  -3  -2  -5 1240.46   55.65
   3   2   6  278.10   70.51
  -3  -2  -6  218.91   39.41
  -3  -2  -6  138.86   23.94
   3   2   7 1719.67   91.57
  -3  -2  -7 1507.87   70.04
   3   2   8  100.18   28.04
   3   2   8  103.61   23.93
  -3  -2  -8  107.63   28.40
   3   2   9  193.64   50.92
   3   2   9  150.00   35.37
  -3  -2  -9  166.09   45.13
   3   2  10   11.71   12.75
   3   2  10   18.41   17.09
  -3  -2 -10   22.14    9.38
   3   2  11  647.42   37.32
   3   2  11  599.66   51.10
  -3  -2 -11  536.88   35.80
   3   2  12  520.98   69.02
   3   2  12  409.75   39.74
  -3  -2 -12  475.49  110.41
   3   2  13 1421.85  151.51
   3   2  13 1604.56  104.90
  -3  -2 -13 1686.22  100.59
   3   2  14 1152.03  124.02
  -3  -2 -14 1383.93   90.83
   3   2  15  815.73  124.62
   3   2  15  870.40   42.75
  -3  -2 -15  877.86   62.47
   3   2  16   23.09   13.80
   3   2  16   35.95   35.00
  -3  -2 -16   18.03   14.48
   3   2  17  101.00   59.99
   3   3 -22  102.22   47.43
   3   3 -22   99.78   61.53
   3   3 -21 1079.22   80.12
   3   3 -21  771.86   96.46
  -3  -3  21  899.40  117.52
   3   3 -20  446.91   67.05
   3   3 -20  410.19   56.13
  -3  -3  20  417.14   76.01
   3   3 -19  179.11   69.72
   3   3 -19  197.28   41.09
  -3  -3  19  190.89   61.34
   3   3 -18   42.63   18.31
   3   3 -18   16.08   17.11
  -3  -3  18   17.87   13.60
  -3  -3  18   23.27   12.74
   3   3 -17  362.56   35.78
   3   3 -17  324.43   86.30
  -3  -3  17  340.76   32.93
  -3  -3  17  375.02   34.67
   3   3 -16 1878.03   86.77
   3   3 -16 1860.32   76.41
  -3  -3  16 1719.35   72.79
  -3  -3  16 1670.28   67.81
   3   3 -15 1209.48   32.76
   3   3 -15 1216.06   63.93
  -3  -3  15 1213.92   89.15
  -3  -3  15 1225.56   56.22
   3   3 -14  395.44   44.43
   3   3 -14  371.96   44.47
  -3  -3  14  411.98   40.76
  -3  -3  14  360.67   40.25
   3   3 -13  777.41   65.32
   3   3 -13  761.71   68.13
  -3  -3  13  791.78   72.97
  -3  -3  13  771.73   49.53
   3   3 -12   83.50   17.48
   3   3 -12   35.84   28.38
  -3  -3  12   43.46   19.55
  -3  -3  12   83.77   19.30
   3   3 -11 1258.01   60.16
   3   3 -11 1285.87   65.20
  -3  -3  11 1298.94   88.38
  -3  -3  11 1320.11   80.75
   3   3 -10  765.20   45.96
   3   3 -10  946.13   69.40
  -3  -3  10  919.14   52.74
  -3  -3  10 1012.75   73.93
   3   3  -9  116.66   38.39
   3   3  -9  124.26   24.47
  -3  -3   9  124.64   43.42
  -3  -3   9   95.16   15.45
   3   3  -8  677.87   48.31
   3   3  -8  647.75   35.17
  -3  -3   8  635.51   32.65
  -3  -3   8  647.64   35.34
  -3  -3   8  695.84   36.78
   3   3  -7   18.24    6.35
   3   3  -7    5.28    6.05
   3   3  -7   14.90   10.83
  -3  -3   7   15.58    7.02
  -3  -3   7   15.95   13.87
  -3  -3   7   19.25    7.31
   3   3  -6  246.34   35.30
   3   3  -6  227.12   10.97
  -3  -3   6  208.73   18.39
  -3  -3   6  256.33   18.11
  -3  -3   6  242.96   19.03
  -3  -3   6  222.01   11.65
   3   3  -5   15.57    7.75
   3   3  -5    2.89    5.59
   3   3  -5    9.16    5.55
  -3  -3   5   22.06    9.95
  -3  -3   5    8.32    8.52
  -3  -3   5    1.98    2.75
   3   3  -4    7.30    9.64
   3   3  -4   10.72   13.57
   3   3  -4    9.66    9.07
  -3  -3   4    4.38    7.51
  -3  -3   4   15.34    6.46
  -3  -3   4   -0.20    5.80
  -3  -3   4    6.46    4.18
   3   3  -3 1538.54   53.45
   3   3  -3 1530.84   47.83
   3   3  -3 1517.46   49.02
   3   3  -3 1485.36   43.68
  -3  -3   3 1501.07   50.37
  -3  -3   3 1478.40   46.56
  -3  -3   3 1496.10   45.70
   3   3  -2 1516.02   50.23
   3   3  -2 1575.26   56.24
   3   3  -2 1614.56   56.11
   3   3  -2 1564.23   47.73
  -3  -3   2 1748.48   59.05
  -3  -3   2 1596.68   53.24
  -3  -3   2 1543.71   45.04
  -3  -3   2 1595.56   54.72
   3   3  -1 6910.90  112.53
   3   3  -1 7231.31  126.81
   3   3  -1 6768.38  111.65
  -3  -3   1 7189.08  115.60
  -3  -3   1 7002.06  125.95
  -3  -3   1 6947.85  112.26
   3   3   0  588.88   36.06
   3   3   0  606.18   29.70
   3   3   0  569.78   23.62
  -3  -3   0  611.70   25.73
  -3  -3   0  591.71   25.19
  -3  -3   0  569.97   25.51
   3   3   1   15.95    6.50
   3   3   1   34.16   16.51
   3   3   1   13.77   10.99
  -3  -3  -1   15.11   14.97
  -3  -3  -1   11.74    8.30
  -3  -3  -1   21.21    5.25
   3   3   2    6.82    3.54
   3   3   2   17.26    7.78
   3   3   2    7.51    5.29
  -3  -3  -2   15.12    7.99
  -3  -3  -2   17.38   14.80
  -3  -3  -2    6.13    4.64
   3   3   3 1273.21   51.38
   3   3   3 1486.55   70.95
  -3  -3  -3 1328.17   51.60
  -3  -3  -3 1432.49   56.94
  -3  -3  -3 1293.25   56.30
   3   3   4 2298.18   93.54
   3   3   4 2502.00  107.56
  -3  -3  -4 2244.28   92.12
  -3  -3  -4 2514.16  112.67
  -3  -3  -4 2393.46  104.07
   3   3   5 1715.10   94.42
  -3  -3  -5 1474.26   57.60
  -3  -3  -5 1596.61   79.55
  -3  -3  -5 1794.80   98.93
  -3  -3  -5 1567.77   63.92
   3   3   6   68.54   25.99
  -3  -3  -6   51.85    6.81
  -3  -3  -6   44.22   15.94
  -3  -3  -6   93.21   21.88
   3   3   7   17.04   10.17
  -3  -3  -7    3.37   13.67
  -3  -3  -7    3.52   10.22
   3   3   8  123.70   34.91
   3   3   8   96.80   22.81
  -3  -3  -8   91.27   24.56
   3   3   9  265.70   56.70
   3   3   9  198.68   54.00
  -3  -3  -9  278.03   38.01
   3   3  10   15.16   12.40
   3   3  10   12.47   16.89
  -3  -3 -10   15.98   12.62
   3   3  11  160.46   52.61
   3   3  11  145.99   50.73
  -3  -3 -11  133.78   45.16
   3   3  12  103.14   31.34
   3   3  12   91.53   48.47
  -3  -3 -12  109.15   30.02
   3   3  13  411.99   86.82
   3   3  13  503.54   62.81
  -3  -3 -13  623.34   32.06
   3   3  14  208.28   49.34
   3   3  14  202.67   69.24
  -3  -3 -14  165.41   74.39
   3   3  15   88.63   27.97
   3   3  15   49.75   34.99
  -3  -3 -15   81.64   31.64
   3   3  16  141.84   62.12
   3   3  16  219.60   90.00
  -3  -3 -16  258.29   90.44
   3   3  17  131.95   77.99
   3   4 -22  338.34   51.17
   3   4 -22  304.85   43.78
   3   4 -21  421.73   63.34
   3   4 -21  383.12   73.64
  -3  -4  21  403.24   47.40
   3   4 -20  744.36   52.68
   3   4 -20  755.73   50.33
  -3  -4  20  705.88   89.21
   3   4 -19  111.00   42.11
  -3  -4  19  117.28   51.17
   3   4 -18    8.48   13.94
  -3  -4  18   -0.98   17.74
   3   4 -17  329.07   25.38
   3   4 -17  456.71   36.60
  -3  -4  17  297.60   87.69
  -3  -4  17  320.63   41.76
   3   4 -16 2065.83   92.13
   3   4 -16 2196.47   94.42
  -3  -4  16 2161.30  109.16
  -3  -4  16 2042.62   87.26
   3   4 -15 1404.44   66.35
   3   4 -15 1218.94   79.11
  -3  -4  15 1428.77   77.26
  -3  -4  15 1376.57   69.29
   3   4 -14  509.75   36.37
   3   4 -14  583.24   29.88
  -3  -4  14  579.12   75.52
  -3  -4  14  524.68   45.74
   3   4 -13  196.64   26.71
   3   4 -13  205.91   18.14
  -3  -4  13  273.76   45.57
  -3  -4  13  226.70   22.46
   3   4 -12  260.87   24.34
   3   4 -12  305.07   44.76
  -3  -4  12  278.23   57.00
  -3  -4  12  303.52   28.98
   3   4 -11 1329.03   61.75
   3   4 -11 1396.00   68.67
  -3  -4  11 1393.38   63.41
  -3  -4  11 1423.25   62.70
   3   4 -10 1364.97   66.70
   3   4 -10 1457.00   81.26
  -3  -4  10 1329.66   64.83
  -3  -4  10 1398.32   71.37
   3   4  -9  423.95   29.95
   3   4  -9  410.74   44.02
  -3  -4   9  448.89   31.64
  -3  -4   9  415.07   28.48
   3   4  -8  557.82   40.49
   3   4  -8  568.88   39.81
  -3  -4   8  557.84   30.01
  -3  -4   8  579.93   48.87
  -3  -4   8  613.28   35.16
   3   4  -7 1484.52   52.84
  -3  -4   7 1459.80   49.91
  -3  -4   7 1403.70   48.05
  -3  -4   7 1411.44   75.30
   3   4  -6  714.28   29.69
   3   4  -6  741.71   35.20
   3   4  -6  658.48   34.13
  -3  -4   6  660.13   36.34
  -3  -4   6  640.23   32.21
  -3  -4   6  663.89   33.22
   3   4  -5   17.63   10.97
   3   4  -5   11.48    8.21
   3   4  -5    3.81    3.95
  -3  -4   5  -20.66   12.41
  -3  -4   5    9.40    6.82
  -3  -4   5    1.43    6.89
   3   4  -4   64.80   13.23
   3   4  -4   47.08   10.32
   3   4  -4   66.10   17.95
  -3  -4   4   54.08   11.38
  -3  -4   4   82.10   18.12
   3   4  -3 1796.05   64.51
   3   4  -3 1851.88   56.26
   3   4  -3 1767.86   55.69
  -3  -4   3 1850.84   60.43
  -3  -4   3 1827.08   56.76
   3   4  -2 4364.43   76.49
   3   4  -2 4202.59   73.10
   3   4  -2 4439.28   81.23
  -3  -4   2 4248.90   75.28
  -3  -4   2 4328.91   78.70
   3   4  -1 1396.16   47.55
   3   4  -1 1482.50   53.75
   3   4  -1 1316.31   52.74
  -3  -4   1 1428.09   47.96
  -3  -4   1 1442.98   57.03
  -3  -4   1 1355.79   53.74
   3   4   0 4518.45   82.26
   3   4   0 4532.86   96.46
   3   4   0 4286.26   78.31
  -3  -4   0 4356.47   81.08
  -3  -4   0 4430.37   95.75
  -3  -4   0 4265.02   76.61
   3   4   1  582.96   31.30
   3   4   1  633.36   47.97
  -3  -4  -1  582.41   27.98
  -3  -4  -1  510.93   29.00
  -3  -4  -1  609.53   32.70
   3   4   2 2258.07   68.45
   3   4   2 2247.84   76.04
  -3  -4  -2 2309.05   66.21
  -3  -4  -2 2205.52   68.33
  -3  -4  -2 2301.01   69.65
   3   4   3  503.37   29.92
   3   4   3  550.45   36.35
  -3  -4  -3  542.74   27.95
  -3  -4  -3  562.31   38.61
  -3  -4  -3  539.51   34.91
   3   4   4 2146.55   89.24
   3   4   4 2280.37  101.55
  -3  -4  -4 2260.70   91.32
  -3  -4  -4 2327.29  121.47
  -3  -4  -4 2191.76   98.81
   3   4   5 3119.01   90.49
  -3  -4  -5 3072.29   75.12
  -3  -4  -5 3157.08   96.53
  -3  -4  -5 3245.64   97.72
  -3  -4  -5 2951.84   69.60
   3   4   6   14.35    8.84
  -3  -4  -6   18.85    5.59
  -3  -4  -6   18.22   12.70
  -3  -4  -6    5.39   18.85
   3   4   7  193.12   42.19
  -3  -4  -7  154.80   13.62
  -3  -4  -7  160.30   42.46
  -3  -4  -7  199.14   54.35
  -3  -4  -7  105.90   14.54
   3   4   8  921.85   58.54
   3   4   8  854.46   50.25
  -3  -4  -8  899.04   39.96
   3   4   9  474.21   29.91
   3   4   9  510.28   45.74
  -3  -4  -9  421.41   57.99
   3   4  10  191.34   42.53
   3   4  10  184.56   49.68
  -3  -4 -10  129.95   43.74
   3   4  11   14.50    8.37
   3   4  11   30.75   15.92
  -3  -4 -11   12.98   11.74
   3   4  12   80.66   42.47
   3   4  12  106.49   42.18
  -3  -4 -12   73.19   45.03
   3   4  13 1034.75   55.13
   3   4  13 1020.62  105.30
  -3  -4 -13 1174.10   68.48
   3   4  14   72.91   35.97
   3   4  14   43.36   32.33
  -3  -4 -14   58.67   36.05
   3   4  15   61.41   28.36
   3   4  15   24.55   19.33
  -3  -4 -15   27.56   20.09
   3   4  16    9.05   22.19
   3   4  16   21.17   21.01
   3   5 -22  243.79   35.68
   3   5 -21   61.96   32.72
  -3  -5  21   44.13   32.21
   3   5 -20  503.77   66.79
   3   5 -20  396.65   81.94
  -3  -5  20  390.00  127.88
   3   5 -19   21.37   23.04
   3   5 -19   30.01   16.74
  -3  -5  19   40.12   30.98
   3   5 -18   38.11   12.95
   3   5 -18   39.91   17.79
  -3  -5  18   76.45   35.49
   3   5 -17  346.30   38.41
   3   5 -17  281.60   37.33
  -3  -5  17  341.43   80.85
  -3  -5  17  304.17   43.92
   3   5 -16 1457.74   79.38
   3   5 -16 1499.60   91.78
  -3  -5  16 1734.08   85.49
  -3  -5  16 1423.31   77.08
   3   5 -15 1092.14   83.41
   3   5 -15 1138.93   62.87
  -3  -5  15 1103.93   72.32
  -3  -5  15 1133.66   65.42
   3   5 -14  181.11   43.15
   3   5 -14  216.71   49.96
  -3  -5  14  191.36   62.70
  -3  -5  14  185.15   16.72
   3   5 -13   -4.49   12.88
   3   5 -13    7.35    5.75
  -3  -5  13   13.24    7.34
  -3  -5  13   23.86   12.26
   3   5 -12  141.87   25.20
   3   5 -12  152.48   21.14
  -3  -5  12   95.10   23.50
  -3  -5  12  154.06   24.87
   3   5 -11 1224.73   56.59
   3   5 -11 1173.56   53.48
  -3  -5  11 1254.95   58.33
  -3  -5  11 1286.08   59.69
   3   5 -10 2093.50   97.79
   3   5 -10 2052.34   87.55
  -3  -5  10 2107.82   96.94
  -3  -5  10 2067.92   90.93
   3   5  -9   61.11   24.29
  -3  -5   9   53.01   18.14
   3   5  -8  175.44   44.91
   3   5  -8  147.81   38.88
  -3  -5   8  143.94   27.41
  -3  -5   8  151.57   35.06
   3   5  -7  439.75   30.70
   3   5  -7  444.55   28.86
  -3  -5   7  408.00   26.77
  -3  -5   7  483.46   46.48
  -3  -5   7  456.86   26.83
   3   5  -6 1317.20   69.77
   3   5  -6 1115.97   48.11
  -3  -5   6 1296.83   57.13
  -3  -5   6 1174.68   51.89
  -3  -5   6 1139.70   49.72
   3   5  -5  136.85   35.45
   3   5  -5  124.39   27.79
  -3  -5   5   73.03   16.35
  -3  -5   5   87.42   25.86
  -3  -5   5  100.35   26.98
   3   5  -4    9.38    6.06
   3   5  -4    4.79    7.27
   3   5  -4   11.17   10.05
  -3  -5   4   11.43    8.35
  -3  -5   4    2.69    5.86
   3   5  -3 3851.56  112.74
   3   5  -3 3929.43   36.15
   3   5  -3 4056.57   81.56
  -3  -5   3 3996.16   79.18
  -3  -5   3 3878.19  110.76
   3   5  -2 5581.24  106.59
   3   5  -2 5529.58   98.86
   3   5  -2 5511.73  104.76
  -3  -5   2 5635.02  105.21
  -3  -5   2 5573.41  120.43
   3   5  -1 5108.61   96.13
   3   5  -1 5232.84  116.62
  -3  -5   1 4973.63   94.75
  -3  -5   1 5288.72   99.28
  -3  -5   1 5098.31   91.18
   3   5   0 1830.97   64.31
   3   5   0 1901.55   90.18
  -3  -5   0 1824.11   62.50
  -3  -5   0 1708.78   63.72
  -3  -5   0 1762.00   72.12
   3   5   1   28.71    9.73
   3   5   1   55.01   18.29
  -3  -5  -1   43.39    9.21
  -3  -5  -1   24.60   15.54
  -3  -5  -1   56.58   17.37
   3   5   2  896.96   51.88
   3   5   2  725.17   67.48
  -3  -5  -2  736.31   38.08
  -3  -5  -2  764.54   55.16
  -3  -5  -2  681.09   57.37
   3   5   3 1574.67   74.43
   3   5   3 1672.45  103.32
  -3  -5  -3 1551.55   68.20
  -3  -5  -3 1608.93   77.85
  -3  -5  -3 1646.32   78.92
   3   5   4 1531.67   66.94
   3   5   4 1520.86   70.62
  -3  -5  -4 1384.94   58.28
  -3  -5  -4 1457.61   73.24
  -3  -5  -4 1519.89   68.21
   3   5   5 1193.45   59.15
  -3  -5  -5 1137.42   48.43
  -3  -5  -5 1264.56   65.52
  -3  -5  -5 1158.52   78.01
   3   5   6   86.22   22.08
  -3  -5  -6   92.19   18.68
  -3  -5  -6  124.06   26.31
  -3  -5  -6   74.61   30.92
  -3  -5  -6   65.05   16.25
   3   5   7   28.35   23.71
  -3  -5  -7   57.58   14.45
  -3  -5  -7   51.80   16.40
  -3  -5  -7   74.03   14.63
   3   5   8 2020.77   83.04
   3   5   8 2053.69   86.59
  -3  -5  -8 2231.53   89.66
   3   5   9  185.74   33.25
   3   5   9  176.26   59.52
  -3  -5  -9  225.98   53.58
   3   5  10   38.20   18.42
   3   5  10   34.00   10.57
  -3  -5 -10   38.41   23.51
   3   5  11   -5.52   14.64
   3   5  11    8.94   12.65
  -3  -5 -11   25.36   14.46
   3   5  12  280.45   38.76
   3   5  12  255.60   75.68
  -3  -5 -12  240.91   32.35
   3   5  13   79.99   54.63
   3   5  13  125.43   42.90
  -3  -5 -13   84.10   38.09
   3   5  14  116.00   51.90
   3   5  14  139.82   56.14
   3   5  15   20.78   19.36
   3   5  15   36.29   15.61
   3   6 -22    2.83   13.11
   3   6 -21   53.33   31.46
   3   6 -21   19.97   14.93
  -3  -6  21   57.96   20.67
   3   6 -20  198.68   66.90
   3   6 -20  293.56   47.11
  -3  -6  20  318.58   83.93
   3   6 -19    4.23   22.95
   3   6 -19   12.13   24.41
  -3  -6  19   10.40   21.82
   3   6 -18  112.25   40.12
  -3  -6  18   47.55   39.79
   3   6 -17  993.48   60.57
   3   6 -17  852.10   36.16
  -3  -6  17  887.89  108.87
   3   6 -16 1910.41   89.30
   3   6 -16 1860.83   84.83
  -3  -6  16 1917.86  136.15
  -3  -6  16 1739.92   70.80
   3   6 -15  986.12   46.86
   3   6 -15 1053.49   61.40
  -3  -6  15  984.07   47.91
  -3  -6  15  926.09   37.48
   3   6 -14  465.74   43.80
   3   6 -14  426.82   40.83
  -3  -6  14  438.33   37.74
  -3  -6  14  482.54   27.81
   3   6 -13  370.13   69.77
   3   6 -13  297.43   53.05
  -3  -6  13  239.42   60.39
  -3  -6  13  310.19   37.16
   3   6 -12 2986.71  145.74
   3   6 -12 3148.76  127.94
  -3  -6  12 3041.13  133.51
  -3  -6  12 3305.31  119.09
   3   6 -11 1233.47   70.76
   3   6 -11 1136.04   55.51
   3   6 -11 1194.19   55.75
  -3  -6  11 1130.85   54.46
   3   6 -10 2578.46   79.29
   3   6 -10 2534.87   81.09
  -3  -6  10 2577.42   79.17
  -3  -6  10 2628.57   77.40
   3   6  -9   -0.58   16.43
   3   6  -9    3.42    7.19
  -3  -6   9   23.19   16.54
  -3  -6   9   -1.95   10.67
   3   6  -8 1110.98   86.52
   3   6  -8 1085.19   66.98
  -3  -6   8 1185.27   59.10
  -3  -6   8 1148.51   66.83
   3   6  -7  676.45   68.28
   3   6  -7  641.33   41.32
  -3  -6   7  702.28   43.25
  -3  -6   7  628.20   34.77
   3   6  -6  849.76   49.71
   3   6  -6  833.45   44.64
  -3  -6   6  851.27   50.40
  -3  -6   6  843.15   44.90
   3   6  -5  739.96   48.77
   3   6  -5  701.96   54.32
  -3  -6   5  683.69   56.69
  -3  -6   5  625.20   34.71
   3   6  -4    7.90   12.03
   3   6  -4   11.55   10.10
  -3  -6   4   12.42   17.59
  -3  -6   4   30.42   13.21
   3   6  -3 1150.59   59.92
   3   6  -3 1181.21   58.41
  -3  -6   3 1216.02   61.93
  -3  -6   3 1250.76   53.14
   3   6  -2 3329.74   97.02
   3   6  -2 3532.11   94.86
  -3  -6   2 3552.56   91.46
  -3  -6   2 3452.51   95.93
   3   6  -1 2792.92   88.82
   3   6  -1 2645.42   67.83
  -3  -6   1 2477.91  120.33
  -3  -6   1 2717.17   69.06
   3   6   0   68.88   23.98
   3   6   0    7.23   15.55
  -3  -6   0   38.73   27.77
  -3  -6   0   27.41   10.02
   3   6   1  117.71   18.97
   3   6   1  156.43   33.63
  -3  -6  -1  111.92   13.51
  -3  -6  -1   98.46   32.68
  -3  -6  -1  141.59   33.23
   3   6   2 1687.55   80.09
   3   6   2 1727.86   89.73
  -3  -6  -2 1522.27   76.90
  -3  -6  -2 1769.87   45.71
  -3  -6  -2 1633.01   87.68
   3   6   3 1905.83   88.69
  -3  -6  -3 1776.49   74.76
  -3  -6  -3 1928.40   90.06
  -3  -6  -3 1963.76  100.24
   3   6   4 1388.67   62.15
   3   6   4 1438.59   86.41
  -3  -6  -4 1218.55   52.24
  -3  -6  -4 1386.30   69.50
  -3  -6  -4 1523.69   77.45
   3   6   5  439.62   21.88
   3   6   5  576.24   66.18
  -3  -6  -5  345.23   37.05
  -3  -6  -5  419.73   42.22
  -3  -6  -5  461.71   29.46
   3   6   6  124.49   33.79
  -3  -6  -6  128.58   21.09
  -3  -6  -6  166.79   42.72
  -3  -6  -6  171.47   33.80
   3   6   7   20.65   12.07
  -3  -6  -7    9.17    4.47
  -3  -6  -7   10.21    8.65
  -3  -6  -7   35.59    9.06
   3   6   8  890.66   59.14
   3   6   8  887.13   72.69
  -3  -6  -8  933.48   45.84
   3   6   9  185.74   47.41
   3   6   9  146.95   41.88
  -3  -6  -9  141.21   51.55
   3   6  10   75.05   28.54
   3   6  10   63.32   30.72
  -3  -6 -10   35.05   17.15
   3   6  11   23.10   17.85
   3   6  11   33.49   19.99
  -3  -6 -11   16.02   16.45
   3   6  12   45.80   20.25
  -3  -6 -12   47.34   27.12
   3   6  13  316.85   77.53
   3   6  13  291.73   74.56
  -3  -6 -13  261.41  109.05
   3   6  14  150.05  105.34
   3   6  14  120.61   85.02
  -3  -6 -14  353.00   73.81
   3   6  15    8.07   15.26
   3   7 -22   11.29   12.26
   3   7 -22    8.10   14.60
   3   7 -20  364.32   57.01
   3   7 -20  389.22   48.68
  -3  -7  20  225.61   86.59
   3   7 -19   31.70   22.53
  -3  -7  19    4.60   24.74
   3   7 -18  437.73   48.64
   3   7 -18  474.49   51.25
  -3  -7  18  435.37  120.64
   3   7 -17 1167.40   88.44
   3   7 -17 1116.15   70.35
  -3  -7  17 1123.41  130.33
   3   7 -16 1202.90   93.60
   3   7 -16 1151.58  104.06
  -3  -7  16 1186.66   99.09
   3   7 -15  486.28   61.42
   3   7 -15  501.57   67.65
  -3  -7  15  469.46   46.50
   3   7 -14  126.33   35.77
   3   7 -14  144.47   34.84
   3   7 -14  117.47   25.82
  -3  -7  14  124.61   34.68
   3   7 -13   12.02   14.98
   3   7 -13    5.17    6.35
   3   7 -13    8.23    5.83
  -3  -7  13    9.59   11.02
   3   7 -12 6711.91  105.24
   3   7 -12 6403.55  217.75
  -3  -7  12 6868.62  116.18
  -3  -7  12 6294.51  220.79
   3   7 -11 4617.99  181.81
   3   7 -11 4409.48  161.06
  -3  -7  11 4621.34  170.94
  -3  -7  11 4473.37  164.61
   3   7 -10 3603.91  119.23
   3   7 -10 3622.41  109.82
  -3  -7  10 3639.14  117.18
  -3  -7  10 3698.29  110.23
   3   7  -9 1067.29   53.50
   3   7  -9  924.88   42.48
  -3  -7   9 1048.45   62.36
  -3  -7   9  956.04   49.39
   3   7  -8  -14.54   14.30
   3   7  -8    9.65    5.53
  -3  -7   8  -14.07   15.11
  -3  -7   8   15.09   12.03
   3   7  -7 2044.78   90.67
   3   7  -7 2095.73   89.55
  -3  -7   7 1948.55  102.11
  -3  -7   7 2183.84   91.90
   3   7  -6 3286.01  121.18
   3   7  -6 3409.13   86.20
  -3  -7   6 3877.15  103.24
  -3  -7   6 3640.26  100.79
   3   7  -5  495.38   79.60
   3   7  -5  307.64   34.62
  -3  -7   5  383.89   68.02
  -3  -7   5  329.17   26.74
   3   7  -4  271.77   51.89
   3   7  -4  244.76   46.91
  -3  -7   4  315.68   81.18
  -3  -7   4  164.69   24.74
   3   7  -3  330.69   60.75
   3   7  -3  259.40   20.58
  -3  -7   3  398.52  100.06
  -3  -7   3  220.33   13.39
   3   7  -2 2333.59  101.52
   3   7  -2 2384.19  108.65
  -3  -7   2 2481.85  107.51
  -3  -7   2 2350.80  102.97
   3   7  -1 2091.20   88.57
   3   7  -1 2515.00  114.45
  -3  -7   1 2229.62  110.36
  -3  -7   1 2237.14  100.91
   3   7   0    0.17    7.88
   3   7   0    7.64   13.11
  -3  -7   0   16.69   11.00
  -3  -7   0   10.98    4.29
   3   7   1   90.23   25.48
   3   7   1  111.37   28.47
  -3  -7  -1  123.42   32.06
  -3  -7  -1  119.37   22.39
   3   7   2 1682.91   83.00
   3   7   2 1680.39  101.18
  -3  -7  -2 1822.28  101.67
  -3  -7  -2 1762.00   84.23
   3   7   3 2681.30   99.33
   3   7   3 2472.24  107.79
  -3  -7  -3 2504.43  113.69
  -3  -7  -3 2488.22  102.63
   3   7   4 2749.36   94.91
   3   7   4 2566.00  106.05
  -3  -7  -4 2719.60  114.18
  -3  -7  -4 2750.20  111.37
   3   7   5  152.16   17.61
   3   7   5  173.68   58.23
  -3  -7  -5  215.12   23.40
  -3  -7  -5  200.28   47.23
   3   7   6  129.34   37.40
  -3  -7  -6  102.90   24.22
  -3  -7  -6  104.41   32.47
  -3  -7  -6   93.34   29.49
   3   7   7  324.65   49.13
  -3  -7  -7  385.90   32.60
  -3  -7  -7  387.26   73.58
   3   7   8  485.00   35.63
   3   7   8  476.76   30.50
  -3  -7  -8  493.62   49.12
   3   7   9  638.15   66.64
   3   7   9  571.35   67.73
  -3  -7  -9  622.12   30.37
   3   7  10  439.03   39.86
   3   7  10  512.20  111.06
  -3  -7 -10  460.59   46.24
   3   7  11   13.10   20.87
   3   7  11    8.00   10.43
  -3  -7 -11   17.18   15.80
   3   7  12  169.58   65.05
   3   7  12  173.90   47.82
  -3  -7 -12  179.20   81.71
   3   7  13   83.49   42.15
   3   7  13   62.87   22.63
  -3  -7 -13   98.58   44.45
   3   7  14  109.26   80.29
   3   8 -22   14.77    9.48
   3   8 -22   18.78    9.35
   3   8 -21  124.34   69.07
   3   8 -21  143.29   75.05
  -3  -8  21  129.93   45.32
   3   8 -20  127.49   64.79
   3   8 -20   83.81   51.56
  -3  -8  20  105.75   49.08
   3   8 -19    5.86    9.07
   3   8 -19   28.06   16.82
  -3  -8  19   22.22   24.35
   3   8 -18  205.72   73.39
   3   8 -18  182.55   71.06
  -3  -8  18  250.23   91.25
   3   8 -17  937.79   61.06
   3   8 -17  893.28   68.31
  -3  -8  17  932.34   90.13
   3   8 -16  483.40   46.11
   3   8 -16  407.09   47.62
  -3  -8  16  392.82   48.19
   3   8 -15  417.69   38.06
   3   8 -15  374.63   30.74
  -3  -8  15  407.91   35.42
   3   8 -14   17.46   18.14
   3   8 -14    8.57    9.00
  -3  -8  14    8.64    8.85
  -3  -8  14   20.13   12.68
   3   8 -13  330.63   46.45
   3   8 -13  378.92   26.42
  -3  -8  13  349.64   44.15
  -3  -8  13  280.48   54.80
   3   8 -12 1278.24   65.08
   3   8 -12 1223.96   51.82
  -3  -8  12 1272.29   78.76
  -3  -8  12 1347.66   56.12
   3   8 -11  175.99   37.80
   3   8 -11  180.87   39.04
  -3  -8  11  183.98   32.38
  -3  -8  11  162.72   41.10
   3   8 -10 1179.94   75.29
   3   8 -10 1308.10   78.41
  -3  -8  10 1436.70   69.41
  -3  -8  10 1357.92   61.68
   3   8  -9   94.32   19.34
   3   8  -9   66.16   22.25
  -3  -8   9   30.15   21.15
  -3  -8   9   81.51   22.80
   3   8  -8   23.50   15.38
   3   8  -8   22.11   16.82
  -3  -8   8   10.65   14.78
  -3  -8   8   12.33    9.73
   3   8  -7  550.08   47.00
   3   8  -7  515.95   51.14
  -3  -8   7  616.77   61.71
  -3  -8   7  520.83   36.96
   3   8  -6 2372.23   80.46
  -3  -8   6 2403.44   75.25
  -3  -8   6 2280.46  106.84
   3   8  -5  397.73   34.54
   3   8  -5  391.64   38.65
  -3  -8   5  406.07   39.87
  -3  -8   5  354.18   26.85
   3   8  -4  152.07   42.92
   3   8  -4   89.88   43.92
  -3  -8   4  145.03   19.02
  -3  -8   4  146.86   33.76
   3   8  -3  586.97   71.45
   3   8  -3  618.95   35.97
  -3  -8   3  518.47   62.00
  -3  -8   3  570.79   33.32
   3   8  -2 1008.94   54.09
   3   8  -2 1262.44   68.66
  -3  -8   2 1063.01   80.43
  -3  -8   2 1057.81   52.62
   3   8  -1 1092.31   56.91
   3   8  -1 1074.36   64.81
  -3  -8   1 1105.07   85.84
  -3  -8   1  968.97   44.89
   3   8   0  259.00   48.75
   3   8   0  222.63   62.15
  -3  -8   0  204.71   20.15
  -3  -8   0  223.89   47.48
   3   8   1  157.37   47.45
   3   8   1  238.30   47.62
  -3  -8  -1  213.61   47.99
  -3  -8  -1  158.64   25.61
   3   8   2 2693.62   95.94
   3   8   2 2627.39  102.72
  -3  -8  -2 2850.35  120.47
  -3  -8  -2 2949.18  112.92
   3   8   3 6648.69  196.11
   3   8   3 6538.83  204.10
  -3  -8  -3 6730.09   80.64
  -3  -8  -3 6943.76   69.88
   3   8   4 3629.69  111.08
   3   8   4 3627.23  125.68
  -3  -8  -4 3756.78  123.27
  -3  -8  -4 3698.94  132.19
   3   8   5  418.19   37.69
   3   8   5  326.71   36.00
  -3  -8  -5  444.27   56.05
  -3  -8  -5  416.25   65.13
   3   8   6  275.59   35.13
  -3  -8  -6  250.38   58.09
  -3  -8  -6  256.40   48.01
   3   8   7  817.90  105.63
  -3  -8  -7  789.07   69.47
  -3  -8  -7  810.29   38.24
   3   8   8  525.39  117.88
   3   8   8  556.29   40.46
  -3  -8  -8  601.31   90.42
   3   8   9 1546.77   95.86
   3   8   9 1616.14  136.42
  -3  -8  -9 1715.79  104.33
   3   8  10  222.88   74.20
   3   8  10  162.90   45.95
  -3  -8 -10  212.30   81.56
   3   8  11   36.21   17.99
   3   8  11   -6.06   19.03
  -3  -8 -11   16.93   19.46
   3   8  12  606.64   73.51
   3   8  12  573.27   86.96
  -3  -8 -12  417.73  106.45
   3   8  13  204.30   96.60
   3   9 -22   55.08   20.60
   3   9 -21  574.58  103.25
   3   9 -21  603.05   62.70
   3   9 -20   10.69   15.42
  -3  -9  20   27.88   20.77
   3   9 -19  122.13   67.95
   3   9 -19  126.17   47.41
  -3  -9  19  111.93   49.48
   3   9 -18   14.17   24.31
  -3  -9  18   28.39   21.00
   3   9 -17  374.45   49.24
  -3  -9  17  296.78   40.27
  -3  -9  17  374.77  104.22
   3   9 -16  894.00   57.31
  -3  -9  16  934.72   76.15
  -3  -9  16  749.97   67.74
   3   9 -15  574.05   45.25
  -3  -9  15  641.30   47.76
  -3  -9  15  497.49  122.00
   3   9 -14   72.93   31.18
   3   9 -14   58.37   17.27
  -3  -9  14   82.60   24.96
  -3  -9  14   89.73   23.13
   3   9 -13  161.57   49.38
   3   9 -13  129.85   20.13
  -3  -9  13  193.55   49.83
  -3  -9  13  150.34   34.83
   3   9 -12  860.39   51.24
   3   9 -12  766.45   44.01
  -3  -9  12  925.64   69.24
  -3  -9  12  766.75   52.78
   3   9 -11 1566.82   70.03
   3   9 -11 1585.63   61.62
  -3  -9  11 1669.17   84.51
  -3  -9  11 1548.76   62.93
   3   9 -10  128.27   25.86
   3   9 -10  166.84   33.15
  -3  -9  10  157.58   50.71
  -3  -9  10  148.85   41.46
   3   9  -9   32.82   18.26
   3   9  -9   31.47   15.22
  -3  -9   9   19.99   14.19
  -3  -9   9   31.58   13.63
   3   9  -8  140.30   28.52
   3   9  -8   97.87   23.30
  -3  -9   8  102.42   25.81
  -3  -9   8   84.38   24.48
   3   9  -7  178.75   39.13
   3   9  -7  256.91   36.99
  -3  -9   7  283.94   54.04
  -3  -9   7  204.28   22.95
   3   9  -6  427.28   60.44
   3   9  -6  492.66   66.35
  -3  -9   6  560.87   51.05
  -3  -9   6  461.37   58.92
   3   9  -5  746.40   59.42
   3   9  -5  719.36   51.52
  -3  -9   5  754.79   46.53
  -3  -9   5  713.86   47.10
   3   9  -4   37.52   12.70
   3   9  -4    6.86    9.83
  -3  -9   4   33.01   14.37
  -3  -9   4   18.27   12.15
   3   9  -3  267.40   27.89
   3   9  -3  336.71   32.81
  -3  -9   3  279.40   64.89
  -3  -9   3  263.52   28.66
   3   9  -2  463.77   61.90
   3   9  -2  474.00   41.19
  -3  -9   2  444.87   43.81
  -3  -9   2  559.18   44.08
   3   9  -1  139.81   32.34
   3   9  -1  160.61   62.16
  -3  -9   1  193.34   37.68
  -3  -9   1  189.56   50.53
   3   9   0   12.48    7.17
   3   9   0    6.31   15.54
  -3  -9   0    8.31    7.66
  -3  -9   0    7.23   14.49
   3   9   1  140.08   37.66
   3   9   1   86.89   25.37
  -3  -9  -1  161.46   40.79
  -3  -9  -1  111.40   50.48
   3   9   2  437.22   56.70
   3   9   2  373.33   27.64
  -3  -9  -2  460.96   39.20
  -3  -9  -2  457.28   50.42
   3   9   3 1389.10   72.03
   3   9   3 1360.40   74.08
  -3  -9  -3 1412.05   74.21
  -3  -9  -3 1386.28   87.26
   3   9   4 1282.08   77.19
   3   9   4 1343.35   76.99
  -3  -9  -4 1356.26  105.71
  -3  -9  -4 1349.84   83.79
   3   9   5    5.71   17.83
  -3  -9  -5    6.14   26.90
  -3  -9  -5   -3.39   16.26
   3   9   6  321.21   44.97
  -3  -9  -6  290.98   72.43
  -3  -9  -6  252.68   64.60
   3   9   7  781.79   99.54
  -3  -9  -7  621.49   68.77
  -3  -9  -7  658.06   37.10
   3   9   8  417.11   56.21
   3   9   8  329.74   97.58
  -3  -9  -8  414.10   62.48
   3   9   9  623.67   49.04
   3   9   9  654.82   88.66
  -3  -9  -9  664.47   72.33
   3   9  10   -0.28   17.05
   3   9  10   11.32   16.72
  -3  -9 -10   -0.41   14.07
   3   9  11  129.10   38.43
   3   9  11   80.79   27.20
  -3  -9 -11  121.14   60.02
   3   9  12   84.10   24.70
   3  10 -21  355.86   89.95
  -3 -10  21  330.67   66.39
  -3 -10  20   32.18   17.85
   3  10 -19   57.62   35.94
  -3 -10  19   85.47   35.29
  -3 -10  19   26.95   25.23
   3  10 -18  185.79   80.23
  -3 -10  18  369.18   29.57
  -3 -10  18  258.61   46.39
   3  10 -17  726.12   72.90
  -3 -10  17  686.02   38.02
  -3 -10  17  652.92   86.94
   3  10 -16  128.61   48.88
  -3 -10  16  119.78   45.42
  -3 -10  16  140.36   35.20
   3  10 -15  122.99   39.49
  -3 -10  15   99.56   48.65
  -3 -10  15  148.59   40.41
   3  10 -14   26.83   20.36
  -3 -10  14   20.43   14.27
  -3 -10  14   20.55   18.57
   3  10 -13 1314.68  104.27
   3  10 -13 1345.93   72.90
  -3 -10  13 1273.14   85.48
  -3 -10  13 1236.04   75.60
   3  10 -12 2421.87  139.27
   3  10 -12 2308.20   91.50
  -3 -10  12 2697.83  119.73
  -3 -10  12 2314.64   90.57
   3  10 -11 4534.86  158.63
   3  10 -11 5037.74  174.45
  -3 -10  11 4602.70  156.48
  -3 -10  11 4445.16  150.93
   3  10 -10  388.64   60.98
   3  10 -10  355.92   21.98
  -3 -10  10  318.83   45.74
  -3 -10  10  225.16   64.46
   3  10  -9   40.87   15.99
   3  10  -9    2.56    7.21
  -3 -10   9   35.67   18.09
  -3 -10   9   17.32    9.50
   3  10  -8  821.35   63.07
   3  10  -8  702.24   25.33
  -3 -10   8  829.97   71.63
  -3 -10   8  683.98   38.32
   3  10  -7 2680.44  107.72
   3  10  -7 2472.96  101.70
  -3 -10   7 2547.09  118.01
  -3 -10   7 2608.33   95.72
   3  10  -6  500.76   47.69
   3  10  -6  571.99   38.54
  -3 -10   6  547.28   53.84
  -3 -10   6  461.33   33.84
   3  10  -5  248.36   62.60
   3  10  -5  254.70   63.20
  -3 -10   5  221.54   25.86
  -3 -10   5  228.60   34.13
   3  10  -4    8.54   11.56
   3  10  -4    8.05   11.96
  -3 -10   4   -8.18   11.40
  -3 -10   4    9.73   11.31
   3  10  -3  949.92   70.46
   3  10  -3 1018.74   53.32
  -3 -10   3 1032.81   86.63
  -3 -10   3  942.84   51.29
   3  10  -2 1837.11   74.43
   3  10  -2 1820.68   85.86
  -3 -10   2 1785.84   87.89
  -3 -10   2 1926.87   75.12
   3  10  -1  332.32   26.66
   3  10  -1  339.42   30.82
  -3 -10   1  355.84   32.54
  -3 -10   1  320.33   38.11
   3  10   0   19.74   13.03
   3  10   0   20.79   18.48
  -3 -10   0   -0.45   14.59
  -3 -10   0   17.78   17.76
   3  10   1  265.29   60.82
   3  10   1  302.19   27.74
  -3 -10  -1  311.36   34.41
  -3 -10  -1  257.62   65.61
   3  10   2   71.77   24.53
   3  10   2   80.50   31.28
  -3 -10  -2   67.56   13.85
  -3 -10  -2   81.08   16.45
   3  10   3 1058.45   47.83
   3  10   3 1070.08   54.45
  -3 -10  -3 1105.81   67.26
  -3 -10  -3 1105.05   63.06
   3  10   4  317.86   39.18
   3  10   4  368.92   47.69
  -3 -10  -4  384.54   57.33
  -3 -10  -4  322.68   26.07
   3  10   5    3.27   14.92
  -3 -10  -5   12.58   11.81
  -3 -10  -5   16.48    8.79
   3  10   6   83.66   44.58
  -3 -10  -6   57.59   20.50
  -3 -10  -6  137.76   46.97
   3  10   7  719.21   66.29
  -3 -10  -7  750.14   43.33
   3  10   8  836.40   66.25
   3  10   8  881.72   90.50
  -3 -10  -8  684.62  109.18
   3  10   9  467.46   81.68
   3  10   9  236.44  119.44
  -3 -10  -9  522.43   62.39
   3  10  10   17.26   19.48
  -3 -11  21  164.74   71.99
   3  11 -20   45.34   41.32
  -3 -11  20  108.29   48.50
   3  11 -19   52.44   49.99
  -3 -11  19   83.30   32.67
   3  11 -18  174.73   78.23
  -3 -11  18  205.44   59.90
  -3 -11  18  170.91   61.03
   3  11 -17  120.91   51.18
  -3 -11  17  108.57   57.94
  -3 -11  17  122.12   42.08
   3  11 -16  238.29   98.18
  -3 -11  16  204.53   63.73
   3  11 -15   60.62   41.58
  -3 -11  15   78.14   39.26
  -3 -11  15   45.05   30.51
   3  11 -14  354.56   40.34
  -3 -11  14  390.96   52.71
  -3 -11  14  427.17   46.16
   3  11 -13  967.19   82.33
  -3 -11  13  924.64   68.02
  -3 -11  13  989.37   68.26
   3  11 -12 1497.80   92.08
   3  11 -12 1533.37   61.02
  -3 -11  12 1452.98   72.92
  -3 -11  12 1496.02   62.41
   3  11 -11 3006.51  120.37
   3  11 -11 2881.05  109.19
  -3 -11  11 2886.67  122.15
  -3 -11  11 2699.12  114.83
   3  11 -10   -3.71   18.48
   3  11 -10   15.54   14.16
  -3 -11  10   15.37   11.91
  -3 -11  10   21.94   14.42
   3  11  -9    7.06   10.94
   3  11  -9    2.29    7.24
  -3 -11   9   16.53   14.00
  -3 -11   9   -0.12    9.09
   3  11  -8  445.18   41.02
   3  11  -8  409.87   37.92
  -3 -11   8  367.96   88.06
  -3 -11   8  358.12   60.03
   3  11  -7 1562.67   97.66
   3  11  -7 1502.37   84.68
  -3 -11   7 1580.92   84.27
  -3 -11   7 1588.30   92.23
   3  11  -6  434.15   37.68
   3  11  -6  463.62   29.26
  -3 -11   6  459.33   30.43
  -3 -11   6  448.28   46.33
   3  11  -5  106.21   31.61
   3  11  -5  126.48   35.93
  -3 -11   5  133.96   45.77
  -3 -11   5   82.39   18.67
   3  11  -4  183.39   45.87
   3  11  -4  181.45   65.48
  -3 -11   4  142.08   40.87
  -3 -11   4  187.79   58.01
   3  11  -3 1174.29   64.35
   3  11  -3 1279.09   63.07
  -3 -11   3 1069.91   58.51
  -3 -11   3 1118.69   45.60
   3  11  -2  650.76   73.37
   3  11  -2  595.36   60.85
  -3 -11   2  637.07   78.17
  -3 -11   2  695.03   64.49
   3  11  -1  158.85   43.25
   3  11  -1  152.17   47.56
  -3 -11   1  145.18   42.39
  -3 -11   1  125.68   35.90
   3  11   0    8.32    6.53
   3  11   0    4.56   12.93
  -3 -11   0   20.06   10.03
  -3 -11   0   -1.45   11.50
   3  11   1 1362.73   83.74
   3  11   1 1378.45   84.73
  -3 -11  -1 1433.27  101.04
  -3 -11  -1 1574.01   41.51
   3  11   2  525.16   42.60
   3  11   2  572.82   75.70
  -3 -11  -2  522.01   47.60
  -3 -11  -2  519.44   64.07
   3  11   3 1548.46  113.06
   3  11   3 1525.98  109.46
  -3 -11  -3 1624.83  116.59
  -3 -11  -3 1737.67  130.07
   3  11   4  216.32   43.13
  -3 -11  -4  182.98   51.13
  -3 -11  -4  194.74   57.24
   3  11   5   59.00   23.02
  -3 -11  -5   27.58   12.42
  -3 -11  -5   20.44   17.22
   3  11   6   73.66   44.74
  -3 -11  -6   71.57   38.01
  -3 -11  -6   82.83   39.92
   3  11   7  581.52   81.10
   3  11   7  838.62   59.05
  -3 -11  -7  872.54   55.62
   3  11   8  643.50  102.67
   3  11   8  788.10   51.84
  -3 -11  -8  833.86   77.94
  -3 -12  21  255.58   46.33
  -3 -12  20   10.77   14.84
   3  12 -19   29.26   23.25
  -3 -12  19    9.63    9.27
  -3 -12  19   22.01   18.00
   3  12 -18   41.48   25.82
  -3 -12  18   28.63   26.35
   3  12 -17  473.19   43.72
  -3 -12  17  437.33   77.63
  -3 -12  17  469.41  122.45
   3  12 -16  441.32  113.97
  -3 -12  16  450.66   67.60
  -3 -12  16  437.46   99.61
   3  12 -15   40.35   23.69
  -3 -12  15   14.29   26.09
  -3 -12  15   30.25   21.77
   3  12 -14   28.44   27.82
  -3 -12  14   45.11   31.09
  -3 -12  14   63.72   32.29
   3  12 -13  796.45   99.67
  -3 -12  13  915.02   49.00
  -3 -12  13 1078.23   55.50
   3  12 -12 1777.47  103.07
  -3 -12  12 1701.34  111.05
  -3 -12  12 1653.42  120.07
   3  12 -11 1156.60   72.25
   3  12 -11 1315.71   81.68
  -3 -12  11 1327.64   89.56
  -3 -12  11 1353.74   90.06
   3  12 -10   -7.26   19.95
   3  12 -10    9.25    5.96
  -3 -12  10   15.41   20.32
  -3 -12  10   24.63   12.67
   3  12  -9   50.35   25.88
   3  12  -9   72.69   17.42
  -3 -12   9   86.03   26.80
  -3 -12   9   58.80   24.95
   3  12  -8  703.27   69.07
   3  12  -8  675.51   42.91
  -3 -12   8  667.97   72.51
  -3 -12   8  660.51   36.24
   3  12  -7 1425.66  112.42
   3  12  -7 1280.23  106.53
  -3 -12   7 1189.59   76.71
  -3 -12   7 1270.24   74.09
   3  12  -6 1613.36  132.97
   3  12  -6 1871.62   81.52
  -3 -12   6 1832.35  110.50
  -3 -12   6 1796.70   72.20
   3  12  -5  131.15   32.75
   3  12  -5  129.56   33.22
  -3 -12   5  101.37   40.91
  -3 -12   5  130.39   31.69
   3  12  -4  162.82   63.50
   3  12  -4  279.75   33.79
  -3 -12   4  280.85   34.90
  -3 -12   4  306.62   43.32
   3  12  -3    9.86    9.88
   3  12  -3    7.35    6.64
  -3 -12   3   16.29    8.71
  -3 -12   3   15.20    9.56
   3  12  -2  149.67   47.61
   3  12  -2  118.44   30.73
  -3 -12   2  147.61   44.26
  -3 -12   2  174.10   38.23
   3  12  -1  244.66   24.96
   3  12  -1  273.00   59.62
  -3 -12   1  273.50   29.95
  -3 -12   1  214.47   72.43
   3  12   0   72.14   26.06
   3  12   0   64.36   34.38
  -3 -12   0   69.20   24.86
  -3 -12   0   59.51   23.26
   3  12   1  359.90   58.68
   3  12   1  381.59   98.87
  -3 -12  -1  351.32   48.02
  -3 -12  -1  429.31   69.13
   3  12   2  132.44   39.01
   3  12   2  138.12   53.16
  -3 -12  -2  127.46   43.74
  -3 -12  -2  197.48   51.23
   3  12   3  839.93   69.06
  -3 -12  -3  715.94   73.40
  -3 -12  -3  925.12   51.98
   3  12   4  110.55   48.56
  -3 -12  -4  114.58   46.86
  -3 -12  -4  103.52   43.06
   3  12   5   27.58   24.25
  -3 -12  -5   14.79    9.01
  -3 -12  -5   33.61   16.55
  -3 -12  -6   13.12   11.19
  -3 -12  -6    3.82    6.54
  -3 -12  -7   46.41   26.17
  -3 -13  20   18.25   24.50
   3  13 -18  130.73   39.19
  -3 -13  18  137.00   32.61
  -3 -13  18  107.93   28.09
   3  13 -17  431.81   81.20
  -3 -13  17  228.44   86.42
  -3 -13  17  320.06   37.31
   3  13 -16  270.60   86.17
  -3 -13  16  247.95   76.52
  -3 -13  16  386.29   39.94
   3  13 -15   29.06   14.11
  -3 -13  15   19.68   17.76
  -3 -13  15   34.23   14.98
   3  13 -14   25.41   23.40
  -3 -13  14   28.72   16.63
   3  13 -13  173.39   89.33
  -3 -13  13  214.15   77.13
  -3 -13  13  186.44   68.34
   3  13 -12  579.91   69.99
  -3 -13  12  599.07  100.25
  -3 -13  12  601.68   73.86
   3  13 -11  377.72   30.89
  -3 -13  11  399.52   59.14
  -3 -13  11  470.39   47.89
   3  13 -10   -2.51   19.97
   3  13 -10   12.77    9.29
  -3 -13  10    7.83   10.88
  -3 -13  10   18.11   13.75
   3  13  -9   89.08   28.69
   3  13  -9   21.41   17.65
  -3 -13   9   64.86   30.27
  -3 -13   9   68.42   23.39
   3  13  -8 1143.56   87.49
   3  13  -8 1243.98   75.55
  -3 -13   8 1086.32  113.34
  -3 -13   8 1171.03   68.06
   3  13  -7 3790.15  200.03
   3  13  -7 3882.43  202.28
  -3 -13   7 4124.60  216.63
  -3 -13   7 3589.40  201.58
   3  13  -6 2421.15  136.58
   3  13  -6 2339.63  136.34
  -3 -13   6 2362.26  148.68
  -3 -13   6 2411.68  137.15
   3  13  -5  149.93   60.00
   3  13  -5  166.02   74.94
  -3 -13   5  244.49   41.38
  -3 -13   5  184.13   58.83
   3  13  -4   22.20   17.41
   3  13  -4   46.02   24.27
  -3 -13   4   29.72   16.56
  -3 -13   4   11.74   10.39
   3  13  -3   36.89   19.47
   3  13  -3   15.83   25.13
  -3 -13   3   68.09   25.22
  -3 -13   3   54.11   23.86
   3  13  -2  624.85   38.71
   3  13  -2  592.03   35.20
  -3 -13   2  566.21   44.53
  -3 -13   2  565.91   81.95
   3  13  -1  287.87   50.15
   3  13  -1  326.19   86.49
  -3 -13   1  292.90   47.82
  -3 -13   1  356.23   55.90
   3  13   0    8.68   16.99
   3  13   0   50.85   28.62
  -3 -13   0   64.91   17.58
  -3 -13   0   95.15   40.51
   3  13   1  175.98   36.67
   3  13   1  235.36   68.10
  -3 -13  -1  206.35   62.19
  -3 -13  -1  255.83   74.65
   3  13   2  813.61   70.25
  -3 -13  -2  800.06   68.24
  -3 -13  -2  753.30   83.28
   3  13   3  549.98   72.00
  -3 -13  -3  614.76   61.11
  -3 -13  -3  572.99   85.73
   3  13   4   94.31   65.65
  -3 -13  -4   55.91   31.25
  -3 -13  -4   92.38   34.54
   3  13   5   13.49   22.40
  -3 -14  19   -5.61   13.83
   3  14 -17  142.51   72.08
  -3 -14  17  111.70   72.29
  -3 -14  17  200.72   80.99
  -3 -14  16  102.56   33.82
   3  14 -15   12.70   21.24
  -3 -14  15   25.18   15.82
  -3 -14  15   12.15   23.02
   3  14 -14  136.10   55.59
  -3 -14  14   90.47   44.67
  -3 -14  14  165.00   64.46
   3  14 -13  974.46   66.41
  -3 -14  13  642.27  103.20
  -3 -14  13  694.09   64.91
   3  14 -12  597.24   81.09
  -3 -14  12  536.31   30.10
  -3 -14  12  585.87   68.48
   3  14 -11  136.66   42.07
  -3 -14  11  109.23   37.43
  -3 -14  11  153.76   61.51
   3  14 -10  197.89   70.81
  -3 -14  10  175.16   62.53
  -3 -14  10  199.59   50.91
   3  14  -9  169.18   38.37
   3  14  -9  131.76   43.68
  -3 -14   9  154.98   52.53
  -3 -14   9  128.91   50.16
   3  14  -8  766.41  110.33
   3  14  -8  794.91   59.06
  -3 -14   8  752.26   48.81
  -3 -14   8  853.48   55.11
   3  14  -7  944.46  117.02
   3  14  -7 1054.85   70.80
  -3 -14   7 1254.51   75.95
  -3 -14   7 1178.37   79.10
   3  14  -6 2010.41  117.66
   3  14  -6 1742.73  115.71
  -3 -14   6 1633.75  116.52
  -3 -14   6 1917.16  111.66
   3  14  -5   42.22   18.01
   3  14  -5   62.88   27.82
  -3 -14   5   18.21   15.32
  -3 -14   5   63.49   26.14
   3  14  -4   13.68    9.39
   3  14  -4    6.17   10.23
  -3 -14   4   17.34    9.73
  -3 -14   4   11.33   15.87
   3  14  -3  210.51   73.20
   3  14  -3  227.92   86.10
  -3 -14   3  276.47   52.14
  -3 -14   3  261.16   69.03
   3  14  -2 1568.15   98.48
   3  14  -2 1516.95  127.56
  -3 -14   2 1521.74   85.64
  -3 -14   2 1608.24   86.78
   3  14  -1 1069.99   76.13
   3  14  -1 1245.06   79.86
  -3 -14   1 1233.14   79.19
  -3 -14   1 1138.90   77.67
   3  14   0  122.45   47.25
   3  14   0  149.42   48.40
  -3 -14   0   98.34   23.77
  -3 -14   0  126.47   46.35
   3  14   1   44.14   22.10
  -3 -14  -1   61.36   25.48
   3  14   2  470.15   75.87
  -3 -14  -2  403.07   62.20
   3  14   3   97.82   62.65
  -3 -14  -3  125.53   42.10
  -3 -15  18   19.40   19.44
  -3 -15  17   42.32   44.08
  -3 -15  16  166.09   74.73
  -3 -15  16  150.96   50.72
   3  15 -15   27.85   24.28
  -3 -15  15   57.60   29.26
  -3 -15  15   26.89   18.68
   3  15 -14   31.94   24.82
  -3 -15  14   38.11   20.69
   3  15 -13  356.62  116.85
  -3 -15  13  312.25   62.02
  -3 -15  13  455.12   66.59
   3  15 -12  629.95   90.02
  -3 -15  12  643.54   96.93
  -3 -15  12  630.04  100.03
   3  15 -11  273.59   68.84
  -3 -15  11  152.41   64.04
  -3 -15  11  202.52   73.54
   3  15 -10   63.12   23.79
  -3 -15  10   46.98   22.40
  -3 -15  10   37.18   16.37
   3  15  -9  117.02   43.33
  -3 -15   9  158.47   69.72
  -3 -15   9  153.34   44.36
   3  15  -8  726.97   35.34
   3  15  -8  658.95   56.66
  -3 -15   8  515.00   67.01
  -3 -15   8  853.27   39.60
   3  15  -7  614.52   90.49
   3  15  -7  662.24   84.57
  -3 -15   7  671.55   28.79
  -3 -15   7  597.88   82.18
   3  15  -6  577.27   66.30
   3  15  -6  575.61   66.95
  -3 -15   6  532.65   73.46
  -3 -15   6  745.41   32.72
   3  15  -5   85.82   38.70
   3  15  -5   70.66   32.26
  -3 -15   5  127.30   47.20
   3  15  -4   46.11   34.47
   3  15  -4   74.21   31.86
  -3 -15   4   82.09   24.08
  -3 -15   4   78.05   24.82
   3  15  -3  239.64   34.11
   3  15  -3  216.64   84.10
  -3 -15   3  229.81   36.37
  -3 -15   3  283.36   40.18
   3  15  -2  131.07   32.29
   3  15  -2  152.06   58.57
  -3 -15   2   85.81   53.02
  -3 -15   2  168.84   55.17
   3  15  -1  147.11   55.89
  -3 -15   1  180.55   63.57
  -3 -15   0   67.81   28.00
  -3 -15  -1   13.64   16.44
  -3 -16  16  458.78   70.79
  -3 -16  15   21.76   14.33
  -3 -16  14   33.85   25.26
  -3 -16  13  204.86   88.16
  -3 -16  13  157.23   79.36
   3  16 -12  567.20   90.83
  -3 -16  12  456.25   58.20
  -3 -16  12  500.94   95.34
   3  16 -11  192.31   89.78
  -3 -16  11  150.55   66.73
  -3 -16  11  165.67   73.28
  -3 -16  10   89.47   22.64
   3  16  -9   50.59   27.46
  -3 -16   9   39.07   31.45
   3  16  -8  182.46   85.23
  -3 -16   8  166.83   54.58
  -3 -16   8  118.46   65.76
   3  16  -7  787.71   37.09
  -3 -16   7  867.69   61.97
   3  16  -6  485.45   37.20
   3  16  -6  513.32   39.51
  -3 -16   6  424.36   35.62
  -3 -16   6  577.36   30.07
   3  16  -5   37.18   23.04
   3  16  -5   14.82    9.30
  -3 -16   5   31.38   13.89
  -3 -16   5   45.27   35.88
   3  16  -4    5.41   15.35
  -3 -16   4    2.92   22.64
   3  16  -3  384.32   34.16
   3  16  -3  274.45   98.71
  -3 -16   3  369.38   61.75
   3  16  -2   87.52   61.69
   3  16  -2   86.52   42.80
  -3 -16   2   90.20   54.49
  -3 -16   1   56.88   24.11
  -3 -17  14    7.26   11.32
  -3 -17  12   89.94   36.70
  -3 -17  12   77.59   38.97
  -3 -17  11    5.45    8.53
  -3 -17  10   15.85   17.22
  -3 -17  10   20.56   12.99
  -3 -17   9  452.87   59.78
   3  17  -8 1507.09  113.95
  -3 -17   8 1342.23  115.33
   3  17  -7  521.79   74.73
  -3 -17   7  477.13   86.79
   3  17  -6   53.44   22.62
   3  17  -5   20.18   24.79
  -3 -17   5   80.54   30.01
   3  17  -3  669.55   99.78
   4 -18   2    4.26   14.42
  -4  18  -2   35.08   18.76
   4 -18   3  541.97   76.46
  -4  18  -3  625.78   86.56
   4 -18   4  174.96   68.69
  -4  18  -4  133.36   44.47
   4 -18   5   35.10   27.00
  -4  18  -5   44.54   27.34
   4 -18   6   32.02   29.60
  -4  18  -6   18.21   22.80
   4 -18   7  809.85   70.44
  -4  18  -7  867.93   82.88
   4 -18   8  959.53   72.82
  -4  18  -8  894.63   71.39
   4 -18   9 1086.43   81.11
  -4  18  -9 1259.53  101.50
  -4  17   4  111.20   80.49
   4 -17  -3   21.22   23.85
  -4  17   3    5.59   14.87
   4 -17  -2   42.66   28.94
  -4  17   2   35.78   14.74
  -4  17   2   32.42   23.15
   4 -17  -1   24.64   20.93
  -4  17   1   24.77   27.75
  -4  17   1    1.99   10.40
   4 -17   0   33.82   18.07
  -4  17   0   60.74   24.72
  -4  17   0    7.72   23.03
   4 -17   1   69.07   38.04
  -4  17  -1   47.73   30.56
   4 -17   2   48.03   18.87
  -4  17  -2  103.33   40.75
   4 -17   3  401.16   74.53
  -4  17  -3  475.34   58.17
   4 -17   4  158.10   73.33
  -4  17  -4  165.35   72.58
   4 -17   5   42.53   20.98
  -4  17  -5   19.37   10.63
   4 -17   6   10.26   19.21
  -4  17  -6   24.20   22.95
   4 -17   7   83.40   52.09
  -4  17  -7   31.11   17.81
   4 -17   8  389.03   45.13
  -4  17  -8  447.00   58.37
   4 -17   9  358.54   83.53
  -4  17  -9  322.68   44.34
   4 -17  10   18.33   13.86
  -4  17 -10   41.25   34.91
   4 -17  11   24.34   15.13
  -4  17 -11   -2.97   16.07
   4 -17  12   81.72   42.77
  -4  17 -12  103.06   44.94
  -4  17 -13  611.60  111.59
   4 -16  -6 1205.93   85.00
   4 -16  -5  316.89   49.54
   4 -16  -5  277.76   43.35
  -4  16   5  197.85   85.83
   4 -16  -4  118.84   64.60
   4 -16  -4  291.56   45.14
   4 -16  -3   12.50    8.85
  -4  16   3   10.96   10.72
  -4  16   3    8.98   19.75
   4 -16  -2   43.70   31.76
  -4  16   2   59.70   20.81
  -4  16   2   13.01   16.17
   4 -16  -1  450.12   45.18
  -4  16   1  397.66  109.70
  -4  16   1  524.58   30.10
   4 -16   0   95.82   50.06
  -4  16   0  220.34   76.44
  -4  16   0   93.36   41.97
   4 -16   1   74.51   21.32
  -4  16  -1   87.41   41.55
  -4  16  -1   72.01   25.30
   4 -16   2   56.50   24.35
  -4  16  -2   43.15   28.26
  -4  16  -2   22.97   11.81
   4 -16   3  158.48   67.56
  -4  16  -3  169.37   43.39
   4 -16   4  113.17   50.75
  -4  16  -4   38.38   37.95
   4 -16   5   -1.50   10.35
  -4  16  -5    4.91   20.29
   4 -16   6  291.99   34.99
  -4  16  -6  263.01   36.10
   4 -16   7   52.26   21.25
  -4  16  -7   49.12   36.66
   4 -16   8  438.28   56.66
  -4  16  -8  438.18   49.97
   4 -16   9  145.61   71.09
  -4  16  -9   83.92   54.91
   4 -16  10  183.75   55.45
  -4  16 -10  296.65   37.17
   4 -16  11    4.94   25.59
  -4  16 -11   44.31   35.23
   4 -16  12  555.92   44.99
  -4  16 -12  621.53   43.50
   4 -16  13  174.76   63.06
  -4  16 -13  220.52   96.21
   4 -16  14  143.60   63.84
  -4  16 -14  163.14   70.90
  -4  16 -15  290.66   59.04
  -4  16 -16   17.87   13.41
   4 -15  -8  668.93   94.52
   4 -15  -7 1673.35  119.13
   4 -15  -7 1681.06  115.29
  -4  15   7 1354.04  143.80
   4 -15  -6 1732.58  105.57
  -4  15   6 1521.44   95.10
   4 -15  -5   24.86   23.16
  -4  15   5   38.48   23.76
   4 -15  -4   17.31   22.39
   4 -15  -4   27.29   23.20
  -4  15   4   26.38   23.70
   4 -15  -3  306.27   45.68
  -4  15   3  367.46  104.45
  -4  15   3  342.72   50.67
   4 -15  -2 1713.68   91.97
  -4  15   2 1520.20  134.16
  -4  15   2 1844.13  104.65
   4 -15  -1 1135.71  102.73
  -4  15   1 1300.77   81.44
  -4  15   1 1089.75   70.04
   4 -15   0  407.18   39.38
  -4  15   0  456.55   72.32
  -4  15   0  468.92   26.08
   4 -15   1   31.56   14.20
  -4  15  -1    6.61   11.77
  -4  15  -1   12.80   18.55
   4 -15   2  207.08   57.21
  -4  15  -2  221.25   58.27
  -4  15  -2  235.96   33.21
   4 -15   3  195.94   49.55
  -4  15  -3  194.47   40.26
  -4  15  -3  170.17   56.69
   4 -15   4  259.57   88.05
  -4  15  -4  225.31   80.47
   4 -15   5  111.25   54.48
  -4  15  -5  149.35   46.74
   4 -15   6 1070.64   53.26
  -4  15  -6 1030.40   92.86
   4 -15   7  415.22   51.02
  -4  15  -7  418.59   54.34
   4 -15   8 1088.15   55.70
  -4  15  -8 1008.56   89.40
   4 -15   9  760.62   92.31
  -4  15  -9  791.63   54.36
   4 -15  10   28.60   17.49
  -4  15 -10   46.44   37.13
   4 -15  11  193.18   71.37
  -4  15 -11  213.22   85.66
   4 -15  12  118.91   55.52
  -4  15 -12   88.57   44.22
   4 -15  13  524.28   71.56
  -4  15 -13  502.21   57.71
   4 -15  14  429.68   60.82
  -4  15 -14  456.32   35.31
   4 -15  15  357.19   69.45
  -4  15 -15  371.51   80.05
   4 -15  16   11.21   19.12
  -4  15 -16    9.54   15.95
  -4  15 -17   85.25   58.67
   4 -14  -9   17.13   11.53
   4 -14  -9   61.46   31.02
   4 -14  -8  868.49   56.64
   4 -14  -8  720.90   63.79
  -4  14   8  763.26   65.69
   4 -14  -7  295.45  115.13
   4 -14  -7  278.87   85.72
  -4  14   7  317.37   39.70
   4 -14  -6  422.29   59.41
   4 -14  -6  415.99   83.02
  -4  14   6  447.28   47.71
   4 -14  -5  377.31   64.74
   4 -14  -5  430.46   46.53
  -4  14   5  275.53  101.43
   4 -14  -4    3.37   15.20
   4 -14  -4   -7.01   16.15
  -4  14   4   -0.60   11.58
   4 -14  -3  420.96   50.97
  -4  14   3  477.95   41.73
  -4  14   3  394.57   45.92
   4 -14  -2  892.45   71.76
  -4  14   2  945.35   58.34
  -4  14   2  875.58   47.32
   4 -14  -1  902.23   86.70
  -4  14   1 1000.44   77.95
  -4  14   1  930.19   62.19
   4 -14   0  298.75   43.04
  -4  14   0  294.88   56.02
  -4  14   0  234.70   29.54
   4 -14   1  167.78   39.59
  -4  14  -1  160.24   36.77
  -4  14  -1   84.81   12.33
   4 -14   2  135.78   28.01
  -4  14  -2   75.84   30.12
  -4  14  -2   86.04   24.58
   4 -14   3  374.69   94.01
  -4  14  -3  496.38   45.34
  -4  14  -3  327.86   39.30
   4 -14   4  221.80   76.30
  -4  14  -4  174.21   44.88
  -4  14  -4  155.97   20.30
   4 -14   5  239.49   65.42
  -4  14  -5  178.13   60.72
   4 -14   6   16.09   26.75
  -4  14  -6   25.82   17.18
   4 -14   7  577.80   87.57
  -4  14  -7  620.19   42.07
   4 -14   8 3339.59  180.45
  -4  14  -8 3129.80  188.09
   4 -14   9   45.28   23.56
  -4  14  -9   28.02   33.00
   4 -14  10    3.42    8.72
   4 -14  10   10.72   15.36
  -4  14 -10   13.64    8.61
   4 -14  11   37.54   29.20
   4 -14  11   78.28   32.22
  -4  14 -11   67.98   38.92
   4 -14  12 1572.56   82.32
   4 -14  12 1482.88   97.11
  -4  14 -12 1303.89  126.16
   4 -14  13 1209.83   79.58
   4 -14  13 1038.00   58.33
  -4  14 -13 1218.37   85.96
   4 -14  14  405.09   24.95
   4 -14  14  344.21   41.61
  -4  14 -14  268.52   99.79
   4 -14  15  138.87   63.77
   4 -14  15  195.72   85.16
  -4  14 -15  147.18   70.60
   4 -14  16  107.05   43.71
   4 -14  16  157.05   61.61
  -4  14 -16   83.14   53.84
   4 -14  17   80.04   29.21
   4 -14  18    6.38   11.50
   4 -13 -11   97.33   42.00
   4 -13 -10  245.88   79.35
   4 -13 -10  232.34   90.16
  -4  13  10  270.54  116.82
   4 -13  -9   37.19   29.65
   4 -13  -9    9.65   13.14
  -4  13   9    3.24   17.72
   4 -13  -8  560.85   81.80
   4 -13  -8  494.53   58.26
  -4  13   8  586.31   57.30
   4 -13  -7  449.04   96.33
   4 -13  -7  529.53   60.98
  -4  13   7  520.34   51.70
   4 -13  -6  573.85   82.56
   4 -13  -6  623.85   48.92
  -4  13   6  635.68   67.59
   4 -13  -5   68.91   25.83
   4 -13  -5   60.98   15.23
   4 -13  -4   20.33   18.68
   4 -13  -4   20.95   16.25
  -4  13   4   14.72   12.50
   4 -13  -3  334.36   81.02
  -4  13   3  340.70   72.90
  -4  13   3  285.91   57.85
   4 -13  -2 1462.19   62.81
  -4  13   2 1572.16   74.17
  -4  13   2 1499.90   61.76
   4 -13  -1 1812.90   76.01
  -4  13   1 1803.95   78.01
  -4  13   1 1791.62   72.99
   4 -13   0  411.08   43.35
  -4  13   0  403.13   83.38
  -4  13   0  428.59   24.38
   4 -13   1   54.25   33.12
  -4  13  -1   40.74   33.90
  -4  13  -1   56.20   27.50
   4 -13   2  466.30   59.41
  -4  13  -2  399.12   28.61
  -4  13  -2  469.05   54.44
   4 -13   3  499.50   30.96
  -4  13  -3  425.46   33.66
  -4  13  -3  470.08   36.39
   4 -13   4  173.00   76.36
  -4  13  -4  127.99   44.19
  -4  13  -4  104.94   32.97
   4 -13   5  424.32   47.65
  -4  13  -5  580.69   74.05
  -4  13  -5  469.09   17.86
   4 -13   6  103.71   25.16
  -4  13  -6   94.92   29.21
   4 -13   7  255.93   34.51
   4 -13   7  274.05   74.54
  -4  13  -7  255.17   34.39
   4 -13   8  653.16   46.00
   4 -13   8  648.61   83.33
  -4  13  -8  768.88   65.82
   4 -13   9 1058.22   54.18
   4 -13   9 1109.89   54.11
  -4  13  -9 1172.07   55.78
   4 -13  10   -2.40   11.67
   4 -13  10   20.04   20.37
  -4  13 -10   13.10   11.95
   4 -13  11  146.48   50.87
  -4  13 -11   98.38   39.89
   4 -13  12  459.77   54.19
   4 -13  12  381.85  124.50
  -4  13 -12  358.78   37.45
   4 -13  13  783.56   56.70
   4 -13  13  808.41  106.88
  -4  13 -13  937.91   63.60
   4 -13  14  279.51   33.14
   4 -13  14  240.84   85.58
  -4  13 -14  324.33   34.55
   4 -13  15  130.45   66.57
   4 -13  15  172.11  100.65
  -4  13 -15  137.76   65.54
   4 -13  16  122.78   47.03
   4 -13  16   98.16   42.53
  -4  13 -16  133.30   52.94
   4 -13  17  262.56  100.05
   4 -13  17  216.22   57.27
   4 -12 -12   12.29   13.21
   4 -12 -12   38.04   22.02
   4 -12 -10   62.84   18.01
   4 -12 -10   69.01   22.40
  -4  12  10   58.99   33.81
   4 -12  -9   47.09   22.38
   4 -12  -9   57.17   18.16
  -4  12   9   82.37   33.51
   4 -12  -8  993.80   50.47
   4 -12  -8 1036.41   90.78
  -4  12   8 1029.25   55.64
   4 -12  -7 1582.50   92.65
   4 -12  -7 1537.80  134.47
  -4  12   7 1440.29   86.85
   4 -12  -6  437.49   60.15
   4 -12  -6  522.49   28.28
  -4  12   6  378.37   81.60
   4 -12  -5   11.50   17.35
   4 -12  -5   -5.30   15.17
  -4  12   5   -7.79   15.92
   4 -12  -4  803.59   44.32
   4 -12  -4  724.99   73.10
  -4  12   4  751.86   57.32
   4 -12  -3  841.38   68.14
  -4  12   3  792.76   42.34
  -4  12   3  774.25   63.64
   4 -12  -2 2221.70   82.01
  -4  12   2 2236.60  125.84
  -4  12   2 2150.82   87.37
   4 -12  -1 1422.55   76.82
  -4  12   1 1451.99   67.40
  -4  12   1 1648.52   71.68
   4 -12   0  413.20   83.99
  -4  12   0  342.33   72.66
  -4  12   0  381.32   44.59
   4 -12   1  283.80   34.93
  -4  12  -1  236.18   50.34
  -4  12  -1  309.87   38.24
   4 -12   2 3068.29   99.28
  -4  12  -2 3078.35  151.96
  -4  12  -2 3029.90   94.27
   4 -12   3 1230.16   66.10
  -4  12  -3 1447.74   66.33
  -4  12  -3 1313.79   54.92
   4 -12   4  509.77   20.65
   4 -12   4  561.73   59.61
  -4  12  -4  597.58   55.90
  -4  12  -4  569.21   25.24
   4 -12   5    3.19    3.71
   4 -12   5   -3.18   18.03
  -4  12  -5    7.48   10.62
  -4  12  -5    6.06    6.23
   4 -12   6   41.95   15.88
   4 -12   6   51.88   19.25
  -4  12  -6   38.11   16.90
  -4  12  -6   39.46   10.75
   4 -12   7 1011.95   42.97
   4 -12   7 1011.33   71.80
  -4  12  -7 1154.50   53.32
   4 -12   8  820.29   29.92
   4 -12   8  856.47   81.69
  -4  12  -8  873.07   44.22
   4 -12   9  780.20   38.36
   4 -12   9  814.38   77.95
  -4  12  -9  692.14   62.71
   4 -12  10   43.54   13.74
   4 -12  10   46.28   28.59
  -4  12 -10   18.52   13.01
   4 -12  11  310.06   30.89
   4 -12  11  313.16   44.56
  -4  12 -11  324.77   67.41
   4 -12  12  874.14   38.73
   4 -12  12  863.10   41.94
  -4  12 -12  872.24   48.79
   4 -12  13  573.17   52.13
   4 -12  13  498.11   64.73
  -4  12 -13  598.70   28.45
   4 -12  14  349.10   41.89
   4 -12  14  365.06  106.75
  -4  12 -14  311.92   54.66
   4 -12  15  155.15   52.19
   4 -12  15  144.20   40.87
  -4  12 -15  131.12   63.29
   4 -12  16   46.63   23.60
   4 -12  16  121.08   34.33
  -4  12 -16   46.68   32.74
   4 -12  17  237.29   97.56
   4 -12  18  570.66   90.22
   4 -11 -13   20.22    7.62
   4 -11 -12   10.86   22.58
   4 -11 -12   19.31   17.04
  -4  11  12   71.95   41.67
   4 -11 -11  185.13   50.92
   4 -11 -11  150.82   48.38
  -4  11  11  138.50   67.21
   4 -11 -10  114.79   45.44
   4 -11 -10  105.72   38.07
  -4  11  10   66.82   41.11
   4 -11  -9  130.26   42.15
   4 -11  -9  105.22   24.97
  -4  11   9   85.30   24.23
   4 -11  -8  103.86   36.86
   4 -11  -8  152.88   32.04
  -4  11   8   40.12   16.90
   4 -11  -7  386.13   48.29
   4 -11  -7  492.34   41.65
  -4  11   7  516.85   85.91
   4 -11  -6  861.63   48.56
   4 -11  -6  768.63   78.82
  -4  11   6  718.07   38.65
   4 -11  -5   47.42   15.22
   4 -11  -5   45.55   28.09
  -4  11   5   96.62   30.03
   4 -11  -4  417.33   53.59
   4 -11  -4  437.84   45.18
  -4  11   4  445.57   36.59
   4 -11  -3  485.05   71.38
  -4  11   3  417.79   73.88
  -4  11   3  409.68   37.24
   4 -11  -2  584.49   71.57
  -4  11   2  452.47   30.82
  -4  11   2  567.95   77.43
   4 -11  -1 1802.52   99.04
  -4  11   1 1597.09   73.33
  -4  11   1 1668.37  111.29
   4 -11   0  847.42   43.52
  -4  11   0  884.18   51.41
  -4  11   0  785.12   38.80
   4 -11   1    8.54   10.74
  -4  11  -1   14.62   12.98
  -4  11  -1    9.81   11.11
   4 -11   2   96.03   18.35
  -4  11  -2   71.90   24.19
  -4  11  -2  100.59   22.67
   4 -11   3   36.85   21.84
  -4  11  -3   16.74   13.38
  -4  11  -3   22.44   10.92
   4 -11   4    5.74    4.93
   4 -11   4   12.45   12.61
  -4  11  -4    2.86   10.14
  -4  11  -4    6.64    8.51
   4 -11   5   13.86    6.87
   4 -11   5   14.37   13.98
  -4  11  -5   24.11   12.93
  -4  11  -5   12.29    9.13
   4 -11   6   10.76   10.49
   4 -11   6   40.68   19.08
  -4  11  -6   38.14   19.93
  -4  11  -6   16.52    9.60
   4 -11   7 1663.94   62.17
   4 -11   7 1728.86   83.17
  -4  11  -7 1767.19   78.26
  -4  11  -7 1771.27   61.39
   4 -11   8  105.29   22.90
   4 -11   8  132.97   43.23
  -4  11  -8   97.62   39.74
   4 -11   9  132.45   32.67
   4 -11   9  141.03   34.74
  -4  11  -9  106.04   31.73
   4 -11  10  125.98   51.11
   4 -11  10  146.62   55.06
  -4  11 -10  156.13   38.57
   4 -11  11  320.39   42.28
   4 -11  11  380.05   38.73
  -4  11 -11  361.80   50.06
   4 -11  12 2214.36   86.42
   4 -11  12 2246.08   98.17
  -4  11 -12 2283.19   97.97
   4 -11  13 1500.72   91.68
   4 -11  13 1478.40   98.55
  -4  11 -13 1388.73  102.65
  -4  11 -14  161.97   65.00
  -4  11 -14  213.52   68.45
   4 -11  15   -0.68   13.18
  -4  11 -15    6.04   14.89
  -4  11 -15    6.34   11.17
   4 -11  16  415.67   69.34
  -4  11 -16  464.86  111.05
  -4  11 -16  181.42   72.40
   4 -11  17 1272.63   67.25
  -4  11 -17 1012.72   56.05
   4 -11  18 1043.01   82.20
  -4  11 -18  988.38   75.96
   4 -10 -14   15.01   11.09
   4 -10 -13  183.78   51.15
   4 -10 -13  139.36   70.80
  -4  10  13  129.49   54.69
   4 -10 -12  172.13   75.13
   4 -10 -12  166.35   66.59
  -4  10  12  178.97   75.97
   4 -10 -11  252.42   59.38
   4 -10 -11  279.51   37.04
  -4  10  11  233.75   87.19
   4 -10 -10   19.16   12.81
   4 -10 -10   17.35   16.86
  -4  10  10    1.65   19.21
   4 -10  -9  108.89   40.01
   4 -10  -9   59.73   22.58
  -4  10   9   59.84   25.07
   4 -10  -8  635.24   36.80
   4 -10  -8  540.79   35.09
  -4  10   8  549.90   54.52
   4 -10  -7  669.36   39.91
   4 -10  -7  577.18   40.48
  -4  10   7  697.36   42.48
   4 -10  -6  201.30   37.64
   4 -10  -6  132.02   39.94
  -4  10   6  134.17   27.46
   4 -10  -5  540.93   33.39
   4 -10  -5  627.66   49.95
  -4  10   5  622.61   32.99
   4 -10  -4   21.09   13.60
   4 -10  -4   20.14   12.98
  -4  10   4    8.97   13.70
   4 -10  -3 1266.98   64.60
  -4  10   3 1317.66   65.00
  -4  10   3 1348.35   68.71
   4 -10  -2  520.85   66.31
  -4  10   2  569.40   84.98
  -4  10   2  418.33   43.56
   4 -10  -1  281.40   58.63
  -4  10   1  256.64   52.46
  -4  10   1  204.92   20.06
   4 -10   0  585.13   45.21
  -4  10   0  525.97   44.86
  -4  10   0  601.23   47.56
   4 -10   1   12.23   11.55
  -4  10  -1  -14.10   12.47
  -4  10  -1    5.05    5.32
   4 -10   2   11.23    2.45
   4 -10   2   12.39   11.05
  -4  10  -2   30.95   20.44
  -4  10  -2   16.79   10.45
   4 -10   3  400.57   25.57
   4 -10   3  548.84   34.61
   4 -10   3  435.85   29.11
  -4  10  -3  529.97   52.41
  -4  10  -3  430.43   35.10
   4 -10   4  868.73   37.94
   4 -10   4  848.26   29.14
   4 -10   4  917.49   42.96
   4 -10   4  868.46   42.34
  -4  10  -4  991.05   53.56
  -4  10  -4  851.27   21.18
   4 -10   5  220.47   22.85
   4 -10   5  222.17   28.87
   4 -10   5  245.45   21.75
   4 -10   5  218.45   18.08
  -4  10  -5  258.73   37.47
  -4  10  -5  294.99   24.46
   4 -10   6   23.71    7.16
   4 -10   6    5.94   15.09
   4 -10   6   14.90    8.40
  -4  10  -6   20.69    7.78
  -4  10  -6   43.41   18.69
   4 -10   7 1209.25   32.59
   4 -10   7 1190.90   87.56
   4 -10   7 1082.62   37.44
  -4  10  -7 1177.63   58.94
   4 -10   8  315.26   44.27
   4 -10   8  332.25   60.90
  -4  10  -8  300.52   39.99
   4 -10   9   12.50   10.78
   4 -10   9   13.82   12.62
  -4  10  -9  -15.97   13.84
   4 -10  10   23.54   10.14
   4 -10  10    8.20   13.81
  -4  10 -10    8.18    8.50
   4 -10  11  424.93   37.65
  -4  10 -11  493.83   66.32
   4 -10  12 1776.12   85.10
  -4  10 -12 1753.51   75.61
  -4  10 -12 1768.39   78.50
   4 -10  13 1672.24  111.52
  -4  10 -13 1857.24  108.73
  -4  10 -13 1662.17   38.18
   4 -10  14 1424.42  103.03
  -4  10 -14 1363.32  116.76
  -4  10 -14 1388.37  108.36
   4 -10  15   92.01   46.30
  -4  10 -15   63.25   45.20
  -4  10 -15   72.92   30.03
   4 -10  16   28.82   19.76
  -4  10 -16   94.81   31.85
   4 -10  17  720.73   50.84
  -4  10 -17  677.31   64.30
   4 -10  18  443.03  105.73
  -4  10 -18  478.98   61.28
   4  -9 -15  138.59   63.90
   4  -9 -14   17.10   17.14
  -4   9  14   16.11    7.28
   4  -9 -13  407.06   58.65
   4  -9 -13  411.52   39.95
  -4   9  13  497.50   54.06
   4  -9 -12  139.50   43.46
   4  -9 -12  117.09   56.02
  -4   9  12  126.56   48.59
   4  -9 -11  314.12   61.90
   4  -9 -11  345.69   42.96
  -4   9  11  319.98   92.56
   4  -9 -10   29.29    9.75
   4  -9 -10   45.60   18.10
  -4   9  10   22.33   16.04
   4  -9  -9   60.14   19.21
   4  -9  -9   63.36   15.84
  -4   9   9   29.76   24.12
   4  -9  -8  933.39   76.67
   4  -9  -8  778.47   59.95
  -4   9   8  777.55   43.65
   4  -9  -7   73.85   15.78
   4  -9  -7   82.79   17.05
  -4   9   7   92.16   34.03
   4  -9  -6   -1.11   13.92
   4  -9  -6    2.69    9.89
  -4   9   6    9.29    9.84
   4  -9  -5  127.59   36.22
   4  -9  -5  191.50   41.40
  -4   9   5  124.84   24.74
   4  -9  -4  438.66   35.37
   4  -9  -4  467.60   42.91
  -4   9   4  443.10   65.08
   4  -9  -3 2327.83  108.53
  -4   9   3 2338.33  103.59
  -4   9   3 2253.01   86.70
   4  -9  -2 2000.58   90.75
  -4   9   2 2040.55  114.68
  -4   9   2 2129.79   95.37
   4  -9  -1  222.75   57.04
  -4   9   1  211.08   57.12
  -4   9   1  216.68   31.73
   4  -9   0  114.88   29.25
  -4   9   0   89.64   30.61
  -4   9   0  101.47   18.39
   4  -9   1  508.42   38.26
  -4   9  -1  452.39   45.46
  -4   9  -1  525.76   36.25
   4  -9   2  429.69   26.61
   4  -9   2  418.08   34.47
  -4   9  -2  511.44   41.25
  -4   9  -2  460.21   34.41
   4  -9   3 2340.78  102.37
   4  -9   3 2502.19  108.25
   4  -9   3 2435.11   98.37
  -4   9  -3 2444.05  102.71
  -4   9  -3 2428.20  111.62
   4  -9   4 3795.15  104.89
   4  -9   4 3789.48  114.34
   4  -9   4 3762.29  104.19
   4  -9   4 3756.99  102.75
  -4   9  -4 3929.73  113.69
  -4   9  -4 3777.79  105.61
   4  -9   5  200.06    9.76
   4  -9   5  239.02   57.19
   4  -9   5  173.55   19.97
   4  -9   5  181.00   21.73
  -4   9  -5  237.71   72.79
  -4   9  -5  195.79   24.26
   4  -9   6  132.63    7.87
   4  -9   6  162.40   53.58
   4  -9   6  143.67   36.88
  -4   9  -6  146.81   15.78
  -4   9  -6  171.25   45.09
   4  -9   7 1506.62   71.86
   4  -9   7 1495.25   68.24
   4  -9   7 1549.21   62.36
  -4   9  -7 1488.87   67.11
   4  -9   8  165.15   16.22
   4  -9   8  146.04   38.12
  -4   9  -8  142.61   42.05
   4  -9   9   14.52    9.43
  -4   9  -9    6.71    9.82
   4  -9  10   31.74   14.56
  -4   9 -10   -6.99   14.48
  -4   9 -10    5.20   11.19
   4  -9  11 1186.30   81.76
  -4   9 -11 1295.68   59.51
  -4   9 -11 1214.86   42.57
   4  -9  12 1002.83   56.83
  -4   9 -12 1215.91   70.33
  -4   9 -12 1041.31   50.86
   4  -9  13  444.37   52.51
  -4   9 -13  473.39   90.93
  -4   9 -13  394.06   39.66
   4  -9  14  323.39   39.67
  -4   9 -14  230.33   69.82
  -4   9 -14  175.52   27.63
   4  -9  15   42.31   15.93
  -4   9 -15   37.13   18.01
  -4   9 -15   10.27   11.41
   4  -9  16  209.16   60.11
  -4   9 -16  179.34   80.59
   4  -9  17 1383.27   91.88
  -4   9 -17 1132.97  132.79
   4  -9  18  580.21   94.90
   4  -9  19  116.80   43.42
   4  -8 -16  122.67   74.80
   4  -8 -16  111.99   68.78
   4  -8 -15   77.50   30.11
   4  -8 -15   51.41   27.51
  -4   8  15   74.01   31.14
   4  -8 -14   21.93   10.58
   4  -8 -14   14.48   10.39
  -4   8  14    7.75   14.66
   4  -8 -13  368.50   50.50
   4  -8 -13  342.81   50.56
  -4   8  13  477.63   42.84
   4  -8 -12  436.13   23.63
   4  -8 -12  356.90   27.78
  -4   8  12  406.87   56.76
   4  -8 -11  898.06   38.97
   4  -8 -11  703.68   62.50
  -4   8  11  724.66   67.49
   4  -8 -10  139.55   29.09
   4  -8 -10  176.81   38.86
  -4   8  10  201.33   66.42
   4  -8  -9   39.29   14.66
   4  -8  -9   43.62   18.52
  -4   8   9   72.03   24.11
   4  -8  -8  452.66   77.49
   4  -8  -8  320.21   24.28
  -4   8   8  304.43   28.19
  -4   8   8  379.14   32.96
   4  -8  -7  456.12   54.00
   4  -8  -7  449.36   34.07
  -4   8   7  493.76   29.07
  -4   8   7  502.41   48.55
   4  -8  -6   13.58    9.03
   4  -8  -6   19.92    7.26
  -4   8   6    5.37    3.53
  -4   8   6   -0.65   14.51
   4  -8  -5  158.49   29.58
   4  -8  -5  125.08   22.71
  -4   8   5  134.42   35.26
   4  -8  -4  472.35   51.20
   4  -8  -4  508.55   52.97
  -4   8   4  431.43   42.25
   4  -8  -3 4032.16  115.95
  -4   8   3 4511.17  117.50
   4  -8  -2 3974.04  113.24
  -4   8   2 4055.32  117.87
  -4   8   2 4145.35  115.33
   4  -8  -1 1481.15   78.69
  -4   8   1 1314.58   77.21
  -4   8   1 1341.00   62.04
   4  -8   0   98.80   35.58
  -4   8   0   47.19   33.59
  -4   8   0   23.10   20.53
   4  -8   1  210.62    5.56
   4  -8   1  277.89   81.01
  -4   8  -1  261.27   36.82
  -4   8  -1  183.69   16.11
   4  -8   2 1178.39   47.04
   4  -8   2 1350.82   66.24
   4  -8   2 1037.87   44.33
   4  -8   2 1099.71   49.47
  -4   8  -2 1216.01   56.07
  -4   8  -2 1052.23   46.38
   4  -8   3 4610.48  108.90
   4  -8   3 4775.88  128.41
   4  -8   3 4589.68  111.10
   4  -8   3 4595.63  110.56
  -4   8  -3 4582.26  128.95
  -4   8  -3 4766.05  113.36
   4  -8   4  208.55   18.69
   4  -8   4  199.66   21.26
   4  -8   4  207.60   12.58
  -4   8  -4  209.75   12.57
  -4   8  -4  224.10   46.89
   4  -8   5 1195.86   55.60
   4  -8   5 1204.78   65.27
   4  -8   5 1119.18   57.70
   4  -8   5 1159.59   53.42
  -4   8  -5 1260.14   62.51
   4  -8   6   84.93   23.33
   4  -8   6   77.93   35.71
   4  -8   6   88.07   14.01
  -4   8  -6  116.53   28.00
   4  -8   7 1381.20   57.18
   4  -8   7 1371.54   66.26
   4  -8   7 1442.51   67.57
   4  -8   7 1430.63   57.96
  -4   8  -7 1388.85   64.58
   4  -8   8 1216.97   57.23
  -4   8  -8 1081.29   31.94
  -4   8  -8 1112.87   53.57
   4  -8   9   54.04   15.82
  -4   8  -9   59.78   22.47
  -4   8  -9   35.09   11.50
   4  -8  10  133.77   42.95
  -4   8 -10  147.09   38.56
  -4   8 -10  111.21   32.44
   4  -8  11  703.69   56.33
  -4   8 -11  588.28   42.03
  -4   8 -11  648.85   31.20
   4  -8  12  941.78   44.70
  -4   8 -12  898.79   46.98
  -4   8 -12  948.89   48.68
   4  -8  13  425.66   35.23
  -4   8 -13  486.39   49.72
  -4   8 -13  372.29   37.38
   4  -8  14   21.29   21.53
  -4   8 -14   46.09   25.97
  -4   8 -14   12.74   11.23
   4  -8  15  977.90   79.00
  -4   8 -15 1157.71  102.55
   4  -8  16  563.11   64.73
  -4   8 -16  476.00   51.57
   4  -8  17 1433.58   88.69
  -4   8 -17 1408.34   85.13
   4  -8  18 1435.72  125.36
  -4   8 -18 1329.16   84.30
   4  -7 -17  245.16   47.45
   4  -7 -17  235.57   30.79
   4  -7 -16  365.44   60.70
   4  -7 -16  352.67   59.21
  -4   7  16  350.76   79.86
   4  -7 -15  331.59   58.49
   4  -7 -15  214.75   86.16
  -4   7  15  365.31   88.52
   4  -7 -14   61.56   33.66
   4  -7 -14   44.93   18.57
  -4   7  14   78.03   47.41
   4  -7 -13  149.86   34.82
   4  -7 -13  146.98   42.16
  -4   7  13   97.56   41.12
   4  -7 -12  506.27   60.02
   4  -7 -12  535.40   43.90
  -4   7  12  551.12   48.76
   4  -7 -11  985.21   48.33
   4  -7 -11  976.71   93.57
  -4   7  11  947.49   45.21
  -4   7  11 1016.83   94.48
   4  -7 -10  642.40   70.78
   4  -7 -10  530.53   45.76
  -4   7  10  601.38   60.95
  -4   7  10  549.03   49.02
   4  -7  -9   52.62   19.81
   4  -7  -9   95.30   19.74
  -4   7   9   50.55   12.71
  -4   7   9   35.43   21.38
   4  -7  -8 1309.94   72.87
   4  -7  -8 1470.83   94.09
  -4   7   8 1301.62   57.92
  -4   7   8 1464.16   74.25
   4  -7  -7  460.99   57.04
   4  -7  -7  435.99   42.13
  -4   7   7  352.19   10.96
  -4   7   7  428.20   35.01
  -4   7   7  441.50   45.04
   4  -7  -6   26.20   12.67
   4  -7  -6   17.18   10.18
  -4   7   6    8.47    4.70
  -4   7   6    6.93    4.35
  -4   7   6   12.50   15.09
   4  -7  -5   45.61   11.27
   4  -7  -5  118.21   31.49
  -4   7   5   51.26    9.23
   4  -7  -4 1274.71   68.06
   4  -7  -4 1271.45   62.93
  -4   7   4 1368.13   68.75
   4  -7  -3 4326.90  110.66
   4  -7  -3 4349.75  110.68
  -4   7   3 4225.17  111.11
   4  -7  -2 4009.09  116.60
  -4   7   2 3964.29  112.01
  -4   7   2 3756.72  100.58
   4  -7  -1  274.95   21.93
  -4   7   1  366.29   48.19
  -4   7   1  354.42   27.33
   4  -7   0  545.94   48.92
  -4   7   0  524.89   49.12
  -4   7   0  516.69   47.46
   4  -7   1 2126.27   87.68
   4  -7   1 2199.38  107.34
  -4   7  -1 2268.84  100.95
  -4   7  -1 2133.80   90.78
   4  -7   2 4784.50  112.12
   4  -7   2 4668.27  114.53
   4  -7   2 4700.59  112.78
   4  -7   2 4691.34  112.04
  -4   7  -2 4898.74  128.71
  -4   7  -2 5152.49  123.74
   4  -7   3 1463.52   62.41
   4  -7   3 1384.02   72.98
   4  -7   3 1470.61   66.45
   4  -7   3 1418.87   60.25
  -4   7  -3 1507.18   71.56
  -4   7  -3 1464.74   62.26
   4  -7   4 1797.21   79.05
   4  -7   4 1907.18   85.28
   4  -7   4 1799.65   76.37
   4  -7   4 1894.50   80.38
  -4   7  -4 1926.08   85.77
  -4   7  -4 1843.67   78.51
   4  -7   5  339.05   18.26
   4  -7   5  462.49  100.67
   4  -7   5  338.23   14.98
  -4   7  -5  319.75   17.78
  -4   7  -5  276.94   25.78
   4  -7   6  431.23   28.17
   4  -7   6  510.74   57.08
   4  -7   6  439.95   28.28
  -4   7  -6  388.72   37.86
   4  -7   7  258.09   13.11
   4  -7   7  282.40   15.68
   4  -7   7  269.63   32.48
  -4   7  -7  251.48   27.79
  -4   7  -7  273.44   36.32
   4  -7   8 2454.44   66.13
   4  -7   8 2552.94   69.20
   4  -7   8 2679.74  106.25
  -4   7  -8 2581.58   81.57
  -4   7  -8 2716.78   95.28
   4  -7   9  280.24   67.25
   4  -7   9  184.13   13.22
  -4   7  -9  241.38   22.92
  -4   7  -9  220.70   71.71
   4  -7  10  250.85   28.32
  -4   7 -10  272.96   28.33
  -4   7 -10  305.68   18.20
   4  -7  11   24.72    8.53
  -4   7 -11   14.06   16.95
  -4   7 -11   10.04    4.10
   4  -7  12  418.38   33.51
  -4   7 -12  354.44   30.03
  -4   7 -12  341.95   24.50
   4  -7  13 1493.86   92.87
  -4   7 -13 1393.42  111.95
  -4   7 -13 1502.83   84.51
   4  -7  14   18.59   24.25
  -4   7 -14   20.54   11.00
   4  -7  15    6.95   10.59
  -4   7 -15   21.94   18.59
   4  -7  16  305.56   38.15
  -4   7 -16  307.32   49.54
   4  -7  17 1171.14  110.10
  -4   7 -17 1211.40  108.11
   4  -7  18  418.40   44.17
  -4   7 -18  542.72  105.25
   4  -6 -18  708.86   57.68
   4  -6 -17  139.18   47.26
   4  -6 -17  183.74   63.32
  -4   6  17  221.11   44.17
   4  -6 -16  372.76   50.18
   4  -6 -16  265.19   89.73
  -4   6  16  307.65   68.69
   4  -6 -15   50.14   23.48
   4  -6 -15   35.86   25.34
  -4   6  15   34.06   32.23
   4  -6 -14  122.98   37.84
   4  -6 -14  105.17   56.87
  -4   6  14   91.60   25.74
  -4   6  14  132.01   34.04
   4  -6 -13  156.64   45.13
   4  -6 -13  207.98   28.60
  -4   6  13  193.08   36.14
  -4   6  13  195.03   62.07
   4  -6 -12  776.92   71.66
   4  -6 -12  827.97   68.71
  -4   6  12  924.03   39.77
  -4   6  12  813.98   76.64
   4  -6 -11 1359.15   62.94
   4  -6 -11 1215.28   39.48
  -4   6  11 1166.61   48.40
  -4   6  11 1224.61   69.87
   4  -6 -10   21.89   13.14
   4  -6 -10   21.68   15.69
  -4   6  10   15.20   11.53
  -4   6  10   28.15   16.00
   4  -6  -9  417.83   21.33
   4  -6  -9  492.52   44.13
  -4   6   9  437.68   24.70
  -4   6   9  458.59   45.03
   4  -6  -8  493.63   58.05
   4  -6  -8  494.40   38.09
  -4   6   8  407.72   38.35
  -4   6   8  531.20   47.10
  -4   6   8  478.93   40.82
   4  -6  -7 1425.81   85.55
   4  -6  -7 1413.53   63.03
  -4   6   7 1388.70   66.79
  -4   6   7 1450.71  103.45
   4  -6  -6  189.92   43.40
   4  -6  -6  138.51   14.88
  -4   6   6  117.08   20.67
  -4   6   6  149.73   15.47
  -4   6   6  154.19   43.21
  -4   6   5   43.53    8.75
  -4   6   5   84.44   16.70
  -4   6   5   48.78   19.91
   4  -6  -4 1626.99   72.24
   4  -6  -4 1750.65  101.70
  -4   6   4 1691.34   68.68
  -4   6   4 1593.63   64.97
  -4   6   4 1831.14   82.05
   4  -6  -3 4647.97  113.94
   4  -6  -3 4573.82  117.52
  -4   6   3 4800.46  117.26
   4  -6  -2 4728.55   97.96
   4  -6  -2 4778.13  105.97
  -4   6   2 4803.20   95.36
   4  -6  -1  624.99   32.65
  -4   6   1  643.48   35.75
  -4   6   1  593.73   32.94
   4  -6   0  534.30   25.27
   4  -6   0  573.90   45.49
  -4   6   0  531.98   29.65
  -4   6   0  535.46   29.50
   4  -6   1 1435.30   48.59
   4  -6   1 1375.06   32.58
   4  -6   1 1341.21   53.75
   4  -6   1 1445.90   49.32
  -4   6  -1 1372.08   60.26
  -4   6  -1 1375.78   23.01
   4  -6   2 5178.48   89.82
   4  -6   2 5159.12  109.03
   4  -6   2 5066.53   91.37
   4  -6   2 4956.16   89.42
  -4   6  -2 5340.79  109.11
  -4   6  -2 5001.99   95.48
   4  -6   3 6594.57  116.61
   4  -6   3 6189.23  125.11
   4  -6   3 6676.35  122.88
   4  -6   3 6510.56  115.10
  -4   6  -3 6521.88  119.19
  -4   6  -3 6741.25  116.74
   4  -6   4 2922.80   78.94
   4  -6   4 2915.83   85.29
   4  -6   4 3020.16   80.69
   4  -6   4 2823.91   69.73
  -4   6  -4 2717.35   76.74
  -4   6  -4 2942.37   73.72
   4  -6   5  215.16   12.93
   4  -6   5  230.13   16.67
   4  -6   5  254.11   35.48
  -4   6  -5  201.89   20.31
  -4   6  -5  244.27   37.95
   4  -6   6 1354.50   55.25
   4  -6   6 1339.05   53.90
   4  -6   6 1481.15   74.97
  -4   6  -6 1343.98   64.40
  -4   6  -6 1431.19   67.88
   4  -6   7  833.43   46.25
   4  -6   7  906.38   47.02
   4  -6   7 1038.63   86.06
  -4   6  -7  952.27   54.64
  -4   6  -7  927.57   54.30
   4  -6   8 3804.03  104.53
   4  -6   8 3894.19  106.05
   4  -6   8 3786.49  116.10
  -4   6  -8 3771.53  123.26
  -4   6  -8 3417.12   96.03
   4  -6   9  354.58   17.79
   4  -6   9  366.34   16.81
   4  -6   9  429.58   85.03
  -4   6  -9  381.61   43.20
  -4   6  -9  434.04   34.55
   4  -6  10   43.57   19.23
   4  -6  10   41.93   11.31
  -4   6 -10   65.17   22.37
  -4   6 -10   57.28   28.02
   4  -6  11  287.58   33.86
   4  -6  11  217.37   21.69
  -4   6 -11  221.21   33.99
  -4   6 -11  237.61   22.61
   4  -6  12  280.35   63.08
  -4   6 -12  238.48   25.09
  -4   6 -12  223.11   39.58
   4  -6  13  400.69  111.36
  -4   6 -13  413.25  104.63
  -4   6 -13  432.67   27.12
   4  -6  14  497.85   43.69
  -4   6 -14  450.08   87.23
   4  -6  15   82.85   32.03
  -4   6 -15   53.46   27.31
   4  -6  16  648.78   61.99
  -4   6 -16  669.19  110.97
   4  -6  17   82.99   40.07
  -4   6 -17   83.55   35.58
   4  -6  18  163.09   50.75
   4  -5 -19   77.50   52.09
   4  -5 -18 1214.30   84.49
   4  -5 -18 1131.83   91.16
  -4   5  18 1175.55   93.22
   4  -5 -17  431.61   65.86
   4  -5 -16  198.19   73.99
  -4   5  16  202.92   57.01
  -4   5  16  246.90   92.30
   4  -5 -15   23.33   20.62
   4  -5 -15   14.21   16.39
  -4   5  15   18.49   13.20
  -4   5  15    5.31   21.31
   4  -5 -14   29.41   16.67
   4  -5 -14   67.00   37.17
  -4   5  14   73.33   17.57
  -4   5  14   -0.30   22.35
   4  -5 -13  950.31   48.41
   4  -5 -13  836.98   79.87
  -4   5  13  784.73   47.13
  -4   5  13  910.39   59.56
   4  -5 -12 1551.22   86.95
   4  -5 -12 1457.93  102.46
  -4   5  12 1398.15   75.74
  -4   5  12 1502.94  112.78
   4  -5 -11  167.90   29.14
   4  -5 -11  139.84   33.24
  -4   5  11  160.99   31.80
  -4   5  11  140.15   34.64
   4  -5 -10   17.01   13.57
   4  -5 -10   25.27   10.56
  -4   5  10   27.31   19.20
  -4   5  10   50.38   17.84
   4  -5  -9   73.93   27.74
   4  -5  -9   92.54   16.42
  -4   5   9   77.11   20.75
  -4   5   9   90.92   18.29
   4  -5  -8  108.40   27.90
   4  -5  -8   88.93   18.06
   4  -5  -8   39.35   15.84
  -4   5   8   57.56   17.59
  -4   5   8   32.16   20.51
   4  -5  -7  866.02   52.86
   4  -5  -7  843.47   65.96
   4  -5  -7  790.78   46.02
  -4   5   7  855.56   48.85
  -4   5   7  661.44   46.37
   4  -5  -6  490.04   68.84
   4  -5  -6  557.87   76.04
   4  -5  -6  387.82   32.33
  -4   5   6  412.10   34.14
  -4   5   6  426.89   64.34
   4  -5  -5   23.18   17.62
   4  -5  -5   11.03    8.43
   4  -5  -5    3.05    7.90
  -4   5   5    6.27    5.55
  -4   5   5   -2.37   14.51
   4  -5  -4 1302.84   53.71
   4  -5  -4 1355.99   54.82
  -4   5   4 1441.19   47.31
  -4   5   4 1397.59   49.22
  -4   5   4 1368.59   57.86
   4  -5  -3  921.72   44.34
   4  -5  -3  776.21   35.46
   4  -5  -3  843.89   34.31
  -4   5   3  887.95   35.11
  -4   5   3  826.49   37.92
  -4   5   3  816.17   48.65
   4  -5  -2   96.80   17.31
   4  -5  -2   94.95   21.80
   4  -5  -2   95.61    9.34
  -4   5   2  100.09   10.94
  -4   5   2   90.02   19.61
  -4   5   2   81.95   15.92
   4  -5  -1  245.96   29.68
   4  -5  -1  275.99   16.92
   4  -5  -1  271.76   13.69
  -4   5   1  265.48   23.45
  -4   5   1  299.64   23.15
   4  -5   0 1161.53   46.06
   4  -5   0 1083.25   47.15
   4  -5   0 1169.62   47.98
   4  -5   0 1169.51   48.34
  -4   5   0 1193.95   47.45
  -4   5   0 1264.08   54.64
  -4   5   0 1135.69   51.31
   4  -5   1 4833.15   87.69
   4  -5   1 4747.75   86.06
   4  -5   1 4623.89   91.83
   4  -5   1 4809.82   84.29
   4  -5   1 4694.86   83.96
  -4   5  -1 4824.51   91.69
  -4   5  -1 4784.43   87.57
   4  -5   211900.09  198.29
   4  -5   212038.10  202.47
   4  -5   212061.59  206.30
  -4   5  -212116.52  201.76
  -4   5  -211890.63  202.01
   4  -5   3 4299.40   78.83
   4  -5   3 4194.43   82.64
   4  -5   3 4592.90   83.20
   4  -5   3 4434.63   80.56
  -4   5  -3 4264.31   78.58
  -4   5  -3 4507.26   81.84
   4  -5   4 3608.31  101.33
   4  -5   4 3762.01  106.82
   4  -5   4 3654.06  103.75
   4  -5   4 3569.37  103.01
   4  -5   4 3523.06  101.34
  -4   5  -4 3625.70  104.38
   4  -5   5  183.35   19.83
   4  -5   5  174.80   21.29
   4  -5   5  212.44   32.98
   4  -5   5  188.56   12.76
  -4   5  -5  231.45   50.97
  -4   5  -5  189.55   15.82
   4  -5   6 1700.71   79.68
   4  -5   6 1630.74   70.71
   4  -5   6 1743.50   80.25
   4  -5   6 1730.93   75.22
  -4   5  -6 1713.20   80.80
  -4   5  -6 1656.34   78.78
   4  -5   7 1328.26   64.81
   4  -5   7 1315.21   59.83
   4  -5   7 1346.87  106.14
   4  -5   7 1293.13   58.87
  -4   5  -7 1347.87   64.38
  -4   5  -7 1402.62   64.37
   4  -5   8 3641.54   85.90
   4  -5   8 3579.30   95.00
   4  -5   8 3686.17  101.76
   4  -5   8 3946.39   97.63
  -4   5  -8 3710.48  109.25
  -4   5  -8 3713.05   93.55
   4  -5   9  385.15   29.41
   4  -5   9  383.44   39.53
   4  -5   9  473.19   47.03
   4  -5   9  435.33   33.42
  -4   5  -9  484.76   48.26
  -4   5  -9  468.39   40.05
   4  -5  10    1.26    3.09
   4  -5  10    1.43    4.03
   4  -5  10    2.62    9.46
   4  -5  10    5.07    7.16
  -4   5 -10   12.37    7.94
   4  -5  11  751.74   65.66
   4  -5  11  638.84   29.97
  -4   5 -11  772.82   35.79
  -4   5 -11  653.57   39.48
   4  -5  12 3458.52  120.80
   4  -5  12 2947.61  101.09
  -4   5 -12 3191.38  110.09
  -4   5 -12 3194.20  118.60
   4  -5  13  818.38   90.83
  -4   5 -13  957.93   43.48
   4  -5  14    8.89   17.71
  -4   5 -14   14.74   19.00
   4  -5  15   26.91   15.88
  -4   5 -15    8.67   11.06
   4  -5  16  966.73  108.36
  -4   5 -16 1132.27   98.72
   4  -5  17  573.16   92.42
  -4   5 -17  421.63   66.66
   4  -5  18  198.56  105.61
  -4   5 -18  108.91   62.06
   4  -4 -19  150.81   93.12
   4  -4 -19  279.51   72.20
  -4   4  19  294.24   35.42
   4  -4 -18  498.98   60.41
   4  -4 -18  467.39   67.56
  -4   4  18  565.33   39.40
   4  -4 -17  530.04   51.16
   4  -4 -17  523.54   72.70
  -4   4  17  473.81   70.38
  -4   4  17  435.16   62.46
   4  -4 -16  459.51   62.87
   4  -4 -16  560.69   39.76
  -4   4  16  510.82   56.65
  -4   4  16  459.36   64.03
   4  -4 -15    9.78   10.42
   4  -4 -15   19.13   10.86
  -4   4  15   22.10   12.33
  -4   4  15  121.54   30.15
   4  -4 -14  235.70   53.35
   4  -4 -14  203.41   59.70
  -4   4  14  227.02   39.72
  -4   4  14  239.29   46.32
   4  -4 -13 2336.62   90.85
   4  -4 -13 2354.30  101.64
  -4   4  13 2007.88   80.46
  -4   4  13 2059.16  139.41
   4  -4 -12 3256.95  107.88
   4  -4 -12 3322.09  117.51
  -4   4  12 3085.09  110.09
  -4   4  12 3060.81  127.83
   4  -4 -11  985.33   49.72
   4  -4 -11  958.57   46.62
  -4   4  11 1066.55   56.03
  -4   4  11  917.01   46.02
   4  -4 -10 1293.38   68.49
   4  -4 -10 1224.34   60.78
  -4   4  10 1226.63   67.83
  -4   4  10 1147.52   58.85
   4  -4  -9  753.99   40.04
   4  -4  -9  759.54   38.93
  -4   4   9  806.63   40.14
  -4   4   9  807.30   58.86
   4  -4  -8  229.22   53.77
   4  -4  -8  234.21   21.75
   4  -4  -8  174.49   41.15
  -4   4   8  222.31   32.36
  -4   4   8  278.98   51.52
   4  -4  -7  610.75   58.63
   4  -4  -7  729.62   51.82
   4  -4  -7  507.92   32.77
  -4   4   7  555.88   41.77
  -4   4   7  650.64   68.91
   4  -4  -6 1013.43   51.61
   4  -4  -6  889.99   46.88
   4  -4  -6  934.75   39.72
  -4   4   6 1002.17   49.66
  -4   4   6  909.27   43.30
   4  -4  -5  131.00   42.44
   4  -4  -5  134.75   25.38
   4  -4  -5  101.99   19.93
  -4   4   5  125.91   24.55
  -4   4   5   93.05   16.65
  -4   4   5  133.53   32.51
   4  -4  -4 1070.46   43.44
   4  -4  -4 1056.77   42.76
  -4   4   4 1001.85   41.51
  -4   4   4 1016.76   42.99
  -4   4   4 1073.55   46.36
   4  -4  -3   21.54   12.76
   4  -4  -3   14.72    8.00
   4  -4  -3    4.28    4.90
  -4   4   3   27.26    8.99
  -4   4   3   12.04    7.92
  -4   4   3   12.51    8.43
   4  -4  -2   20.94    8.42
   4  -4  -2    3.03    4.23
   4  -4  -2    6.31    2.57
  -4   4   2   10.15    4.68
  -4   4   2    1.61    6.97
  -4   4   2   11.15    4.69
   4  -4  -1  779.25   30.42
   4  -4  -1  830.23   34.41
   4  -4  -1  756.61   36.83
   4  -4  -1  762.55   26.01
  -4   4   1  800.60   29.31
  -4   4   1  792.76   38.21
  -4   4   1  724.86   32.68
   4  -4   0   61.49   20.43
   4  -4   0   51.77   23.59
   4  -4   0   58.57    8.96
   4  -4   0   74.28   16.40
   4  -4   0   63.54   14.30
   4  -4   0   68.95   10.39
  -4   4   0   65.07    8.37
  -4   4   0   50.00   22.66
   4  -4   1 1231.82   38.04
   4  -4   1 1209.91   42.37
   4  -4   1 1186.57   25.22
   4  -4   1 1331.98   40.62
   4  -4   1 1235.61   38.19
  -4   4  -1 1235.83   41.36
  -4   4  -1 1280.26   40.28
  -4   4  -1 1239.98   39.32
   4  -4   2 7626.20  133.68
   4  -4   2 7569.83  129.82
   4  -4   2 7434.18  128.54
   4  -4   2 7550.08  129.66
  -4   4  -2 7530.65  131.57
  -4   4  -2 7547.02  129.13
  -4   4  -2 7606.67  133.70
  -4   4  -2 7761.56  132.51
   4  -4   3 2466.67   72.93
   4  -4   3 2448.41   74.34
   4  -4   3 2503.37   74.66
   4  -4   3 2340.58   68.75
   4  -4   3 2534.04   74.21
   4  -4   3 2564.28   74.68
  -4   4  -3 2468.64   74.87
  -4   4  -3 2438.47   71.00
   4  -4   4 1043.40   42.19
   4  -4   4 1063.65   43.27
   4  -4   4 1047.24   62.30
   4  -4   4 1082.65   48.05
  -4   4  -4 1067.38   45.47
  -4   4  -4 1058.32   45.02
   4  -4   5  786.58   33.76
   4  -4   5  795.93   35.25
   4  -4   5  800.70   41.74
   4  -4   5  848.68   35.44
  -4   4  -5  752.57   35.73
  -4   4  -5  793.18   39.55
   4  -4   6 1745.75   74.50
   4  -4   6 1791.56   77.41
   4  -4   6 1974.83   90.99
   4  -4   6 2156.86   91.56
  -4   4  -6 1843.59   81.40
  -4   4  -6 1792.78   77.20
   4  -4   7 1999.63   84.16
   4  -4   7 2008.48   82.66
   4  -4   7 2245.40  140.34
   4  -4   7 2053.64   87.60
  -4   4  -7 2024.24   94.37
  -4   4  -7 1961.55   81.40
   4  -4   8  695.86   24.96
   4  -4   8  821.07   43.17
   4  -4   8  800.88   60.24
   4  -4   8  828.32   47.88
  -4   4  -8  866.06   51.40
  -4   4  -8  856.76   50.83
   4  -4   9 1417.95   80.45
   4  -4   9 1541.71   63.42
   4  -4   9 1501.56   69.37
  -4   4  -9 1538.36   71.42
  -4   4  -9 1495.33   62.51
  -4   4  -9 1409.82   62.24
   4  -4  10   21.83    8.58
   4  -4  10   26.69    8.63
   4  -4  10   17.56   30.99
  -4   4 -10   35.53   17.94
  -4   4 -10   47.56   13.73
   4  -4  11  837.05   59.82
   4  -4  11  835.91   42.98
  -4   4 -11  783.54   41.80
  -4   4 -11  964.61   61.24
   4  -4  12 1098.83   98.28
   4  -4  12  928.80   42.54
  -4   4 -12  907.55   41.29
  -4   4 -12  983.70   45.54
   4  -4  13   71.30   15.41
   4  -4  13   29.68   19.50
  -4   4 -13   30.35   25.61
   4  -4  14   23.66   27.70
  -4   4 -14    8.29    9.50
   4  -4  15  108.89   54.60
  -4   4 -15  141.22   55.80
   4  -4  16  951.72   92.09
  -4   4 -16  949.94   91.05
   4  -4  17  812.61   76.40
  -4   4 -17  963.19   84.47
   4  -4  18  448.00  110.37
  -4   4 -18  461.52   88.78
  -4   3  20    4.99    8.55
   4  -3 -19  596.56   66.05
   4  -3 -19  556.57   61.99
  -4   3  19  506.01   75.37
  -4   3  19  499.74   39.94
   4  -3 -18  282.68   42.00
   4  -3 -18  242.05   36.21
  -4   3  18  167.15   66.79
  -4   3  18  239.87   34.14
   4  -3 -17  467.40   70.27
   4  -3 -17  524.09   56.88
  -4   3  17  477.13   57.44
   4  -3 -16  186.70   39.26
   4  -3 -16  155.12   39.67
  -4   3  16  172.82   38.92
  -4   3  16  118.01   33.61
   4  -3 -15  110.01   21.98
   4  -3 -15   46.26   19.39
  -4   3  15   63.56   16.04
  -4   3  15   67.00   16.04
   4  -3 -14 1038.72   48.86
   4  -3 -14  889.62   54.68
  -4   3  14  973.75   68.14
  -4   3  14  978.53   54.98
   4  -3 -13 3635.92  134.41
   4  -3 -13 3637.33  121.47
  -4   3  13 3554.61  136.91
  -4   3  13 3728.61  156.59
   4  -3 -12  893.63   55.59
   4  -3 -12  850.17   63.66
  -4   3  12  922.16   58.65
  -4   3  12  867.29  104.45
   4  -3 -11  335.30   24.53
   4  -3 -11  254.91   18.67
  -4   3  11  254.43   47.16
  -4   3  11  289.35   61.31
   4  -3 -10  153.79   24.92
   4  -3 -10  147.27   31.41
  -4   3  10  121.46   26.99
  -4   3  10  146.54   31.35
   4  -3  -9 2015.25   93.36
   4  -3  -9 1925.01   88.77
  -4   3   9 1954.40   82.45
  -4   3   9 1901.41   90.78
   4  -3  -8 2001.10   94.98
   4  -3  -8 2057.07   98.89
  -4   3   8 2058.08   90.49
  -4   3   8 2109.83   97.47
   4  -3  -7 2085.74   93.47
   4  -3  -7 1935.95   86.93
   4  -3  -7 2028.97   87.40
  -4   3   7 2068.37   89.62
  -4   3   7 1829.31   80.10
  -4   3   7 2127.98  105.38
   4  -3  -6 3119.08  103.03
   4  -3  -6 2664.65   78.65
   4  -3  -6 2818.56   82.82
  -4   3   6 2752.91   82.14
  -4   3   6 2697.56   81.84
  -4   3   6 2710.24   87.39
   4  -3  -5   12.91    6.24
   4  -3  -5    6.63    7.08
   4  -3  -5   -1.34    5.47
  -4   3   5    4.59    5.96
  -4   3   5    7.38    9.47
  -4   3   5   13.50    8.38
   4  -3  -4  300.25   36.71
   4  -3  -4  303.83   18.57
   4  -3  -4  289.57   20.90
  -4   3   4  315.79   20.35
  -4   3   4  274.09   17.89
  -4   3   4  284.45   40.23
   4  -3  -3 2533.35   75.27
   4  -3  -3 2414.83   70.08
   4  -3  -3 2414.46   69.33
  -4   3   3 2381.59   67.80
  -4   3   3 2397.39   68.87
  -4   3   3 2557.61   77.56
   4  -3  -2   11.22    8.94
   4  -3  -2   47.27   13.57
   4  -3  -2   13.85    4.68
   4  -3  -2   11.21   10.44
   4  -3  -2   12.92    8.80
  -4   3   2    4.54    6.64
  -4   3   2   16.34    6.22
  -4   3   2   13.09    6.71
   4  -3  -1   53.94   18.48
   4  -3  -1   52.74   17.03
   4  -3  -1   67.72   14.09
   4  -3  -1   62.93   15.52
   4  -3  -1   24.15   12.64
   4  -3  -1   65.91   16.10
  -4   3   1   69.37   12.21
  -4   3   1   78.76   14.78
   4  -3   0  724.23   28.94
   4  -3   0  737.82   29.04
   4  -3   0  783.34   30.55
   4  -3   0  770.48   34.31
   4  -3   0  748.71   29.38
   4  -3   0  801.54   30.06
  -4   3   0  780.01   31.12
  -4   3   0  736.83   53.59
   4  -3   1  118.78   10.46
   4  -3   1  152.98   12.42
   4  -3   1  141.73    7.26
   4  -3   1  127.56    8.98
   4  -3   1  136.33   13.84
  -4   3  -1  127.35   18.99
  -4   3  -1  161.05   12.91
  -4   3  -1  161.98   33.05
   4  -3   2 5781.51   94.57
   4  -3   2 5762.91  104.08
   4  -3   2 5670.06   93.96
   4  -3   2 5659.81   95.39
   4  -3   2 5714.51   94.71
   4  -3   2 5699.68   95.05
  -4   3  -2 5708.79   97.52
   4  -3   3 4526.32   82.09
   4  -3   3 4382.29   78.89
   4  -3   3 4477.35   82.27
   4  -3   3 4403.28   80.18
   4  -3   3 4550.81   90.67
  -4   3  -3 4362.99   80.11
  -4   3  -3 4548.66   82.45
  -4   3  -3 4410.36   80.55
   4  -3   4  309.92   17.79
   4  -3   4  264.82   18.62
   4  -3   4  300.85   17.52
   4  -3   4  293.54   26.43
  -4   3  -4  304.89   19.19
  -4   3  -4  269.77   18.47
  -4   3  -4  331.36   36.93
   4  -3   5    8.11    8.11
   4  -3   5    9.97    7.17
   4  -3   5   20.64   13.56
   4  -3   5    2.62    6.97
  -4   3  -5    8.45   10.91
  -4   3  -5   12.83    5.31
   4  -3   6  988.91   41.81
   4  -3   6 1024.37   44.33
   4  -3   6  974.70   53.86
   4  -3   6 1040.74   51.44
  -4   3  -6 1009.84   44.82
  -4   3  -6 1009.32   44.60
   4  -3   7 1581.40   90.72
   4  -3   7 1390.00   61.72
   4  -3   7 1579.18  105.19
  -4   3  -7 1504.74   70.25
  -4   3  -7 1354.59   60.99
  -4   3  -7 1256.97   58.96
   4  -3   8 1059.96   65.43
   4  -3   8  983.69   51.38
   4  -3   8 1059.80   76.69
  -4   3  -8 1020.87   60.14
  -4   3  -8 1035.06   55.20
   4  -3   9 1150.86   62.29
   4  -3   9 1214.42   50.47
   4  -3   9 1194.59   58.63
  -4   3  -9 1221.22   76.80
  -4   3  -9 1248.95   54.21
   4  -3  10  214.20   29.57
   4  -3  10  272.07   58.67
  -4   3 -10  195.88   22.59
   4  -3  11  464.00   62.18
   4  -3  11  400.45   35.09
  -4   3 -11  373.14   20.27
  -4   3 -11  437.34   27.30
   4  -3  12  243.81   43.28
   4  -3  12  257.06   34.56
  -4   3 -12  214.96   49.59
   4  -3  13   83.73   26.01
   4  -3  13  116.48   44.22
  -4   3 -13   73.81   34.43
   4  -3  14   82.18   25.86
   4  -3  14   81.09   24.51
  -4   3 -14   86.53   25.84
   4  -3  15   39.79   18.82
  -4   3 -15   27.83   21.74
   4  -3  16  558.15   88.79
  -4   3 -16  595.91   56.52
   4  -3  17  244.33  108.51
  -4   3 -17  372.65   43.70
  -4   3 -18  103.75   44.25
   4  -2 -20    6.43    6.42
   4  -2 -19   86.96   32.09
  -4   2  19   79.24   42.34
  -4   2  19   37.40   40.45
   4  -2 -18  112.26   27.59
   4  -2 -18   73.94   29.97
  -4   2  18   67.12   23.35
  -4   2  18   73.48   39.41
   4  -2 -17  578.55   62.45
   4  -2 -17  671.86   47.00
  -4   2  17  703.99   40.78
  -4   2  17  492.91   51.80
   4  -2 -16   60.48   18.16
   4  -2 -16   40.11   24.78
  -4   2  16   50.36   22.45
  -4   2  16   61.87   24.86
   4  -2 -15  139.19   41.11
   4  -2 -15  119.98   54.53
  -4   2  15  119.21   44.45
  -4   2  15  188.74   48.37
   4  -2 -14  605.49   52.11
   4  -2 -14  661.74   53.39
  -4   2  14  556.27   61.86
  -4   2  14  592.61   59.92
   4  -2 -13 3329.38  114.52
   4  -2 -13 3248.89  102.66
  -4   2  13 3160.71  122.50
  -4   2  13 3194.36  121.46
   4  -2 -12 3616.75  140.17
   4  -2 -12 3482.32  125.86
  -4   2  12 3536.59  123.20
  -4   2  12 3699.76  131.46
   4  -2 -11  519.24   41.37
   4  -2 -11  620.61   45.11
  -4   2  11  572.68   46.43
  -4   2  11  595.49   71.15
   4  -2 -10  311.81   38.43
   4  -2 -10  342.70   43.20
  -4   2  10  364.89   36.83
  -4   2  10  336.57   34.90
   4  -2  -9 1894.58   82.15
   4  -2  -9 1932.18   91.68
  -4   2   9 1926.08   88.68
  -4   2   9 2023.45   88.64
   4  -2  -8 2684.71   85.57
   4  -2  -8 2664.06   55.64
  -4   2   8 2645.55   54.99
  -4   2   8 2569.93  111.77
   4  -2  -7 1236.90   54.24
   4  -2  -7 1140.75   46.83
   4  -2  -7 1187.71   50.09
  -4   2   7 1270.16   59.98
  -4   2   7 1140.65   47.22
  -4   2   7 1216.43   56.63
   4  -2  -6 2809.12   80.51
   4  -2  -6 2797.66   81.36
  -4   2   6 2731.66   79.45
  -4   2   6 2746.49   78.01
  -4   2   6 2641.63   85.43
   4  -2  -5  587.99   31.03
   4  -2  -5  560.94   27.84
   4  -2  -5  519.51   26.27
  -4   2   5  566.56   33.10
  -4   2   5  603.88   35.37
  -4   2   5  589.80   31.87
   4  -2  -4  804.78   33.48
   4  -2  -4  701.01   25.91
   4  -2  -4  723.47   26.44
  -4   2   4  738.51   27.30
  -4   2   4  714.87   26.30
  -4   2   4  640.24   28.59
   4  -2  -3 2009.44   61.94
   4  -2  -3 2015.33   57.82
   4  -2  -3 1955.13   59.04
  -4   2   3 1965.25   59.76
  -4   2   3 1918.70   55.32
  -4   2   3 1980.18   61.95
   4  -2  -2 1736.91   53.49
   4  -2  -2 1759.39   52.83
   4  -2  -2 1742.56   49.14
   4  -2  -2 1734.12   48.90
   4  -2  -2 1733.72   54.11
  -4   2   2 1727.05   51.99
  -4   2   2 1842.63   58.93
  -4   2   2 1752.88   53.15
   4  -2  -1  774.35   31.53
   4  -2  -1  834.74   31.73
   4  -2  -1  790.64   27.29
   4  -2  -1  816.46   29.79
   4  -2  -1  840.74   29.74
   4  -2  -1  818.33   30.07
  -4   2   1  820.08   29.51
  -4   2   1  813.99   32.02
   4  -2   0 3358.47   28.05
   4  -2   0 3394.77   59.15
   4  -2   0 3318.52   22.52
   4  -2   0 3227.89   91.67
   4  -2   0 3330.64   30.64
  -4   2   0 3225.49   91.02
  -4   2   0 3230.58   91.67
  -4   2   0 3274.25  100.40
   4  -2   1  495.80   21.99
   4  -2   1  477.35   30.96
   4  -2   1  498.88   20.57
   4  -2   1  515.18   26.60
   4  -2   1  475.82   24.97
  -4   2  -1  466.47   31.94
  -4   2  -1  497.55   21.27
   4  -2   2   10.85    6.64
   4  -2   2   10.48    5.41
   4  -2   2   12.54   14.11
   4  -2   2   13.71    8.18
   4  -2   2   15.30    6.96
   4  -2   2   -4.69    8.40
  -4   2  -2   17.24    9.63
  -4   2  -2   10.00    8.03
   4  -2   3   14.34    5.09
   4  -2   3   17.75    7.85
   4  -2   3   18.06   10.46
   4  -2   3   16.88    5.97
   4  -2   3    8.00    7.47
  -4   2  -3   11.67    7.69
  -4   2  -3   15.41    9.77
   4  -2   4   29.14    8.14
   4  -2   4   39.51    7.59
   4  -2   4   42.59    8.41
   4  -2   4   40.95   12.63
  -4   2  -4   45.41   21.14
  -4   2  -4   41.69   13.54
   4  -2   5 1787.48   59.53
   4  -2   5 1664.88   54.14
  -4   2  -5 1729.88   60.67
  -4   2  -5 1609.52   57.04
  -4   2  -5 1640.44   55.14
   4  -2   6 1466.54   58.11
   4  -2   6 1421.84   65.58
   4  -2   6 1383.30   97.29
  -4   2  -6 1427.96   60.93
   4  -2   7 2307.20   91.18
   4  -2   7 2169.48  101.50
   4  -2   7 2517.90  158.34
  -4   2  -7 2354.82   99.69
   4  -2   8  848.70   30.71
   4  -2   8  786.33   44.63
  -4   2  -8  778.94   61.98
   4  -2   9 1436.53   78.97
   4  -2   9 1558.77   73.48
  -4   2  -9 1411.56   65.05
   4  -2  10  288.07   23.59
   4  -2  10  292.87   74.33
  -4   2 -10  294.80   28.27
   4  -2  11  461.08   54.82
   4  -2  11  565.52  116.27
  -4   2 -11  560.44   45.89
   4  -2  12  439.20   39.24
   4  -2  12  455.97  109.73
  -4   2 -12  504.94   37.66
   4  -2  13  654.49   56.17
   4  -2  13  636.16   61.88
  -4   2 -13  863.72   51.11
   4  -2  14   94.50   34.47
   4  -2  14  102.38   42.62
  -4   2 -14  161.09   38.17
   4  -2  15   31.44   30.18
  -4   2 -15   61.97   28.81
   4  -2  16  573.71   59.56
  -4   2 -16  493.94   59.83
   4  -2  17  845.80   63.12
  -4   2 -17  711.54   59.43
   4  -1 -21   76.26   45.43
  -4   1  21   77.93   29.56
   4  -1 -20   16.99   11.29
   4  -1 -20   27.95   17.43
  -4   1  20    5.49   15.90
  -4   1  20    7.61   10.64
   4  -1 -19   71.03   50.15
  -4   1  19   37.18   28.31
  -4   1  19   63.50   37.65
   4  -1 -18  203.07   43.24
   4  -1 -18  158.32   67.25
  -4   1  18  138.71   59.30
  -4   1  18  145.83   69.84
   4  -1 -17  369.01   92.28
   4  -1 -17  425.72   43.84
  -4   1  17  450.35   53.07
  -4   1  17  379.67   60.09
   4  -1 -16   43.20   17.00
   4  -1 -16   36.68   19.02
  -4   1  16   30.06   10.40
   4  -1 -15   11.12    6.83
   4  -1 -15   11.64   13.16
  -4   1  15   14.75    6.00
  -4   1  15   11.44    9.93
   4  -1 -14  737.92   67.35
   4  -1 -14  608.74   33.29
  -4   1  14  635.77   60.28
  -4   1  14  655.90   52.79
   4  -1 -13 2506.98   99.44
   4  -1 -13 2332.03   74.47
  -4   1  13 2274.36   85.42
  -4   1  13 2133.48   93.01
   4  -1 -12 2068.74   94.86
   4  -1 -12 2101.84   47.05
  -4   1  12 2103.09   58.55
  -4   1  12 2028.85   90.59
   4  -1 -11 1909.81   87.24
   4  -1 -11 1777.33   77.39
  -4   1  11 1944.35   83.44
  -4   1  11 1696.98   92.83
   4  -1 -10   12.09   12.27
   4  -1 -10   35.42    8.68
  -4   1  10   26.10   15.45
  -4   1  10   16.80    8.12
   4  -1  -9 1225.84   61.30
   4  -1  -9 1233.77   60.63
  -4   1   9 1198.50   60.61
  -4   1   9 1378.77   79.70
   4  -1  -8 1652.39   74.35
   4  -1  -8 1590.89   70.66
  -4   1   8 1680.80   71.20
  -4   1   8 1716.27   75.69
  -4   1   8 1567.89   73.06
   4  -1  -7 1826.83   65.80
   4  -1  -7 1833.72   61.09
  -4   1   7 1770.21   57.80
  -4   1   7 1812.50   61.68
  -4   1   7 1780.89   62.66
   4  -1  -6 2194.79   66.31
   4  -1  -6 2105.14   68.19
   4  -1  -6 2218.39   66.42
  -4   1   6 2276.40   71.22
  -4   1   6 2126.00   68.40
  -4   1   6 2162.85   73.05
   4  -1  -5  546.19   29.24
   4  -1  -5  525.97   29.20
   4  -1  -5  538.06   30.53
  -4   1   5  591.91   48.68
  -4   1   5  537.57   28.95
  -4   1   5  599.47   45.91
   4  -1  -4  138.65   27.25
   4  -1  -4   91.15   12.48
   4  -1  -4  115.68   26.88
  -4   1   4   89.24   29.02
  -4   1   4   87.78   10.60
  -4   1   4   99.98   20.84
   4  -1  -3 3316.96   32.79
   4  -1  -3 3201.47   94.20
  -4   1   3 3287.44   96.62
  -4   1   3 3418.06   62.64
  -4   1   3 3400.04   73.21
   4  -1  -2 2406.44   73.65
   4  -1  -2 2201.37   71.61
   4  -1  -2 2288.29   67.11
  -4   1   2 2310.39   70.45
  -4   1   2 2391.90   74.71
  -4   1   2 2294.82   66.92
   4  -1  -1  421.76   27.98
   4  -1  -1  430.30   16.22
   4  -1  -1  427.56   20.02
   4  -1  -1  475.34   20.74
  -4   1   1  469.36   20.77
  -4   1   1  439.74   20.34
  -4   1   1  455.59   36.28
   4  -1   0   13.98    6.96
   4  -1   0    1.56    6.56
   4  -1   0    5.56    6.32
   4  -1   0    5.65    4.76
   4  -1   0    7.09    9.03
  -4   1   0    6.43    5.63
  -4   1   0    3.90    3.64
  -4   1   0    9.91    5.67
   4  -1   1 5144.79   84.30
   4  -1   1 5237.44   85.65
   4  -1   1 5172.82   87.18
   4  -1   1 5236.63   86.95
   4  -1   1 5457.15   92.51
   4  -1   1 5200.21   90.22
  -4   1  -1 5178.30   90.28
  -4   1  -1 5205.61   84.72
   4  -1   2 1134.93   14.38
   4  -1   2 1120.46   17.19
   4  -1   2 1150.99   23.81
   4  -1   2 1224.05   38.25
   4  -1   2 1097.59   41.15
  -4   1  -2 1274.15   47.11
  -4   1  -2 1149.16   16.30
   4  -1   3 1096.79   45.12
   4  -1   3 1177.33   47.35
   4  -1   3 1225.69   49.77
   4  -1   3 1174.27   54.57
  -4   1  -3 1176.77   48.85
  -4   1  -3 1265.68   53.90
   4  -1   4   20.78    5.24
   4  -1   4   38.92    7.79
   4  -1   4   33.18    9.25
   4  -1   4   52.95   16.44
  -4   1  -4   38.95   19.60
  -4   1  -4   26.13   16.82
   4  -1   5  529.27   42.19
  -4   1  -5  590.04   60.13
  -4   1  -5  655.27   36.55
   4  -1   6 2360.05  108.87
  -4   1  -6 2211.91  101.39
  -4   1  -6 2224.41   95.47
   4  -1   7 2127.23   90.68
   4  -1   7 2346.21  139.65
  -4   1  -7 2119.96   90.51
   4  -1   8 1898.79   89.86
   4  -1   8 2192.48  136.00
  -4   1  -8 2026.36   90.06
   4  -1   9 1132.28   88.29
   4  -1   9 1060.26   33.25
  -4   1  -9 1156.31   55.41
   4  -1  10    9.76    6.17
   4  -1  10   12.31   22.43
  -4   1 -10   -2.19   11.60
   4  -1  11  188.78   47.10
   4  -1  11  174.56   37.89
  -4   1 -11  182.80   25.87
   4  -1  12  431.76   42.87
   4  -1  12  346.88   96.43
  -4   1 -12  403.72   27.31
   4  -1  13  298.03   56.67
   4  -1  13  288.00   59.36
  -4   1 -13  248.80   88.13
   4  -1  14  130.16   38.69
   4  -1  14  156.91   44.61
  -4   1 -14  133.36   36.70
   4  -1  15   25.82   15.44
   4  -1  15   26.85   17.92
  -4   1 -15   -4.31   16.49
   4  -1  16   75.38   30.37
  -4   1 -16   89.65   40.02
  -4   1 -17  246.72   88.24
   4   0 -21   69.75   41.75
  -4   0  21   58.89   40.42
  -4   0  20   20.27    8.99
   4   0 -19   86.48   34.65
   4   0 -19   89.27   27.70
  -4   0  19  102.20   28.08
   4   0 -18   30.46   22.64
   4   0 -18   34.50   11.42
  -4   0  18   39.34   32.98
  -4   0  18   16.99    8.70
   4   0 -17   43.16   24.03
  -4   0  17   58.00   43.36
  -4   0  17   39.60   29.00
   4   0 -16  168.25   50.55
   4   0 -16  237.52   56.23
  -4   0  16  153.68   49.98
   4   0 -15  770.79   41.54
   4   0 -15  765.20   42.83
  -4   0  15  651.09   36.33
  -4   0  15  736.33   69.92
   4   0 -14 2541.24  100.47
   4   0 -14 2541.68   98.83
  -4   0  14 2612.50  103.35
  -4   0  14 2123.83   96.23
   4   0 -13   27.63   27.35
   4   0 -13   31.67   10.11
  -4   0  13   18.24   15.98
  -4   0  13   29.64   20.73
   4   0 -12  383.27   48.62
   4   0 -12  388.48   46.44
  -4   0  12  310.64   32.71
  -4   0  12  374.94   28.75
   4   0 -11  653.75   50.48
   4   0 -11  619.42   44.34
  -4   0  11  660.21   61.78
  -4   0  11  612.45   42.32
   4   0 -10  339.43   36.73
   4   0 -10  303.59   35.38
  -4   0  10  349.51   29.15
  -4   0  10  346.98   63.15
   4   0  -9 1246.33   58.52
   4   0  -9 1303.29   73.61
  -4   0   9 1221.34   51.15
  -4   0   9 1277.62   56.16
  -4   0   9 1469.28   67.99
   4   0  -8 1409.44   78.14
   4   0  -8 1413.66   59.78
  -4   0   8 1470.56   59.62
  -4   0   8 1484.23   50.66
  -4   0   8 1429.48   66.16
   4   0  -7 2125.51   75.87
   4   0  -7 2051.42   68.37
  -4   0   7 2135.07   69.09
  -4   0   7 1857.35   63.69
  -4   0   7 2052.89   74.41
   4   0  -6  750.18   42.11
   4   0  -6  658.66   31.67
  -4   0   6  721.08   31.45
  -4   0   6  673.59   36.12
  -4   0   6  706.73   21.77
   4   0  -5  134.77   15.91
   4   0  -5  136.42    8.69
   4   0  -5  167.89   13.75
  -4   0   5  200.84   41.01
  -4   0   5  144.48    5.94
  -4   0   5  189.16   44.49
   4   0  -4 3121.53   91.99
   4   0  -4 3198.59   91.94
  -4   0   4 3260.04   96.09
  -4   0   4 3271.90   95.42
   4   0  -3 1951.67   62.45
   4   0  -3 1886.02   56.71
  -4   0   3 1951.11   61.92
  -4   0   3 1934.50   58.73
  -4   0   3 1984.54   69.90
   4   0  -2   83.50   18.99
   4   0  -2   70.60   19.68
   4   0  -2   95.98   19.15
  -4   0   2   86.64   17.08
  -4   0   2   80.15   17.51
  -4   0   2   74.91   14.11
   4   0  -1 3974.65   67.12
   4   0  -1 4213.16   74.93
   4   0  -1 4106.72   73.01
   4   0  -1 4200.50   66.38
  -4   0   1 4051.43   76.69
  -4   0   1 4095.96   69.67
  -4   0   1 4140.06   66.09
   4   0   0   13.04    6.98
   4   0   0    2.31   10.10
   4   0   0   11.65   10.96
   4   0   0   20.36    5.31
   4   0   0   35.15   12.48
  -4   0   0   23.77    9.97
  -4   0   0    7.43    5.75
  -4   0   0    8.19    5.48
   4   0   111592.83  183.63
   4   0   111864.90  187.71
   4   0   112445.44  200.49
  -4   0  -111626.48  181.20
  -4   0  -111457.82  180.63
   4   0   2 5392.79   90.20
   4   0   2 5524.92   92.20
   4   0   2 5414.89   95.82
   4   0   2 5363.43  102.15
  -4   0  -2 5281.19   91.68
  -4   0  -2 5218.87   96.54
   4   0   3 5178.49   85.20
   4   0   3 4973.63   81.44
   4   0   3 5080.80   90.38
  -4   0  -3 5022.68   91.35
  -4   0  -3 5307.05   98.58
  -4   0  -4  975.15   51.44
  -4   0  -4 1098.69   53.41
   4   0   5   70.80   24.09
  -4   0  -5   54.42   39.97
  -4   0  -5   70.32   20.00
  -4   0  -6 1844.95   87.04
  -4   0  -6 1960.94  122.45
   4   0   7 3387.03  112.41
   4   0   7 3266.73  105.95
  -4   0  -7 3187.11   96.46
   4   0   8 3048.01   98.89
   4   0   8 2887.13  102.54
  -4   0  -8 3024.66   95.60
   4   0   9 1400.53   66.45
   4   0   9 1265.95   60.98
  -4   0  -9 1535.77   70.48
   4   0  10   12.56    7.66
   4   0  10   22.47   21.42
  -4   0 -10   18.69    9.32
   4   0  11  876.53   88.19
   4   0  11 1011.05   57.36
  -4   0 -11 1047.44   47.26
   4   0  12  307.41   30.19
   4   0  12  360.05   56.93
  -4   0 -12  373.95   30.22
   4   0  13  158.81   49.23
   4   0  13  185.26   48.96
  -4   0 -13  201.02   64.66
   4   0  14  102.03   46.13
   4   0  14  211.37   46.58
  -4   0 -14  167.66   59.34
   4   0  15   38.44   24.15
   4   0  15   39.45   16.72
  -4   0 -15   64.49   29.82
   4   0  16   31.11   25.17
  -4   0 -16   24.80   16.39
  -4   0 -17   31.11   13.71
  -4  -1  20   19.83   14.12
  -4  -1  20   15.55   10.40
   4   1 -19   28.05   16.13
   4   1 -19    9.92   10.06
  -4  -1  19   56.17   27.04
  -4  -1  19   36.42   16.20
   4   1 -18   91.46   51.63
   4   1 -18  209.37   28.91
  -4  -1  18  147.61   54.97
  -4  -1  18  183.27   37.11
   4   1 -17  214.71   28.25
   4   1 -17  165.17   25.04
  -4  -1  17  138.54   56.37
  -4  -1  17  162.81   52.60
   4   1 -16   28.78   14.28
   4   1 -16   38.67   15.94
  -4  -1  16   20.73   13.84
  -4  -1  16   26.11   12.89
   4   1 -15   35.17   17.14
  -4  -1  15   36.92   17.74
  -4  -1  15   30.29   12.85
   4   1 -14 1755.69   74.71
   4   1 -14 1838.80   95.40
  -4  -1  14 1945.04   81.47
  -4  -1  14 1975.56  105.52
   4   1 -13  191.46   22.01
   4   1 -13  194.41   44.92
  -4  -1  13  199.52   54.34
  -4  -1  13  195.24   41.44
   4   1 -12  226.83   27.45
   4   1 -12  203.42   22.32
  -4  -1  12  274.02   36.48
  -4  -1  12  172.71   37.48
   4   1 -11    5.62    4.64
   4   1 -11    9.96    5.20
  -4  -1  11   13.48   15.92
  -4  -1  11   15.76   11.35
   4   1 -10  448.20   39.99
   4   1 -10  473.86   35.08
  -4  -1  10  511.93   42.11
  -4  -1  10  529.91   55.65
   4   1  -9 1835.78   86.00
   4   1  -9 1937.70   94.81
  -4  -1   9 1603.74   69.41
  -4  -1   9 1687.05   82.54
  -4  -1   9 1913.30  115.02
   4   1  -8 5053.36  121.12
  -4  -1   8 5014.06  117.07
  -4  -1   8 5196.50  128.12
  -4  -1   8 5235.64  138.45
   4   1  -7 4584.94   92.00
   4   1  -7 4154.08   72.80
  -4  -1   7 4211.59   75.29
  -4  -1   7 4407.55   82.73
  -4  -1   7 4331.88   85.54
   4   1  -6 1417.14   77.51
   4   1  -6 1474.60   49.85
  -4  -1   6 1379.19   16.51
  -4  -1   6 1296.88   56.83
  -4  -1   6 1402.24   55.25
   4   1  -5   83.42   26.31
  -4  -1   5   81.14    9.16
  -4  -1   5   72.18   11.97
  -4  -1   5   95.02   16.38
  -4  -1   5   81.99   18.66
   4   1  -4 1735.63   53.26
  -4  -1   4 1712.30   53.68
  -4  -1   4 1649.18   60.14
   4   1  -3   37.31   11.99
   4   1  -3    4.53    6.97
  -4  -1   3   12.10   14.14
  -4  -1   3    4.27    7.46
  -4  -1   3   18.16    6.57
   4   1  -2 3444.53   65.28
   4   1  -2 3413.77   72.81
   4   1  -2 3362.46   16.76
  -4  -1   2 3408.97   54.18
  -4  -1   2 3486.97   72.86
  -4  -1   2 3453.83   60.42
   4   1  -1 1059.28   38.55
   4   1  -1 1120.71   34.01
   4   1  -1 1072.30   35.86
  -4  -1   1 1093.88   36.02
  -4  -1   1 1054.70   40.60
  -4  -1   1 1042.45   45.44
   4   1   0  546.83   25.01
   4   1   0  588.02   27.38
   4   1   0  597.89   28.51
  -4  -1   0  544.97   23.26
  -4  -1   0  579.12   38.11
  -4  -1   0  593.19   25.47
   4   1   1 8981.35  148.31
   4   1   1 8707.08  155.47
   4   1   1 8294.64  140.06
  -4  -1  -1 8751.59  147.27
  -4  -1  -1 8521.21  148.00
  -4  -1  -1 8279.95  138.53
   4   1   2  915.54   37.37
   4   1   2  956.64   46.94
   4   1   2  821.90   41.67
  -4  -1  -2  919.58   39.70
  -4  -1  -2  898.93   42.26
  -4  -1  -2  853.12   35.29
   4   1   3 2937.88  111.43
  -4  -1  -3 2553.73   79.03
  -4  -1  -3 2577.89   77.68
   4   1   4   80.30   20.97
  -4  -1  -4   27.47   28.16
  -4  -1  -4  100.89   26.04
   4   1   5  693.14   79.00
  -4  -1  -5  612.21   49.24
  -4  -1  -5  579.34   34.86
   4   1   6 1282.88   63.94
  -4  -1  -6 1222.82   72.84
  -4  -1  -6 1157.72   56.53
   4   1   7 3814.93  141.79
  -4  -1  -7 3527.94  116.86
  -4  -1  -7 3463.45  110.13
   4   1   8 1497.79   93.19
   4   1   8 1289.15  100.73
  -4  -1  -8 1409.47   67.82
   4   1   9   58.91   14.12
   4   1   9   32.16   21.74
  -4  -1  -9   66.87   25.22
   4   1  10   18.85   14.68
   4   1  10   17.02   10.60
  -4  -1 -10   13.83   13.21
   4   1  11 1153.94   92.80
   4   1  11 1310.66  111.59
  -4  -1 -11 1243.53   99.32
   4   1  12 1279.68   80.19
   4   1  12 1272.48  108.38
  -4  -1 -12 1390.50   63.67
   4   1  13  420.76   51.41
   4   1  13  483.89   89.94
  -4  -1 -13  394.29   55.98
   4   1  14  216.27   25.95
  -4  -1 -14  193.27   71.38
   4   1  15   39.18   19.22
   4   1  15   27.12   21.33
  -4  -1 -15   73.02   22.00
   4   1  16  106.23   44.92
  -4  -1 -16  176.99   89.25
   4   2 -22   88.60   53.23
   4   2 -21  437.27   53.75
   4   2 -21  423.40   78.68
  -4  -2  21  485.31   64.84
   4   2 -20   64.43   44.28
   4   2 -20   78.93   50.39
   4   2 -19  317.90   82.02
   4   2 -19  151.86   52.85
  -4  -2  19  162.84   68.40
  -4  -2  19  124.57   52.18
   4   2 -18  207.79   69.06
   4   2 -18  231.37   30.75
  -4  -2  18  216.28   80.10
  -4  -2  18  230.01   37.83
   4   2 -17   93.55   36.41
   4   2 -17  114.32   35.20
  -4  -2  17   73.53   24.71
  -4  -2  17   75.32   28.69
   4   2 -16  436.17   57.74
   4   2 -16  504.19   49.12
  -4  -2  16  535.20   52.18
  -4  -2  16  511.05   47.94
   4   2 -15   29.79   19.83
   4   2 -15   20.46   17.05
  -4  -2  15   45.67   19.70
  -4  -2  15   48.82   11.78
   4   2 -14  569.54   50.03
   4   2 -14  633.28   59.16
  -4  -2  14  581.87   52.35
  -4  -2  14  596.65   49.90
   4   2 -13  355.18   51.82
   4   2 -13  347.11   36.51
  -4  -2  13  387.78   26.31
  -4  -2  13  291.99   25.86
   4   2 -12  917.21   55.15
   4   2 -12  873.18   54.63
  -4  -2  12  846.65   81.07
  -4  -2  12  918.48   79.44
   4   2 -11   44.87   17.05
   4   2 -11   47.99   21.59
  -4  -2  11   37.87   11.93
  -4  -2  11   50.10   12.81
   4   2 -10  191.48   29.37
   4   2 -10  218.19   28.33
  -4  -2  10  252.16   37.04
  -4  -2  10  236.18   27.20
   4   2  -9 1351.96   58.89
   4   2  -9 1471.78   72.53
  -4  -2   9 1354.39   57.09
  -4  -2   9 1366.01   79.18
  -4  -2   9 1566.28   76.74
   4   2  -8 7729.69  190.85
   4   2  -8 7763.42  181.00
  -4  -2   8 7897.66  182.38
  -4  -2   8 8085.91  193.24
  -4  -2   8 7900.68  190.95
   4   2  -7 4086.54   89.03
   4   2  -7 3956.82   30.64
  -4  -2   7 3872.44  106.55
  -4  -2   7 3929.98   43.48
  -4  -2   7 3953.03   44.53
   4   2  -6    9.66   10.79
  -4  -2   6    3.73    9.12
  -4  -2   6    0.66    2.68
  -4  -2   6   25.09    9.70
  -4  -2   6   -0.30   10.79
   4   2  -5 1390.33   68.21
  -4  -2   5 1383.09   16.19
  -4  -2   5 1357.37   53.71
  -4  -2   5 1451.99   62.01
  -4  -2   5 1339.78   55.82
   4   2  -4 2039.51   68.07
   4   2  -4 1974.41   73.07
  -4  -2   4 2006.43   64.32
  -4  -2   4 2106.69   71.60
  -4  -2   4 2080.94   65.97
   4   2  -3  594.70   25.64
   4   2  -3  551.61   25.43
   4   2  -3  603.28   23.72
  -4  -2   3  571.14   21.88
  -4  -2   3  554.02   45.24
  -4  -2   3  584.16   22.87
   4   2  -2 1211.62   46.70
   4   2  -2 1323.23   50.56
   4   2  -2 1260.66   38.24
  -4  -2   2 1261.96   37.37
  -4  -2   2 1292.35   42.25
  -4  -2   2 1230.38   38.13
   4   2  -1 2572.47   74.53
   4   2  -1 2486.00   80.97
   4   2  -1 2497.08   71.69
  -4  -2   1 2379.76   68.44
  -4  -2   1 2472.39   74.71
  -4  -2   1 2331.15   69.07
   4   2   0  760.25   32.46
   4   2   0  842.58   39.12
   4   2   0  810.79   40.62
  -4  -2   0  756.25   31.86
  -4  -2   0  848.39   58.86
  -4  -2   0  773.42   32.70
   4   2   1 2701.45   76.62
   4   2   1 2602.79   75.27
   4   2   1 2679.70   83.54
  -4  -2  -1 2515.66   70.14
  -4  -2  -1 2670.10   80.25
   4   2   2 1255.82   50.24
   4   2   2 1193.12   56.13
   4   2   2 1166.37   48.79
  -4  -2  -2 1235.62   59.48
  -4  -2  -2 1155.49   51.21
  -4  -2  -2 1174.26   46.17
   4   2   3  301.47   11.01
   4   2   3  328.16   28.31
  -4  -2  -3  292.46    8.54
  -4  -2  -3  374.57   66.05
  -4  -2  -3  269.30   14.61
   4   2   4  304.75   79.48
  -4  -2  -4  315.82   30.84
  -4  -2  -4  249.02   16.13
   4   2   5  161.79   41.74
  -4  -2  -5  196.06   20.97
  -4  -2  -5  170.48   18.38
  -4  -2  -6 6255.89  188.62
  -4  -2  -6 6071.92  170.87
   4   2   7 3413.41  133.79
  -4  -2  -7 3343.35  140.76
  -4  -2  -7 3303.97  140.22
   4   2   8  637.59   51.52
   4   2   8  697.02   42.22
  -4  -2  -8  651.06   56.02
   4   2   9   54.41   38.17
   4   2   9   69.61   24.11
  -4  -2  -9   85.00   22.74
   4   2  10  145.53   40.34
   4   2  10  134.19   66.04
  -4  -2 -10  120.70   37.62
   4   2  11 1492.62   81.38
   4   2  11 1663.27   77.07
  -4  -2 -11 1500.21   95.32
   4   2  12 1415.40  116.39
   4   2  12 1663.37  111.26
  -4  -2 -12 1451.43   91.62
   4   2  13 1153.88   77.83
   4   2  13 1408.16   95.23
  -4  -2 -13 1199.01  111.99
   4   2  14  508.15   82.37
   4   2  14  574.08  108.74
  -4  -2 -14  730.11   33.93
   4   2  15   12.78   12.51
   4   2  15   24.08   15.75
  -4  -2 -15   13.61   18.86
   4   2  16  118.14   36.26
  -4  -2 -16  141.22   52.48
   4   3 -22  809.50   84.57
   4   3 -22  740.85   67.56
   4   3 -21  298.89   98.28
   4   3 -21  364.32   53.75
  -4  -3  21  361.52   94.39
   4   3 -20   13.32   10.62
   4   3 -20   -1.98   12.58
  -4  -3  20    6.77   12.43
   4   3 -19   38.23   19.22
   4   3 -19   55.65   26.50
  -4  -3  19  122.01   38.23
  -4  -3  19   63.13   27.09
   4   3 -18  510.27  116.07
  -4  -3  18  481.35   64.82
  -4  -3  18  527.63   38.04
   4   3 -17  379.40   82.45
   4   3 -17  384.81   47.77
  -4  -3  17  391.82   35.97
  -4  -3  17  392.83   55.12
   4   3 -16  174.98   47.43
   4   3 -16  131.49   47.85
  -4  -3  16  204.38   58.75
  -4  -3  16  174.96   41.69
   4   3 -15  194.25   69.91
   4   3 -15  273.66   37.30
  -4  -3  15  228.90   48.78
  -4  -3  15  237.32   24.20
   4   3 -14 1808.64   74.84
   4   3 -14 1745.89   70.83
  -4  -3  14 1727.93   72.76
  -4  -3  14 1756.83   82.43
   4   3 -13 1456.55   90.25
   4   3 -13 1523.04   73.36
  -4  -3  13 1407.90   87.65
  -4  -3  13 1431.65   65.17
   4   3 -12  888.26   50.08
   4   3 -12  865.40   63.13
  -4  -3  12  943.60   56.10
  -4  -3  12  898.25   49.75
   4   3 -11  631.56   35.38
   4   3 -11  660.85   39.78
  -4  -3  11  727.28   50.21
  -4  -3  11  661.40   53.27
   4   3 -10   34.28   14.80
   4   3 -10   21.32    8.61
  -4  -3  10   32.96    8.61
  -4  -3  10   53.13   18.73
   4   3  -9 2076.67   94.39
   4   3  -9 1938.99   86.27
  -4  -3   9 1916.41   78.59
  -4  -3   9 2060.50   90.04
  -4  -3   9 2173.48  116.16
   4   3  -8 1074.00   80.28
   4   3  -8 1063.30   45.32
  -4  -3   8 1025.29   47.82
  -4  -3   8 1059.86   53.29
  -4  -3   8  988.19   50.25
   4   3  -7 2201.73   94.44
  -4  -3   7 2095.52   89.68
  -4  -3   7 2176.81   93.84
  -4  -3   7 2180.76  101.49
  -4  -3   7 2177.96   99.38
   4   3  -6  529.51   30.03
  -4  -3   6  508.33   25.58
  -4  -3   6  484.28   29.81
  -4  -3   6  554.61   31.71
  -4  -3   6  573.59   33.59
   4   3  -5   64.35   16.06
   4   3  -5   46.61   14.53
  -4  -3   5   57.81   11.27
  -4  -3   5   52.36   12.37
  -4  -3   5   42.68   10.77
   4   3  -4 2672.93   83.30
   4   3  -4 2737.13   84.64
  -4  -3   4 2496.22   70.29
  -4  -3   4 2584.61   81.21
  -4  -3   4 2620.56   74.01
   4   3  -3  927.79   53.58
   4   3  -3  959.53   44.73
   4   3  -3  889.88   37.19
  -4  -3   3  911.87   37.68
  -4  -3   3  916.48   41.74
  -4  -3   3  865.93   47.41
   4   3  -2 4728.36   89.40
   4   3  -2 4826.05  115.55
   4   3  -2 4598.17   83.64
  -4  -3   2 4592.67   81.28
  -4  -3   2 4260.85   93.94
  -4  -3   2 4545.41   80.07
   4   3  -1 1148.92   48.84
   4   3  -1 1139.37   72.36
   4   3  -1 1076.67   43.82
  -4  -3   1 1121.18   45.36
  -4  -3   1 1048.72   46.21
  -4  -3   1 1085.81   44.55
   4   3   0  756.74   36.27
   4   3   0  861.76   55.62
   4   3   0  847.59   37.84
  -4  -3   0  835.55   38.56
  -4  -3   0  869.72   47.39
  -4  -3   0  764.44   32.14
   4   3   1  536.43   28.61
   4   3   1  540.08   35.56
   4   3   1  556.10   32.98
  -4  -3  -1  501.38   28.68
  -4  -3  -1  543.52   48.71
  -4  -3  -1  530.66   27.61
   4   3   2  166.54   21.33
   4   3   2  231.16   51.13
  -4  -3  -2  166.67   11.80
  -4  -3  -2  227.79   45.01
  -4  -3  -2  189.28   42.60
   4   3   3   29.28    9.81
  -4  -3  -3   46.31    7.20
  -4  -3  -3  135.40   43.02
   4   3   4  -20.68   17.11
  -4  -3  -4    4.43    1.49
  -4  -3  -4  -11.79   15.96
  -4  -3  -4   14.17    9.96
   4   3   5  458.76   49.05
  -4  -3  -5  426.31   36.92
  -4  -3  -5  404.86   39.59
   4   3   6 1209.60   65.27
  -4  -3  -6 1236.53   74.98
  -4  -3  -6 1188.81   74.84
   4   3   7 3107.36  140.72
  -4  -3  -7 3270.27  126.96
  -4  -3  -7 3253.21  123.47
   4   3   8 1447.37  114.65
  -4  -3  -8 1445.85   71.04
   4   3   9   51.79   22.27
   4   3   9   89.92   33.02
  -4  -3  -9  111.99   31.80
   4   3  10  328.69   75.19
   4   3  10  284.93  120.13
  -4  -3 -10  357.35   59.33
   4   3  11 1075.13   71.20
   4   3  11  915.22  109.54
  -4  -3 -11 1033.03   60.75
   4   3  12 1170.42  124.57
   4   3  12 1245.08   82.46
  -4  -3 -12 1255.03   87.21
   4   3  13  715.87   89.13
   4   3  13  603.43  124.77
  -4  -3 -13  596.35   81.02
   4   3  14   31.95    9.40
   4   3  14   30.17   14.67
  -4  -3 -14   32.78   16.42
   4   3  15   68.92   38.82
  -4  -3 -15   97.30   43.54
   4   3  16  526.78   76.54
   4   4 -22  322.43   61.80
   4   4 -22  264.69   43.86
   4   4 -21   20.67   13.23
  -4  -4  21   13.42   26.28
   4   4 -20  175.76   60.60
  -4  -4  20  139.51   66.35
   4   4 -19  229.95   44.94
   4   4 -19  148.59   51.96
  -4  -4  19  174.73   67.69
   4   4 -18  346.78   60.31
   4   4 -18  202.75   77.13
  -4  -4  18  355.98   51.00
  -4  -4  18  325.69   36.99
   4   4 -17  673.73   55.44
   4   4 -17  525.54   55.79
  -4  -4  17  666.30   49.40
  -4  -4  17  644.34   60.29
   4   4 -16   72.77   26.67
   4   4 -16  104.65   32.55
  -4  -4  16   61.69   32.04
  -4  -4  16   88.94   26.81
   4   4 -15  488.36   49.73
   4   4 -15  461.62   44.46
  -4  -4  15  401.59   99.08
  -4  -4  15  414.89   37.39
   4   4 -14 1073.45   58.73
   4   4 -14 1071.90   57.62
  -4  -4  14 1039.16   87.54
  -4  -4  14 1001.18   64.18
   4   4 -13 2248.62   89.41
   4   4 -13 2288.30   88.12
  -4  -4  13 2323.62   88.48
  -4  -4  13 2341.19   84.44
   4   4 -12  284.16   64.33
   4   4 -12  289.82   38.24
  -4  -4  12  284.44   60.48
  -4  -4  12  252.13   29.92
   4   4 -11  221.25   57.70
   4   4 -11  251.18   33.21
  -4  -4  11  242.06   51.04
  -4  -4  11  271.73   40.60
   4   4 -10  674.65   37.32
   4   4 -10  645.50   45.20
  -4  -4  10  711.19   67.57
  -4  -4  10  641.05   35.53
   4   4  -9 2377.24  111.06
  -4  -4   9 2242.63   93.04
  -4  -4   9 2387.30  108.03
  -4  -4   9 2437.77  111.55
   4   4  -8 2936.32   89.06
  -4  -4   8 2920.86   77.57
  -4  -4   8 2902.73   72.13
  -4  -4   8 2971.17  111.37
  -4  -4   8 3154.52   89.76
   4   4  -7 2256.63  104.73
   4   4  -7 2371.66  106.64
  -4  -4   7 2288.86   97.95
  -4  -4   7 2342.29  108.93
  -4  -4   7 2282.48   96.99
   4   4  -6  902.50   48.12
   4   4  -6  903.67   43.64
  -4  -4   6  843.94   44.01
  -4  -4   6  817.94   61.39
  -4  -4   6  923.03   38.67
   4   4  -5   94.42   28.49
   4   4  -5   79.70   25.46
  -4  -4   5   63.04   12.05
  -4  -4   5   93.92   27.30
  -4  -4   5   92.24   14.38
   4   4  -4 2552.74   76.32
   4   4  -4 2506.75   72.56
   4   4  -4 2530.44   87.45
  -4  -4   4 2605.41   74.01
  -4  -4   4 2664.65   86.24
   4   4  -3 3516.37  104.37
   4   4  -3 3299.39   92.89
   4   4  -3 3461.38  102.98
  -4  -4   3 3347.05   93.21
  -4  -4   3 3477.53  102.04
   4   4  -2 2082.14   73.24
   4   4  -2 2118.67   74.67
   4   4  -2 1931.61   64.91
  -4  -4   2 2139.17   72.02
  -4  -4   2 1950.11   84.56
  -4  -4   2 2056.39   72.36
   4   4  -1  119.25   29.19
   4   4  -1  188.92   37.02
   4   4  -1  147.17    9.72
  -4  -4   1  137.92   14.10
  -4  -4   1  162.15   16.71
  -4  -4   1  151.69   11.29
   4   4   0    6.31    5.73
   4   4   0    7.73    5.99
  -4  -4   0    1.29    5.48
  -4  -4   0    4.68    5.47
  -4  -4   0    4.07   10.24
   4   4   1  116.56   32.20
   4   4   1   58.77   16.22
  -4  -4  -1   47.38    8.04
  -4  -4  -1   36.87   35.83
  -4  -4  -1   97.90   17.98
   4   4   2 1536.79   72.05
   4   4   2 1630.54   88.35
  -4  -4  -2 1436.80   65.66
  -4  -4  -2 1642.05  114.11
  -4  -4  -2 1560.90   78.03
   4   4   3   38.55    8.44
   4   4   3   91.63   34.37
  -4  -4  -3   47.50    7.02
  -4  -4  -3   53.27   22.33
  -4  -4  -3   50.40   13.93
   4   4   4    0.50    1.36
   4   4   4   -2.36   12.73
  -4  -4  -4    8.26    9.67
  -4  -4  -4    1.83    6.88
   4   4   5  303.90   73.69
  -4  -4  -5  285.62    6.74
  -4  -4  -5  285.78   22.38
  -4  -4  -5  324.71   40.82
   4   4   6  243.95   24.45
  -4  -4  -6  286.33   57.59
  -4  -4  -6  252.42   31.52
   4   4   7  250.69   70.96
  -4  -4  -7  234.54   27.94
  -4  -4  -7  276.75   40.33
   4   4   8  248.81   51.35
  -4  -4  -8  261.12   34.48
   4   4   9   45.03   28.24
   4   4   9   19.12   20.47
  -4  -4  -9   27.05   12.97
   4   4  10  701.56   72.87
   4   4  10  827.91   42.10
  -4  -4 -10  757.28   45.43
   4   4  11  648.04   61.90
   4   4  11  572.11   94.83
  -4  -4 -11  666.15   51.99
   4   4  12  855.73   86.43
   4   4  12  936.99   57.18
  -4  -4 -12  827.19   76.10
   4   4  13  676.57   35.66
   4   4  13  621.07   40.05
  -4  -4 -13  635.29   35.27
   4   4  14   17.66   17.41
   4   4  14   44.72   31.62
  -4  -4 -14   20.66   23.41
   4   4  15   55.43   35.00
   4   4  15   51.62   24.37
   4   5 -22  531.85   94.49
   4   5 -22  484.89   81.59
   4   5 -21  206.30   75.24
   4   5 -21  223.54   48.07
  -4  -5  21  161.58   70.36
   4   5 -20   30.48   13.67
   4   5 -20   33.49   23.18
  -4  -5  20   50.76   21.15
   4   5 -19  713.82   44.74
   4   5 -19  454.55   70.49
  -4  -5  19  555.04  104.48
   4   5 -18  715.44   59.46
   4   5 -18  726.82   67.03
  -4  -5  18  734.24   93.84
   4   5 -17  712.25   48.06
   4   5 -17  531.44   70.22
  -4  -5  17  579.30   60.38
  -4  -5  17  533.52   44.51
   4   5 -16  342.16   35.19
   4   5 -16  274.54   34.03
  -4  -5  16  245.59   73.59
  -4  -5  16  342.41   28.87
   4   5 -15  108.47   25.03
   4   5 -15   68.81   22.19
  -4  -5  15   51.18   21.10
  -4  -5  15   72.57   25.86
   4   5 -14   21.57   10.60
   4   5 -14   18.71   15.20
  -4  -5  14   44.98   14.89
  -4  -5  14   19.58   10.25
   4   5 -13 1353.14   60.51
   4   5 -13 1128.92   66.72
  -4  -5  13 1187.34   43.52
  -4  -5  13 1184.87   42.19
   4   5 -12  116.88   46.64
   4   5 -12  156.49   32.83
  -4  -5  12  127.71   55.34
  -4  -5  12  155.44   35.95
   4   5 -11  299.31   29.13
   4   5 -11  313.24   41.05
  -4  -5  11  326.74   39.17
  -4  -5  11  304.37   18.99
   4   5 -10  983.12   50.97
  -4  -5  10 1052.03   47.75
  -4  -5  10 1018.48   49.73
   4   5  -9 2386.37  109.84
   4   5  -9 2454.54  104.20
  -4  -5   9 2332.96   99.12
  -4  -5   9 2420.24  107.69
   4   5  -8 2286.50   98.04
   4   5  -8 2290.58  102.08
  -4  -5   8 2234.29   92.22
  -4  -5   8 2136.11   91.56
   4   5  -7 2577.82  113.44
   4   5  -7 2447.03  105.92
  -4  -5   7 2290.61   93.82
  -4  -5   7 2502.07  106.90
  -4  -5   7 2451.03  101.50
   4   5  -6  124.16   65.82
   4   5  -6  136.52   23.38
  -4  -5   6   85.33   15.72
  -4  -5   6  109.58   39.83
  -4  -5   6  112.99   32.99
   4   5  -5  113.05   25.98
   4   5  -5   88.48   23.71
  -4  -5   5   60.41   17.00
  -4  -5   5   87.25   26.20
  -4  -5   5   87.22   25.08
   4   5  -4 1403.76   94.65
   4   5  -4 1339.47   55.96
   4   5  -4 1533.58   75.98
  -4  -5   4 1357.62   57.72
  -4  -5   4 1318.70   70.07
   4   5  -3 5461.42  145.78
   4   5  -3 5529.06  138.88
   4   5  -3 5722.25  160.24
  -4  -5   3 5578.03  135.11
  -4  -5   3 5686.40  139.12
   4   5  -2 2719.84   71.97
   4   5  -2 2522.12  108.65
   4   5  -2 2792.92   77.48
  -4  -5   2 2709.98   73.00
  -4  -5   2 2736.86   91.10
   4   5  -1  443.57   52.77
  -4  -5   1  386.13   24.09
  -4  -5   1  387.77   59.38
   4   5   0  666.49   45.74
   4   5   0  704.20   52.07
  -4  -5   0  700.76   38.83
  -4  -5   0  724.35   79.54
  -4  -5   0  707.86   57.39
   4   5   1  937.85   49.21
   4   5   1 1057.82   66.87
  -4  -5  -1  962.06   51.45
  -4  -5  -1  953.94   54.98
  -4  -5  -1 1065.77   56.59
   4   5   2 1268.79   55.82
   4   5   2 1471.74   72.07
  -4  -5  -2 1098.26   47.69
  -4  -5  -2 1291.92   64.63
  -4  -5  -2 1299.45   57.95
   4   5   3  222.26   22.17
   4   5   3  283.09   31.94
  -4  -5  -3  214.27   21.57
  -4  -5  -3  248.15   26.17
  -4  -5  -3  245.05   52.55
   4   5   4   49.28   11.40
   4   5   4   38.29   23.44
  -4  -5  -4   41.33    7.82
  -4  -5  -4   44.00   21.96
  -4  -5  -4   28.08    6.03
   4   5   5 1388.25   68.33
  -4  -5  -5 1363.56   54.83
  -4  -5  -5 1522.64   76.96
  -4  -5  -5 1506.17   71.63
   4   5   6 1239.66   61.34
  -4  -5  -6 1270.75   97.64
  -4  -5  -6 1364.41   63.23
   4   5   7  249.90   55.32
  -4  -5  -7  169.33   50.12
  -4  -5  -7  171.56   48.56
   4   5   8   55.98   35.86
  -4  -5  -8   50.20   23.93
  -4  -5  -8   18.32   18.76
   4   5   9  498.95   51.73
   4   5   9  415.89   44.56
  -4  -5  -9  511.93   30.02
   4   5  10 1061.34   89.04
   4   5  10 1063.59  102.08
  -4  -5 -10 1069.63   53.11
   4   5  11  595.49   82.89
   4   5  11  592.77   73.08
  -4  -5 -11  654.48   66.74
   4   5  12  247.04   73.06
   4   5  12  245.18   74.08
  -4  -5 -12  318.93   69.23
   4   5  13   51.18   20.35
   4   5  13   25.72   21.30
  -4  -5 -13   23.39   19.76
   4   5  14   23.80   11.95
   4   5  14   16.51   19.92
  -4  -5 -14   15.93   18.05
   4   6 -22  186.60   88.07
   4   6 -21  406.04   50.94
   4   6 -21  373.72   55.36
  -4  -6  21  397.81   46.28
   4   6 -20   23.29   16.32
   4   6 -20    0.35    5.42
  -4  -6  20   20.86   16.19
   4   6 -19  947.27   68.49
   4   6 -19  725.19   94.99
  -4  -6  19  905.25  129.77
   4   6 -18 1180.33   86.59
   4   6 -18 1228.31   81.92
  -4  -6  18 1354.47   84.87
   4   6 -17  844.14   85.78
   4   6 -17  842.34   47.60
  -4  -6  17  903.39   92.61
  -4  -6  17  827.04   41.77
   4   6 -16  133.48   41.90
   4   6 -16  118.03   20.89
  -4  -6  16  119.57   32.14
  -4  -6  16  104.89   31.50
   4   6 -15  271.36   70.96
   4   6 -15  162.60   38.49
  -4  -6  15  210.88   53.38
  -4  -6  15  216.10   22.26
   4   6 -14   -0.31   14.40
   4   6 -14    9.12    8.90
  -4  -6  14   -0.67   17.60
  -4  -6  14    4.42    8.23
   4   6 -13  616.34   65.60
   4   6 -13  776.78   50.47
  -4  -6  13  697.98   44.73
   4   6 -12   99.03   34.42
   4   6 -12   86.24   23.23
  -4  -6  12   84.45   25.18
  -4  -6  12  122.51   22.95
   4   6 -11  133.51   31.45
   4   6 -11  120.04   33.10
  -4  -6  11  101.66   20.66
  -4  -6  11  101.10   27.23
   4   6 -10 2176.90   85.54
   4   6 -10 2049.45   92.48
  -4  -6  10 2024.65   89.03
  -4  -6  10 2040.16   76.40
   4   6  -9 6478.69  185.71
   4   6  -9 6291.78  177.65
  -4  -6   9 6422.93  191.80
  -4  -6   9 6146.00  170.83
   4   6  -8 2351.99   74.10
   4   6  -8 2357.83   81.42
  -4  -6   8 2428.61   79.90
  -4  -6   8 2157.00   92.26
   4   6  -7  381.77   32.56
   4   6  -7  451.31   40.52
  -4  -6   7  451.67   47.01
  -4  -6   7  416.15   36.89
   4   6  -6 1015.52   59.80
   4   6  -6  939.52   58.32
  -4  -6   6  997.02   61.26
  -4  -6   6  994.77   53.18
   4   6  -5 1254.84   83.71
   4   6  -5 1185.20   62.12
  -4  -6   5 1279.04   99.87
  -4  -6   5 1284.84   58.70
   4   6  -4 2248.06   99.87
   4   6  -4 2365.60  103.90
  -4  -6   4 2355.94  101.89
  -4  -6   4 2252.58   95.34
   4   6  -3 6306.40  166.84
   4   6  -3 6318.69  157.65
  -4  -6   3 6396.88  156.23
  -4  -6   3 5814.62  140.07
   4   6  -2 3975.15  108.49
  -4  -6   2 3979.88   97.61
  -4  -6   2 3919.49  102.01
   4   6  -1  446.04   40.31
   4   6  -1  506.93   49.05
  -4  -6   1  448.28   62.91
  -4  -6   1  455.56   32.48
   4   6   0   53.11   18.94
   4   6   0   91.78   28.27
  -4  -6   0   60.58   37.41
  -4  -6   0   73.12   15.47
   4   6   1 1006.83   54.33
   4   6   1 1125.54   56.63
  -4  -6  -1 1111.83   79.28
  -4  -6  -1 1024.68   48.59
   4   6   2  753.88   44.52
   4   6   2  672.17   27.83
  -4  -6  -2  656.08   23.55
  -4  -6  -2  744.04   58.48
  -4  -6  -2  726.19   44.08
   4   6   3  333.33   22.26
   4   6   3  432.64   75.83
  -4  -6  -3  300.19   27.74
  -4  -6  -3  484.58   49.69
  -4  -6  -3  415.37   40.46
   4   6   4  190.46   26.85
   4   6   4  207.11   57.90
  -4  -6  -4  253.43   55.20
  -4  -6  -4  276.23   58.36
   4   6   5   27.38   19.97
  -4  -6  -5   -8.74   14.96
  -4  -6  -5   21.08   17.82
   4   6   6  591.43   87.96
  -4  -6  -6  670.73   52.22
  -4  -6  -6  683.10   31.56
   4   6   7  673.07   93.18
  -4  -6  -7  718.26   44.77
  -4  -6  -7  802.73   41.72
  -4  -6  -8   23.21   14.92
  -4  -6  -8   20.21   18.32
   4   6   9  344.24   84.89
   4   6   9  344.53   45.65
  -4  -6  -9  268.35   81.13
   4   6  10  615.46   88.37
   4   6  10  524.10   68.11
  -4  -6 -10  459.62   50.46
   4   6  11  798.78   70.02
   4   6  11  757.03   89.72
  -4  -6 -11  814.99   86.45
   4   6  12  348.10   89.70
   4   6  12  272.64   95.07
  -4  -6 -12  292.03  124.82
   4   6  13   76.80   42.45
  -4  -6 -13   60.83   37.60
   4   7 -21   21.60   28.30
   4   7 -21    9.90   20.77
   4   7 -20   38.27   18.97
   4   7 -20    5.46    9.38
   4   7 -19  414.92   41.34
   4   7 -19  318.22   93.09
  -4  -7  19  446.29   59.36
   4   7 -18  823.35  123.93
   4   7 -18  887.84   54.47
  -4  -7  18  993.48   80.85
   4   7 -17  858.93   45.68
   4   7 -17  767.86   72.86
  -4  -7  17  945.35  130.54
   4   7 -16   21.15   13.91
   4   7 -16   28.07   16.29
   4   7 -16   12.86    9.13
  -4  -7  16   21.23   17.43
   4   7 -15   51.83   26.72
   4   7 -15  105.21   24.35
  -4  -7  15  134.40   37.21
   4   7 -14   61.75   35.57
   4   7 -14   68.38   19.00
  -4  -7  14   63.97   24.15
  -4  -7  14   82.14   19.22
   4   7 -13  481.74   39.79
   4   7 -13  474.62   37.54
  -4  -7  13  467.82   35.46
  -4  -7  13  496.55   65.44
   4   7 -12  326.44   66.98
   4   7 -12  232.45   30.93
  -4  -7  12  304.18   38.96
  -4  -7  12  221.06   53.91
   4   7 -11   13.07    9.02
   4   7 -11   16.07    6.22
  -4  -7  11   36.13   12.13
  -4  -7  11    9.84   12.79
   4   7 -10 1231.42   72.07
   4   7 -10 1126.94   69.65
  -4  -7  10 1249.81   83.46
  -4  -7  10 1143.68   51.46
   4   7  -9 1795.90  105.11
   4   7  -9 1790.06   82.83
  -4  -7   9 1741.98   92.27
  -4  -7   9 1939.29   80.76
   4   7  -8  505.21   49.11
   4   7  -8  540.78   33.56
  -4  -7   8  436.20   60.97
  -4  -7   8  480.12   38.23
   4   7  -7  116.50   26.98
   4   7  -7  132.68   29.32
  -4  -7   7  125.11   29.82
  -4  -7   7  119.55   30.97
   4   7  -6  187.60   29.03
   4   7  -6  222.29   46.14
  -4  -7   6  210.29   38.86
  -4  -7   6  207.79   31.50
   4   7  -5 2248.13  111.80
   4   7  -5 2562.55   84.28
  -4  -7   5 2320.03   55.16
  -4  -7   5 2485.75   79.77
   4   7  -4 1720.06   80.79
   4   7  -4 1515.63   73.53
  -4  -7   4 1694.58   93.00
  -4  -7   4 1724.11   84.56
   4   7  -3 3602.34  114.19
   4   7  -3 3362.96  119.55
  -4  -7   3 3480.83  123.43
  -4  -7   3 3512.70  104.20
   4   7  -2  749.13   56.28
   4   7  -2  798.28   44.35
  -4  -7   2  862.45   47.42
  -4  -7   2  801.63   39.95
   4   7  -1   63.01   19.10
   4   7  -1   30.63   18.08
  -4  -7   1   55.56   28.54
  -4  -7   1   50.40   20.01
   4   7   0  468.66   51.08
   4   7   0  584.74   67.60
  -4  -7   0  452.28   38.33
  -4  -7   0  481.57   49.45
   4   7   1 1357.60   66.28
   4   7   1 1141.96   73.38
  -4  -7  -1 1266.97   84.58
  -4  -7  -1 1236.21   57.12
   4   7   2  756.57   36.46
  -4  -7  -2  775.14   44.60
  -4  -7  -2  858.44   46.92
   4   7   3  356.46   21.35
   4   7   3  307.32   37.54
  -4  -7  -3  461.46   49.21
  -4  -7  -3  370.00   49.00
   4   7   4   15.30   11.69
   4   7   4   15.89   27.03
  -4  -7  -4   43.64   24.70
  -4  -7  -4   -4.65   12.31
   4   7   5  253.41   34.03
  -4  -7  -5  207.97   44.75
  -4  -7  -5  256.68   32.06
   4   7   6  526.77   49.52
  -4  -7  -6  563.39   31.27
  -4  -7  -6  578.92   29.77
   4   7   7   90.69   22.42
  -4  -7  -7   49.45   28.47
  -4  -7  -7   81.65   23.02
   4   7   8   48.61   43.48
  -4  -7  -8   74.31   21.88
   4   7   9   27.83   17.15
   4   7   9   66.66   27.67
  -4  -7  -9   71.18   31.08
   4   7  10  107.25   38.51
   4   7  10   95.12   33.84
  -4  -7 -10  125.56   50.36
   4   7  11  675.25   88.75
   4   7  11  868.86   75.51
  -4  -7 -11  748.23   97.51
   4   7  12  668.90  122.23
   4   7  12  784.08  107.98
  -4  -7 -12 1035.12   86.89
   4   7  13   91.11   62.17
   4   8 -21   21.08   20.96
   4   8 -20   59.43   50.94
   4   8 -20   61.56   33.18
  -4  -8  20  125.93   52.21
   4   8 -19  853.12   50.77
   4   8 -19  728.82   59.92
  -4  -8  19  792.57   40.69
   4   8 -18  885.17   51.08
  -4  -8  18  879.63   87.07
   4   8 -17  761.98   58.57
  -4  -8  17  846.51   53.97
  -4  -8  17  579.94   87.99
   4   8 -16  104.15   37.16
  -4  -8  16  103.31   22.53
  -4  -8  16  127.65   39.36
   4   8 -15   14.56   17.68
   4   8 -15    6.70    9.00
  -4  -8  15   11.85   14.21
  -4  -8  15    5.38    7.83
   4   8 -14  295.36   71.43
   4   8 -14  225.49   63.31
  -4  -8  14  419.42   39.88
  -4  -8  14  249.45   72.09
   4   8 -13  998.91   48.79
   4   8 -13 1085.53   42.41
  -4  -8  13 1016.94   76.46
  -4  -8  13 1022.14   64.88
   4   8 -12  186.49   44.17
   4   8 -12  159.73   43.08
  -4  -8  12  195.72   51.96
  -4  -8  12  184.83   49.10
   4   8 -11  280.12   76.89
   4   8 -11  288.25   17.91
  -4  -8  11  328.42   30.05
  -4  -8  11  262.90   37.09
   4   8 -10  404.00   31.81
   4   8 -10  436.02   41.44
  -4  -8  10  478.45   33.68
  -4  -8  10  469.17   34.52
   4   8  -9  235.72   33.83
   4   8  -9  182.55   48.21
  -4  -8   9  276.55   21.64
  -4  -8   9  213.52   42.27
   4   8  -8  854.08   62.49
   4   8  -8  787.83   54.04
  -4  -8   8  751.03   57.65
  -4  -8   8  909.29   51.88
   4   8  -7   10.12   10.07
   4   8  -7   12.17    8.59
  -4  -8   7   23.91   13.42
  -4  -8   7   14.09   14.53
   4   8  -6  913.83   87.15
   4   8  -6  842.75   65.08
  -4  -8   6  877.72   73.51
  -4  -8   6  766.42   46.02
   4   8  -5 1757.61   84.54
   4   8  -5 1929.59   94.65
  -4  -8   5 1850.72   97.41
  -4  -8   5 1939.98   75.63
   4   8  -4 1103.55   37.49
   4   8  -4 1020.76   72.34
  -4  -8   4 1011.66   73.26
  -4  -8   4  976.08   60.85
   4   8  -3 1844.91   97.13
   4   8  -3 1800.42   88.91
  -4  -8   3 1996.41   97.29
  -4  -8   3 1821.76   92.21
   4   8  -2  485.60   49.54
   4   8  -2  513.89   71.34
  -4  -8   2  471.46   63.89
  -4  -8   2  557.25   46.42
   4   8  -1   70.83   22.26
   4   8  -1  122.85   35.13
  -4  -8   1   54.28   25.61
  -4  -8   1   66.33   19.21
   4   8   0  448.73   40.27
   4   8   0  425.44   28.38
  -4  -8   0  401.41   53.16
  -4  -8   0  462.17   29.25
   4   8   1  831.85   46.64
   4   8   1  749.11   57.56
  -4  -8  -1  705.62   76.83
  -4  -8  -1  924.30   56.51
   4   8   2 2310.04   82.29
   4   8   2 2235.85  127.46
  -4  -8  -2 2357.87  115.88
  -4  -8  -2 2554.97   96.30
   4   8   3 2462.30   99.85
  -4  -8  -3 2325.39  108.68
  -4  -8  -3 2689.12  100.08
   4   8   4   21.14   11.97
  -4  -8  -4   10.54   17.69
  -4  -8  -4   10.16    9.93
   4   8   5  301.12   28.40
  -4  -8  -5  389.07   38.26
  -4  -8  -5  356.71   56.55
   4   8   6  594.46   99.13
  -4  -8  -6  562.24   29.42
  -4  -8  -6  547.80   69.55
   4   8   7  145.09   38.77
  -4  -8  -7  187.67   54.67
  -4  -8  -7  197.06   52.37
   4   8   8   95.63   26.73
  -4  -8  -8  101.72   37.30
   4   8   9   25.69   21.62
   4   8   9   17.08   16.30
  -4  -8  -9   31.52   19.53
   4   8  10  177.29   58.29
   4   8  10   85.64   54.82
  -4  -8 -10  171.22   70.61
   4   8  11  380.31   61.37
   4   8  11  202.69  103.94
  -4  -8 -11  352.51   70.85
   4   8  12  200.02   94.47
   4   9 -20   76.03   37.63
  -4  -9  20   77.80   46.18
  -4  -9  20   71.48   54.50
   4   9 -19  486.04   52.70
  -4  -9  19  449.30   72.20
  -4  -9  19  480.77   68.46
   4   9 -18  625.07   94.54
  -4  -9  18  739.83   32.28
  -4  -9  18  708.06   59.75
   4   9 -17  438.38   54.98
  -4  -9  17  477.58   26.48
  -4  -9  17  484.16   55.92
   4   9 -16  284.03   43.57
  -4  -9  16  214.10   71.93
  -4  -9  16  296.51   45.44
   4   9 -15   16.39   15.69
   4   9 -15    2.22    6.53
  -4  -9  15   21.70   23.73
  -4  -9  15   20.07   12.38
   4   9 -14 1118.26   70.85
   4   9 -14 1065.22   47.56
  -4  -9  14 1034.71   82.44
  -4  -9  14 1149.92   50.58
   4   9 -13   22.13   13.46
   4   9 -13   16.88   16.88
  -4  -9  13   26.01   11.61
  -4  -9  13   10.80   11.39
   4   9 -12  566.33   48.01
   4   9 -12  612.06   33.07
  -4  -9  12  733.05   61.72
  -4  -9  12  692.32   55.13
   4   9 -11    8.89   17.47
   4   9 -11    5.03    4.31
  -4  -9  11   19.32   15.31
  -4  -9  11   13.61   13.01
   4   9 -10  131.75   33.36
   4   9 -10  102.20   25.64
  -4  -9  10   90.79   12.87
  -4  -9  10  119.04   34.09
   4   9  -9  118.61   33.28
   4   9  -9   82.65   17.94
  -4  -9   9   91.61   36.62
  -4  -9   9   75.84   19.65
   4   9  -8  208.40   58.76
   4   9  -8  144.49   44.90
  -4  -9   8  232.15   25.34
  -4  -9   8  181.55   34.28
   4   9  -7  760.26   52.91
   4   9  -7  865.48   45.14
  -4  -9   7  886.74   97.21
  -4  -9   7  678.68   46.45
   4   9  -6  152.83   42.45
   4   9  -6  130.55   30.93
  -4  -9   6  112.35   28.63
  -4  -9   6  126.37   41.83
   4   9  -5 1348.17   62.87
   4   9  -5 1124.20   86.43
  -4  -9   5 1327.89   63.93
  -4  -9   5 1285.65   57.35
   4   9  -4  956.48   73.87
   4   9  -4 1055.06   85.00
  -4  -9   4 1075.63   69.95
  -4  -9   4 1164.50   67.56
   4   9  -3 1891.30   88.08
   4   9  -3 2196.66   95.41
  -4  -9   3 2029.92  150.05
  -4  -9   3 1967.08   83.00
   4   9  -2  534.65   62.22
   4   9  -2  508.80   43.08
  -4  -9   2  615.15   45.82
  -4  -9   2  619.44   33.09
   4   9  -1   47.07   15.33
   4   9  -1   60.86   16.54
  -4  -9   1   35.87   15.00
  -4  -9   1   76.06   27.19
   4   9   0  455.17   32.38
   4   9   0  463.24   64.26
  -4  -9   0  435.38   55.10
  -4  -9   0  502.97   25.92
   4   9   1  970.26   59.29
   4   9   1  937.59   88.61
  -4  -9  -1  915.20   91.66
  -4  -9  -1  962.30   71.96
   4   9   2 1581.36   68.29
   4   9   2 1613.83  104.68
  -4  -9  -2 1822.02  121.14
  -4  -9  -2 1631.08   77.69
   4   9   3 1339.29   60.10
   4   9   3 1412.05   64.06
  -4  -9  -3 1434.74   80.12
  -4  -9  -3 1388.04   60.55
   4   9   4  239.92   59.88
  -4  -9  -4  237.48   58.57
  -4  -9  -4  265.59   38.28
   4   9   5   10.74   17.04
  -4  -9  -5   32.32   16.75
  -4  -9  -5   51.27   23.10
   4   9   6  336.93   49.77
  -4  -9  -6  328.84   48.36
  -4  -9  -6  301.36   76.98
   4   9   7  321.74   43.08
  -4  -9  -7  367.27   65.81
  -4  -9  -7  328.42   72.29
   4   9   8  103.67   37.76
   4   9   8   97.94   25.70
  -4  -9  -8  141.85   46.71
   4   9   9   13.85   12.69
  -4  -9  -9   20.37   16.98
   4   9  10  153.38   88.12
  -4  -9 -10  431.99   46.95
   4   9  11  178.75   83.89
   4  10 -20  421.53   78.87
  -4 -10  20  629.86   71.54
   4  10 -19  193.88   73.42
  -4 -10  19  124.29   66.23
  -4 -10  19  157.23   68.33
   4  10 -18  521.58   61.49
  -4 -10  18  611.51   58.81
  -4 -10  18  537.07   53.63
   4  10 -17  270.79   99.17
  -4 -10  17  321.01   69.09
  -4 -10  17  327.61   45.31
   4  10 -16   11.05   15.94
  -4 -10  16   12.06   16.88
  -4 -10  16   21.09   21.11
   4  10 -15   76.83   25.06
  -4 -10  15   77.47   36.22
  -4 -10  15   82.18   33.27
   4  10 -14  315.10   83.35
   4  10 -14  311.74   35.63
  -4 -10  14  395.04   33.02
  -4 -10  14  277.98   69.85
   4  10 -13  725.56   98.89
   4  10 -13  602.40   39.69
  -4 -10  13  751.91  107.57
  -4 -10  13  649.08   43.21
   4  10 -12 2950.65  113.28
   4  10 -12 3170.63  121.77
  -4 -10  12 2761.94  111.07
  -4 -10  12 3098.67  120.95
   4  10 -11   22.28   22.82
   4  10 -11   10.04   14.85
  -4 -10  11   25.46   22.30
  -4 -10  11    2.83   10.45
   4  10 -10   18.53   12.05
   4  10 -10    9.68    6.18
  -4 -10  10    0.75   19.15
  -4 -10  10    5.07    9.95
   4  10  -9   20.55   15.84
   4  10  -9   54.71   23.13
  -4 -10   9   14.45   18.44
  -4 -10   9   14.88   12.45
   4  10  -8  287.48   34.80
   4  10  -8  344.33   37.55
  -4 -10   8  287.10   55.67
  -4 -10   8  256.16   38.59
   4  10  -7  361.47   78.83
   4  10  -7  290.52   37.14
  -4 -10   7  283.60   49.90
  -4 -10   7  291.71   44.41
   4  10  -6   14.15   10.05
   4  10  -6    9.92    5.47
  -4 -10   6    9.50   13.38
  -4 -10   6   10.15   13.83
   4  10  -5   92.77   27.08
   4  10  -5  108.95   29.55
  -4 -10   5  123.64   34.63
  -4 -10   5   86.97   28.93
   4  10  -4 1690.42   78.41
   4  10  -4 1692.58  100.46
  -4 -10   4 1618.48   77.32
  -4 -10   4 1541.52   64.78
   4  10  -3  763.16   71.54
   4  10  -3  756.06   71.82
  -4 -10   3  782.80   52.62
  -4 -10   3  837.95   37.84
   4  10  -2  922.15   99.29
   4  10  -2  929.85   64.71
  -4 -10   2  885.98   46.02
  -4 -10   2  921.98   55.08
   4  10  -1  199.26   61.67
   4  10  -1  186.21   57.10
  -4 -10   1  175.07   58.31
  -4 -10   1  172.85   47.97
   4  10   0  918.51   45.67
   4  10   0  910.35   73.05
  -4 -10   0  827.85   75.76
  -4 -10   0  852.65   38.61
   4  10   1   76.38   20.66
   4  10   1   36.50   28.20
  -4 -10  -1  103.41   28.65
  -4 -10  -1   98.25   19.98
   4  10   2  137.29   46.00
   4  10   2  196.69   71.76
  -4 -10  -2  225.08   45.40
  -4 -10  -2  181.17   42.94
   4  10   3  162.09   43.99
  -4 -10  -3  189.43   42.03
  -4 -10  -3  158.29   41.08
   4  10   4  158.70   67.28
  -4 -10  -4  145.93   65.92
  -4 -10  -4   97.67   51.56
   4  10   5  204.04   78.22
  -4 -10  -5  208.89   64.34
  -4 -10  -5  246.48   71.44
   4  10   6   75.69   27.71
  -4 -10  -6   21.21   26.68
  -4 -10  -6   61.66   21.51
   4  10   7  231.26   88.75
  -4 -10  -7  172.29   45.06
  -4 -10  -7  154.81   60.37
   4  10   8  177.49   57.52
   4  10   8   85.28   43.86
  -4 -10  -8   59.80   40.09
   4  10   9   34.80   26.24
  -4 -10  -9   53.15   39.79
   4  10  10  152.86   46.92
   4  11 -19 1258.97  143.21
  -4 -11  19 1477.26  102.31
  -4 -11  19 1212.30   88.82
   4  11 -18  862.31   96.85
  -4 -11  18  848.18   87.28
  -4 -11  18  735.52  125.47
   4  11 -17  134.59   44.35
  -4 -11  17   77.80   32.57
  -4 -11  17  122.17   50.67
   4  11 -16   42.72   22.91
  -4 -11  16   18.98   14.47
  -4 -11  16   32.93   23.77
   4  11 -15  134.34   56.86
  -4 -11  15  198.22   49.98
  -4 -11  15  166.92   69.14
   4  11 -14 1228.67   95.33
  -4 -11  14 1243.53   89.14
  -4 -11  14 1123.18  125.84
   4  11 -13  594.14   88.58
   4  11 -13  719.32   31.03
  -4 -11  13  479.76   53.83
  -4 -11  13  493.10   50.26
   4  11 -12  998.93  101.87
   4  11 -12 1184.19   77.65
  -4 -11  12  887.74   65.70
  -4 -11  12 1194.22   67.41
   4  11 -11   21.95   11.93
   4  11 -11   18.26   10.32
  -4 -11  11   35.12   22.85
  -4 -11  11   19.16    9.95
   4  11 -10  368.12   85.55
   4  11 -10  332.10   69.79
  -4 -11  10  347.11   46.71
  -4 -11  10  335.80   51.84
   4  11  -9  231.62   86.52
   4  11  -9  213.91   53.42
  -4 -11   9  284.24   64.53
  -4 -11   9  188.92   41.36
   4  11  -8  591.17   52.80
   4  11  -8  486.64   41.72
  -4 -11   8  587.21   50.81
  -4 -11   8  541.89   34.31
   4  11  -7  191.12   63.41
   4  11  -7  235.99   60.42
  -4 -11   7  189.06   68.27
  -4 -11   7  153.58   58.04
   4  11  -6  -12.51   14.99
   4  11  -6   29.20   21.10
  -4 -11   6   12.52   11.15
  -4 -11   6    0.88    5.25
   4  11  -5   96.73   31.96
   4  11  -5  141.14   51.03
  -4 -11   5   90.49   36.69
  -4 -11   5   86.07   23.82
   4  11  -4  783.82   39.87
   4  11  -4  826.91   44.60
  -4 -11   4  707.82   55.65
  -4 -11   4  817.82   49.63
   4  11  -3  311.31   79.67
   4  11  -3  388.18   36.96
  -4 -11   3  353.16   40.55
  -4 -11   3  378.04   58.08
   4  11  -2   69.87   32.07
   4  11  -2   44.78   29.51
  -4 -11   2   71.87   32.58
  -4 -11   2   89.65   23.87
   4  11  -1    3.13   11.22
   4  11  -1   22.14   17.99
  -4 -11   1    5.21   10.56
  -4 -11   1    8.36    9.80
   4  11   0  268.09   50.17
   4  11   0  354.03   46.82
  -4 -11   0  367.54   20.90
   4  11   1  536.58   50.61
   4  11   1  624.27   73.82
  -4 -11  -1  545.53   67.29
  -4 -11  -1  616.69  102.80
   4  11   2 1129.25  102.62
  -4 -11  -2 1205.69   74.41
  -4 -11  -2 1176.96   76.26
   4  11   3  422.24   62.27
  -4 -11  -3  536.37   76.20
  -4 -11  -3  502.78   39.58
   4  11   4  -11.88   17.17
  -4 -11  -4   21.44   12.68
  -4 -11  -4   39.40   18.78
   4  11   5   59.90   24.18
  -4 -11  -5   64.27   30.84
  -4 -11  -5   68.02   24.42
   4  11   6   48.06   34.68
  -4 -11  -6   82.15   24.85
  -4 -11  -6   69.55   30.40
   4  11   8   27.75   15.93
  -4 -12  19  489.91  102.10
   4  12 -18  898.60  140.42
  -4 -12  18  974.48   79.65
  -4 -12  18 1049.54   79.30
   4  12 -17  448.37   51.69
  -4 -12  17  289.18   76.59
  -4 -12  17  379.78   45.54
   4  12 -16   17.01   23.90
  -4 -12  16    0.79    7.49
  -4 -12  16   -0.42   16.94
   4  12 -15  352.98   74.68
  -4 -12  15  410.91   25.16
  -4 -12  15  342.41   44.07
   4  12 -14 1251.45   74.45
  -4 -12  14 1146.43   37.62
  -4 -12  14 1133.17   62.02
   4  12 -13 1681.01  134.86
  -4 -12  13 1792.56  104.44
  -4 -12  13 1640.60   96.37
   4  12 -12  546.62   86.52
  -4 -12  12  573.37   39.40
  -4 -12  12  547.93   43.00
   4  12 -11   35.42   20.02
   4  12 -11    4.58   10.59
  -4 -12  11   26.07   16.47
  -4 -12  11    4.97   11.03
   4  12 -10  462.10   50.30
   4  12 -10  380.22   74.14
  -4 -12  10  536.01   48.81
  -4 -12  10  398.83   59.36
   4  12  -9  147.32   43.30
   4  12  -9  129.66   32.72
  -4 -12   9  126.03   36.39
  -4 -12   9  110.78   44.86
   4  12  -8  350.73   79.71
   4  12  -8  424.53   46.29
  -4 -12   8  394.48   42.99
  -4 -12   8  325.70   49.82
   4  12  -7  291.78   88.80
   4  12  -7  240.44   62.00
  -4 -12   7  335.66   34.37
  -4 -12   7  195.78   54.57
   4  12  -6   11.16   21.02
   4  12  -6   -0.63   12.30
  -4 -12   6   -5.21   15.53
  -4 -12   6    7.61   10.70
   4  12  -5  539.34   62.00
   4  12  -5  742.39   64.37
  -4 -12   5  575.46   90.09
  -4 -12   5  511.62   90.48
   4  12  -4  865.45   86.37
   4  12  -4  907.63   59.81
  -4 -12   4 1002.05  100.29
  -4 -12   4  973.22   58.88
   4  12  -3   30.52   18.39
   4  12  -3   16.94   16.01
  -4 -12   3   33.58   15.68
   4  12  -2   26.11   17.75
  -4 -12   2    7.36   16.51
  -4 -12   2   35.44   17.98
   4  12  -1   84.56   36.84
   4  12  -1  113.63   34.73
  -4 -12   1   91.88   27.84
  -4 -12   1   67.26   27.28
   4  12   0  502.18   53.06
   4  12   0  697.67   76.26
  -4 -12   0  533.99   78.24
  -4 -12   0  571.64   45.67
   4  12   1  748.01   94.25
  -4 -12  -1  781.17   91.49
  -4 -12  -1  830.75   96.63
   4  12   2 1032.33   67.51
  -4 -12  -2 1092.60   93.74
  -4 -12  -2 1194.12   71.37
   4  12   3  256.95   80.72
  -4 -12  -3  321.08   53.27
  -4 -12  -3  373.97   42.12
   4  12   4    3.35   14.16
  -4 -12  -4   -0.56   11.83
  -4 -12  -4   19.75    9.18
   4  12   5   51.09   36.38
  -4 -12  -5   63.90   30.51
  -4 -12  -5   84.63   29.45
  -4 -12  -6   64.28   41.40
   4  13 -17  109.96   40.10
  -4 -13  17   83.03   54.98
  -4 -13  17   56.95   34.63
   4  13 -16   40.50   34.43
  -4 -13  16   24.03   21.79
  -4 -13  16   42.50   19.71
   4  13 -15  162.64   86.19
  -4 -13  15  273.03   51.40
  -4 -13  15  216.09   72.66
   4  13 -14  237.61   83.12
  -4 -13  14  242.19   74.12
  -4 -13  14  352.34   48.57
   4  13 -13 1899.78  118.87
  -4 -13  13 1941.15  102.99
  -4 -13  13 1945.99  146.20
   4  13 -12  343.85   52.91
  -4 -13  12  339.46   67.05
  -4 -13  12  394.25   49.70
   4  13 -11   38.62   31.51
   4  13 -11   47.75   20.49
  -4 -13  11  118.88   32.69
   4  13 -10  176.91   77.16
   4  13 -10  154.35   59.78
  -4 -13  10  292.66   35.15
  -4 -13  10  251.18   21.04
   4  13  -9  227.84   62.50
   4  13  -9  130.44   63.55
  -4 -13   9  191.22   64.73
  -4 -13   9  170.50   65.85
   4  13  -8  406.47   81.67
   4  13  -8  383.16   64.50
  -4 -13   8  462.21   57.46
  -4 -13   8  499.54   43.46
   4  13  -7  308.80   86.65
   4  13  -7  394.91   38.52
  -4 -13   7  370.05   82.39
  -4 -13   7  301.59   41.80
   4  13  -6    9.48   16.38
   4  13  -6   34.08   14.80
  -4 -13   6   22.04   20.03
  -4 -13   6   32.78   22.32
   4  13  -5  151.16   67.58
   4  13  -5  259.79   48.56
  -4 -13   5  187.89   71.34
  -4 -13   5  283.01   68.54
   4  13  -4  250.51   75.76
   4  13  -4  269.85   52.32
  -4 -13   4  314.62   48.04
  -4 -13   4  368.35   44.74
   4  13  -3  109.35   38.68
  -4 -13   3   97.92   30.39
   4  13  -2   53.51   26.48
   4  13  -2   73.60   53.43
  -4 -13   2   36.69   20.67
   4  13  -1   41.53   30.76
   4  13  -1   57.34   26.25
  -4 -13   1   63.03   26.09
  -4 -13   1   61.51   30.41
   4  13   0  663.27   91.99
  -4 -13   0  698.91   90.76
  -4 -13   0  706.31   58.05
   4  13   1 1879.58   95.82
  -4 -13  -1 1694.70  105.29
  -4 -13  -1 1778.36   91.47
   4  13   2  588.65   75.23
  -4 -13  -2  404.31   54.35
  -4 -13  -2  469.95   75.79
   4  13   3   87.29   58.61
  -4 -13  -3   77.07   44.67
  -4 -13  -3   82.66   39.51
  -4 -13  -4   18.59    9.86
  -4 -13  -4   14.92    5.85
  -4 -14  16   41.48   22.90
  -4 -14  16   37.21   25.61
   4  14 -15  133.78   80.36
  -4 -14  15  156.35   71.39
   4  14 -14  168.05   51.48
  -4 -14  14  146.88   62.23
   4  14 -13  529.65   55.46
  -4 -14  13  603.13   52.79
  -4 -14  13  628.05   91.08
   4  14 -12   57.77   12.44
  -4 -14  12   43.01   23.75
  -4 -14  12   48.00   20.33
   4  14 -11  159.98   73.12
  -4 -14  11  219.93   58.48
  -4 -14  11  219.10   71.86
   4  14 -10  170.32   44.21
  -4 -14  10  141.93   49.98
  -4 -14  10  149.24   40.42
   4  14  -9  247.60  104.78
   4  14  -9  251.40   65.30
  -4 -14   9  172.31   84.64
  -4 -14   9  260.43   66.96
   4  14  -8  355.88   48.59
  -4 -14   8  429.43   26.39
  -4 -14   8  276.32   97.53
   4  14  -7   17.58    8.48
   4  14  -7   21.62   15.07
  -4 -14   7   37.42   15.98
  -4 -14   7   25.93   15.50
   4  14  -6  343.31   49.95
   4  14  -6  336.12   49.56
  -4 -14   6  358.81   31.78
  -4 -14   6  313.94   34.91
   4  14  -5  619.60   38.91
   4  14  -5  589.98   34.29
  -4 -14   5  452.78   58.25
  -4 -14   5  506.48   72.77
   4  14  -4   88.24   36.17
  -4 -14   4   60.14   27.10
  -4 -14   4   75.51   24.20
   4  14  -3  385.32   76.28
   4  14  -3  466.69   55.38
  -4 -14   3  424.85   60.98
  -4 -14   3  448.70   24.06
   4  14  -2   55.11   28.19
   4  14  -2   58.99   29.78
  -4 -14   2   25.89   20.02
  -4 -14   2   84.50   34.81
   4  14  -1  631.05   79.03
  -4 -14   1  602.86   79.31
  -4 -14   1  696.17   51.98
   4  14   0  294.83   55.01
  -4 -14   0  257.83   70.46
   4  14   1 1128.40  119.70
  -4 -14  -1 1078.79   91.15
  -4 -14  -1 1067.26   78.76
  -4 -14  -2  185.85   74.33
  -4 -15  16   18.32   13.25
  -4 -15  15  539.92   57.46
  -4 -15  15  469.51   65.04
  -4 -15  14  483.29   87.62
  -4 -15  14  727.95   57.00
   4  15 -13  314.36   61.69
  -4 -15  13  163.59   72.17
  -4 -15  13  355.54   50.01
   4  15 -12   25.52   23.44
  -4 -15  12   11.68   12.66
  -4 -15  12    8.44   23.26
   4  15 -11   22.46   17.55
  -4 -15  11   24.72   25.39
  -4 -15  11   31.01   11.36
   4  15 -10  117.64   45.49
  -4 -15  10   85.35   38.23
   4  15  -9  474.48   71.66
  -4 -15   9  357.58   76.42
  -4 -15   9  460.10   68.78
   4  15  -8  587.75   98.74
   4  15  -8  676.58   47.65
  -4 -15   8  613.75   41.27
  -4 -15   8  534.09   81.01
   4  15  -7   94.52   43.72
   4  15  -7   64.44   36.02
  -4 -15   7   74.86   41.47
  -4 -15   7   84.46   24.04
   4  15  -6   63.76   35.02
   4  15  -6   80.85   29.47
  -4 -15   6   62.96   24.28
  -4 -15   6   65.60   24.78
   4  15  -5  157.89   84.87
   4  15  -5  216.30   82.05
  -4 -15   5  269.12   31.14
  -4 -15   5  185.58   70.71
   4  15  -4  352.82   64.59
  -4 -15   4  373.28   69.06
  -4 -15   4  337.98   42.72
   4  15  -3  105.05   69.62
   4  15  -3  245.96   65.61
  -4 -15   3  232.58   40.68
  -4 -15   3  180.35   83.10
   4  15  -2   50.89   24.62
  -4 -15   2   42.92   17.56
  -4 -15   2   37.31   24.49
   4  15  -1  407.03   54.53
  -4 -15   1  282.67   60.98
  -4 -15   0  349.32   75.15
  -4 -16  14  136.93   98.74
  -4 -16  13  140.30   82.77
  -4 -16  13  286.90   41.47
  -4 -16  12   -0.17   12.99
   4  16 -11   24.55   15.45
  -4 -16  11   20.80   12.91
   4  16 -10   20.01   22.48
  -4 -16  10   35.95   20.87
   4  16  -9  149.78   81.21
  -4 -16   9  157.08   56.41
  -4 -16   9   93.11   53.14
   4  16  -8   81.12   37.02
  -4 -16   8   96.52   37.87
  -4 -16   8  125.17   24.52
   4  16  -7  285.31   50.83
  -4 -16   7  232.99   79.04
  -4 -16   7  217.21   30.21
   4  16  -6   22.61   16.73
  -4 -16   6   26.96   18.07
   4  16  -5   71.53   35.42
  -4 -16   5   99.53   39.00
  -4 -16   5   95.48   46.32
   4  16  -4   15.63   10.58
   4  16  -4    1.67   17.10
  -4 -16   4   14.58   11.63
   4  16  -3   18.27   12.69
  -4 -16   3    9.97   10.08
  -4 -17  10   21.12   25.46
  -4 -17   9  161.47   69.43
  -4 -17   8  118.08   60.03
  -4 -17   7   14.00   12.33
   4  17  -6   14.55   15.56
   5 -18   2  850.82   94.06
   5 -18   3  870.96   69.82
   5 -18   4   22.41   17.29
  -5  18  -4   22.36   21.66
   5 -18   5  547.34   99.88
  -5  18  -5  356.27  135.01
   5 -18   6  699.10   56.37
  -5  18  -6  532.81   83.36
   5 -18   7  841.22   66.18
   5 -18   8  181.89   98.59
   5 -17  -3   98.34   39.72
  -5  17   3   88.85   37.55
   5 -17  -2   35.93   24.90
  -5  17   2   37.73   19.89
   5 -17  -1   17.32   13.50
  -5  17   1   13.08   10.48
  -5  17   1   21.38   10.21
   5 -17   0  236.53   42.72
  -5  17   0  277.39   68.13
   5 -17   1  964.11   76.86
  -5  17  -1  813.39   71.25
   5 -17   2 2235.39   54.39
  -5  17  -2 2146.78  106.23
   5 -17   3  676.58   86.30
  -5  17  -3  530.84   65.78
   5 -17   4   13.20   11.13
  -5  17  -4   12.56   15.12
   5 -17   5  248.43   53.37
  -5  17  -5  184.10   63.43
   5 -17   6 1062.29   62.99
  -5  17  -6 1083.12   56.75
   5 -17   7 1044.43   64.85
  -5  17  -7  842.48   82.98
   5 -17   8   50.96   43.98
  -5  17  -8   55.66   46.49
   5 -17   9   23.82   15.39
  -5  17  -9   25.98   29.49
   5 -17  10  314.73   45.70
  -5  17 -10  140.26   98.69
   5 -17  11  319.90   68.38
  -5  17 -11  357.79   89.30
  -5  17 -12  120.46   59.98
   5 -16  -5  115.76   46.16
  -5  16   5  100.47   51.02
   5 -16  -4  321.15   47.42
   5 -16  -4  349.01   49.95
  -5  16   4  335.75   51.66
   5 -16  -3  114.60   50.88
   5 -16  -3  104.40   52.59
   5 -16  -2    9.48   13.71
  -5  16   2   22.50    9.26
  -5  16   2   18.82   12.72
   5 -16  -1   49.65   20.53
  -5  16   1   25.50   25.22
  -5  16   1    5.08   17.82
   5 -16   0  568.46   55.40
  -5  16   0  467.90   58.42
  -5  16   0  549.04   29.48
   5 -16   1 1705.80  147.05
  -5  16  -1 1728.76  138.01
  -5  16  -1 1942.29  106.28
   5 -16   2 1040.70   64.54
  -5  16  -2  945.23   96.57
   5 -16   3  325.21  100.23
  -5  16  -3  251.54   94.48
   5 -16   4   20.11   16.20
  -5  16  -4   10.03   15.84
   5 -16   5   11.08   26.66
  -5  16  -5  -12.30   18.83
   5 -16   6  317.40   63.01
  -5  16  -6  170.39   85.87
   5 -16   7 1030.00   66.26
  -5  16  -7 1149.30   74.03
   5 -16   8  208.56   99.55
  -5  16  -8  221.91  114.55
  -5  16  -9   14.64    8.65
  -5  16 -10   66.52   30.64
   5 -16  11  163.41   78.71
  -5  16 -11  129.62   54.04
   5 -16  12  376.66   56.91
  -5  16 -12  507.45   38.61
   5 -16  13   58.75   29.28
  -5  16 -13   13.80   19.25
  -5  16 -15    7.02   15.84
   5 -15  -7  108.22   67.16
   5 -15  -7  123.26   55.76
  -5  15   7  135.78   66.34
  -5  15   6    8.50   24.84
   5 -15  -5  184.34   70.71
   5 -15  -5  220.41   83.13
  -5  15   5  284.52   30.18
   5 -15  -4  303.18   45.16
   5 -15  -4  321.21   39.32
  -5  15   4  178.19   99.56
   5 -15  -3  348.37   65.67
   5 -15  -3  349.84   59.95
  -5  15   3  224.47   90.43
   5 -15  -2  249.27   31.68
  -5  15   2  322.52   72.29
  -5  15   2  162.36   60.65
   5 -15  -1  137.47   45.31
  -5  15   1  190.29   39.62
  -5  15   1  148.69   45.35
   5 -15   0  624.02   93.46
  -5  15   0  670.31   67.06
  -5  15   0  660.22   38.69
   5 -15   1  834.29   74.40
  -5  15  -1  737.89   52.85
  -5  15  -1  791.66   51.44
   5 -15   2  336.76   42.85
  -5  15  -2  354.69   33.25
  -5  15  -2  317.58   44.32
   5 -15   3   91.28   39.74
  -5  15  -3   87.01   37.63
  -5  15  -3   74.76   24.09
   5 -15   4  253.16   67.35
  -5  15  -4  305.14   77.60
   5 -15   5  988.78   61.51
  -5  15  -5 1036.01   66.78
   5 -15   6  329.18   69.32
  -5  15  -6  440.17   42.37
   5 -15   7  899.42  108.47
  -5  15  -7  860.71   61.61
   5 -15   8  758.81   73.15
  -5  15  -8  834.86   98.23
   5 -15   9   40.69   42.30
  -5  15  -9  130.06   44.00
   5 -15  10   81.78   41.05
  -5  15 -10   51.53   37.16
   5 -15  11   82.27   41.45
  -5  15 -11   53.40   33.90
   5 -15  12   10.30   23.61
  -5  15 -12   -3.25   15.46
   5 -15  13    1.40   26.44
  -5  15 -13   13.43   11.14
   5 -15  14   23.82   24.44
  -5  15 -14   19.33   14.93
  -5  15 -15  227.30   38.76
   5 -14  -9 1199.10   85.46
   5 -14  -9 1199.78   89.77
   5 -14  -8  943.26  116.70
   5 -14  -8 1131.30   88.80
  -5  14   8 1000.89   94.11
   5 -14  -7  538.45   70.22
   5 -14  -7  580.62   71.05
  -5  14   7  612.33   34.53
   5 -14  -6  162.47   51.07
   5 -14  -6   99.34   40.69
  -5  14   6  101.47   48.36
   5 -14  -5  125.20   43.17
   5 -14  -5  127.25   48.98
  -5  14   5  133.10   61.30
   5 -14  -4  189.61   60.73
   5 -14  -4  181.32   69.56
  -5  14   4  185.28   75.79
   5 -14  -3  876.18   63.49
   5 -14  -3  825.57   54.77
  -5  14   3  912.34   58.42
   5 -14  -2   68.88   27.32
  -5  14   2  101.34   34.46
  -5  14   2   77.52   25.02
   5 -14  -1   19.85   16.96
  -5  14   1   47.13   19.61
  -5  14   1   21.02   21.60
   5 -14   0  546.96   40.00
  -5  14   0  510.86   38.59
  -5  14   0  464.68   23.70
   5 -14   1  678.52   62.25
  -5  14  -1  664.10   54.30
  -5  14  -1  715.54   35.26
   5 -14   2  730.14   63.83
  -5  14  -2  792.10   55.90
  -5  14  -2  721.03   38.46
   5 -14   3  135.70   50.33
  -5  14  -3   60.24   16.23
  -5  14  -3  136.51   38.06
   5 -14   4   89.43   32.06
  -5  14  -4   79.61   29.39
  -5  14  -4   70.10   25.21
   5 -14   5  955.29   59.93
  -5  14  -5  789.38   77.77
   5 -14   6 1800.96  100.98
  -5  14  -6 1824.04  141.41
   5 -14   7  817.74   71.04
  -5  14  -7  810.01   84.65
   5 -14   8  324.28   81.24
  -5  14  -8  443.47   44.76
   5 -14   9  113.51   35.60
   5 -14  10  496.18   80.32
  -5  14 -10  402.18   58.10
   5 -14  11  304.19   97.98
  -5  14 -11  360.03   73.44
   5 -14  12  126.92   73.03
  -5  14 -12  126.94   47.27
   5 -14  13   14.72   18.41
  -5  14 -13   15.19    9.16
   5 -14  14   26.13   25.85
  -5  14 -14   -5.38   19.99
   5 -14  15  177.70   80.89
   5 -14  15  259.09  101.42
  -5  14 -15  229.76   40.36
   5 -14  16  247.22   40.29
   5 -13 -11    5.85    7.51
   5 -13 -11    1.84   11.85
   5 -13 -10   24.98   16.15
   5 -13 -10   12.10   11.82
   5 -13  -9  580.60   92.59
   5 -13  -9  534.40   70.44
  -5  13   9  789.45   49.29
   5 -13  -8  860.82   52.33
   5 -13  -8  587.14   64.06
  -5  13   8  597.76   99.42
   5 -13  -7  287.16   58.49
   5 -13  -7  264.10   29.11
  -5  13   7  168.24   68.35
   5 -13  -6  983.16   95.63
   5 -13  -6  938.89  103.57
  -5  13   6 1232.02   76.36
   5 -13  -5  337.27   33.73
   5 -13  -5  357.83   57.60
  -5  13   5  302.94   91.90
   5 -13  -4  117.65   32.33
   5 -13  -4   75.31   41.41
  -5  13   4  100.21   42.93
   5 -13  -3  624.13   41.67
   5 -13  -3  639.60   36.92
  -5  13   3  521.74   46.47
   5 -13  -2  407.45   88.14
  -5  13   2  371.91   41.22
  -5  13   2  403.28   31.34
   5 -13  -1   21.87   17.18
  -5  13   1   71.58   23.74
  -5  13   1   43.69   14.97
   5 -13   0  524.78   57.51
  -5  13   0  380.24   42.46
  -5  13   0  421.32   48.07
   5 -13   1  803.21  119.59
  -5  13  -1  956.33   68.02
  -5  13  -1  933.98   60.82
   5 -13   2  524.90   49.84
  -5  13  -2  408.08   97.33
  -5  13  -2  445.03   32.15
   5 -13   3  108.63   21.93
  -5  13  -3   23.53   23.17
  -5  13  -3   68.91   18.01
   5 -13   4  412.11   55.32
  -5  13  -4  452.54   72.45
  -5  13  -4  377.57   41.56
   5 -13   5 1219.46   71.39
  -5  13  -5 1232.95   78.36
  -5  13  -5 1137.15   59.75
   5 -13   6 3846.98   67.57
  -5  13  -6 3529.71  141.85
   5 -13   7 1235.74  105.90
  -5  13  -7 1487.13   70.63
   5 -13   8  549.48   75.61
  -5  13  -8  558.54   72.78
   5 -13   9   32.24   18.80
   5 -13   9   67.45   32.22
  -5  13  -9   36.29   16.05
   5 -13  10  740.70   29.28
   5 -13  10  722.40   70.99
  -5  13 -10  810.20   52.76
   5 -13  11 1179.79   72.56
   5 -13  11 1320.44   82.16
  -5  13 -11 1293.57   83.83
   5 -13  12  470.82   57.94
   5 -13  12  440.65   58.16
  -5  13 -12  519.39   44.92
   5 -13  13    9.23   10.06
   5 -13  13   22.10   14.54
  -5  13 -13    7.31   17.78
   5 -13  14    9.82   11.07
   5 -13  14    8.38   18.76
  -5  13 -14    5.55   15.03
   5 -13  15   99.46   49.57
   5 -13  15  107.06   54.69
  -5  13 -15   86.82   62.60
   5 -13  16  196.53   90.54
   5 -13  16  197.54   89.60
   5 -13  17   35.07   29.98
   5 -12 -12   20.72   15.27
   5 -12 -12   -0.31   11.83
   5 -12 -11  180.77   61.65
   5 -12 -11  110.09   54.41
  -5  12  11  191.73   95.90
   5 -12 -10   53.40   15.48
   5 -12 -10   19.77   15.02
  -5  12  10   24.36   21.73
   5 -12  -9  903.12   81.56
   5 -12  -9 1040.21   68.42
  -5  12   9 1111.79   72.59
   5 -12  -8  661.98   78.21
   5 -12  -8  577.33   67.28
  -5  12   8  547.09   54.21
   5 -12  -7   48.54   26.01
   5 -12  -7   76.32   21.28
  -5  12   7   47.75   30.52
   5 -12  -6  279.30  101.85
   5 -12  -6  303.26   39.46
  -5  12   6  259.25   79.95
   5 -12  -5  164.20   50.48
   5 -12  -5  189.25   50.66
  -5  12   5  136.96   49.11
   5 -12  -4  166.51   80.21
   5 -12  -4  225.27   48.85
  -5  12   4  163.94   63.93
   5 -12  -3 1448.19   67.23
   5 -12  -3 1428.15   75.20
  -5  12   3 1177.82   83.56
   5 -12  -2  450.88   43.89
  -5  12   2  387.36   76.33
  -5  12   2  324.78   78.81
   5 -12  -1   23.27   14.53
  -5  12   1   25.94   19.32
  -5  12   1    2.64    8.41
   5 -12   0  194.67   59.56
  -5  12   0  214.38   57.14
  -5  12   0  205.75   30.84
   5 -12   1 3098.16  104.57
  -5  12  -1 3225.35  119.13
  -5  12  -1 3317.62  106.96
   5 -12   2 2052.26   91.90
  -5  12  -2 2162.48   83.24
  -5  12  -2 2072.93   71.61
   5 -12   3   16.11   16.65
  -5  12  -3   16.67   13.21
  -5  12  -3   11.85    6.19
   5 -12   4  279.21   26.21
  -5  12  -4  295.53   60.71
  -5  12  -4  165.68   44.76
   5 -12   5 1002.85   48.15
  -5  12  -5  993.72   53.71
  -5  12  -5  891.61   36.50
   5 -12   6 2362.50   78.75
   5 -12   6 2313.09  108.06
  -5  12  -6 2505.24  110.31
   5 -12   7  822.58   35.50
   5 -12   7  818.90   41.94
  -5  12  -7  884.95   49.94
   5 -12   8  505.36   53.73
   5 -12   8  634.58   56.15
  -5  12  -8  705.53   43.25
   5 -12   9  120.31   26.99
   5 -12   9  127.53   40.53
  -5  12  -9  172.06   37.27
   5 -12  10  318.38   79.49
   5 -12  10  377.95   54.55
  -5  12 -10  380.17   48.15
   5 -12  11 1281.84   79.60
   5 -12  11 1312.97   83.17
  -5  12 -11 1217.25   73.48
   5 -12  12  710.46   39.81
   5 -12  12  653.29   34.10
  -5  12 -12  709.89   77.26
   5 -12  13   12.43   14.29
   5 -12  13   17.79   13.76
  -5  12 -13   27.17   19.23
   5 -12  14    4.39   14.92
   5 -12  14   53.50   20.58
  -5  12 -14   12.94   13.38
   5 -12  15   13.32   11.62
   5 -12  15   20.94   19.13
  -5  12 -15   20.13   16.10
   5 -12  16  268.53   37.03
   5 -12  16  178.41   66.20
   5 -12  17    0.77   16.75
   5 -12  18   19.72   16.40
   5 -11 -13   13.04   16.30
   5 -11 -12   26.05   11.10
  -5  11  12   36.63   15.99
   5 -11 -11   88.78   20.01
   5 -11 -11  103.71   28.81
  -5  11  11   41.24   29.43
   5 -11 -10  498.47   80.94
   5 -11 -10  576.14   70.66
  -5  11  10  670.15   41.78
   5 -11  -9 1660.88  117.25
   5 -11  -9 1611.68  113.32
  -5  11   9 1608.52  133.71
   5 -11  -8 1497.02  114.45
   5 -11  -8 1363.32  125.29
  -5  11   8 1312.59   98.97
   5 -11  -7  140.86   35.01
   5 -11  -7  177.96   48.16
  -5  11   7  143.99   51.51
   5 -11  -6   96.11   19.49
   5 -11  -6   79.55   26.69
  -5  11   6   91.64   29.32
   5 -11  -5  418.30   84.21
   5 -11  -5  410.93   38.02
  -5  11   5  452.33   48.22
   5 -11  -4  629.51   70.58
   5 -11  -4  606.24   64.24
  -5  11   4  687.93   57.38
   5 -11  -3  577.14   35.04
   5 -11  -3  611.60   47.18
  -5  11   3  540.25   44.92
   5 -11  -2    6.80   11.89
  -5  11   2   17.30   16.02
  -5  11   2   34.56   16.56
   5 -11  -1    7.79   13.14
  -5  11   1   22.25   13.16
  -5  11   1    4.22   11.27
   5 -11   0  756.65   46.18
  -5  11   0  816.75   56.57
  -5  11   0  721.79   45.47
   5 -11   1 1590.91   70.05
  -5  11  -1 1767.18   82.88
  -5  11  -1 1570.25   70.90
   5 -11   2  836.45   40.01
  -5  11  -2 1054.22   83.59
  -5  11  -2  870.58   44.29
   5 -11   3   10.14    3.72
   5 -11   3   19.97   17.31
  -5  11  -3   35.67   12.94
  -5  11  -3   22.37   10.39
   5 -11   4   13.74    6.64
   5 -11   4   30.35   21.68
  -5  11  -4   18.52   14.63
  -5  11  -4   25.43   11.47
   5 -11   5 1049.26   52.72
   5 -11   5 1212.97   56.85
  -5  11  -5 1203.54   59.87
  -5  11  -5 1011.85   53.78
   5 -11   6 3911.69  116.14
   5 -11   6 3923.27  152.66
  -5  11  -6 4078.16  138.47
   5 -11   7  628.12   70.75
   5 -11   7  628.43   36.78
  -5  11  -7  707.44   40.35
   5 -11   8   60.34   21.85
   5 -11   8   32.52   22.29
  -5  11  -8   67.48   23.00
   5 -11   9  284.40   25.84
   5 -11   9  385.04   59.18
  -5  11  -9  316.25   51.54
   5 -11  10 1184.15   68.50
   5 -11  10 1216.33  136.82
  -5  11 -10 1107.66   86.47
   5 -11  11 1472.89   72.18
   5 -11  11 1565.14   85.18
  -5  11 -11 1481.34   70.42
   5 -11  12 1446.60  101.85
   5 -11  12 1405.79  136.66
  -5  11 -12 1570.82  115.44
   5 -11  13  144.37   45.43
   5 -11  13  167.04   56.57
  -5  11 -13  187.94   63.64
   5 -11  14  132.58   31.81
  -5  11 -14  240.49   67.74
   5 -11  15  168.77   53.05
  -5  11 -15  248.46   63.42
   5 -11  16  617.95   44.28
  -5  11 -16  570.94   87.91
   5 -11  17   45.03   34.94
  -5  11 -17   52.42   15.22
   5 -11  18    1.57   10.37
   5 -10 -14  880.59   71.64
   5 -10 -14  861.22   68.07
   5 -10 -13  165.34   75.54
   5 -10 -13  126.92   67.42
  -5  10  13  153.79   70.86
   5 -10 -12   86.38   36.32
   5 -10 -12   63.39   40.11
  -5  10  12   61.27   35.90
   5 -10 -11   61.49   22.08
   5 -10 -11   83.03   25.72
  -5  10  11   47.61   28.11
   5 -10 -10  865.53   79.40
   5 -10 -10  756.66   65.31
  -5  10  10  876.70   66.25
   5 -10  -9 1189.69   91.94
   5 -10  -9 1205.63   92.21
  -5  10   9 1101.02   68.44
   5 -10  -8 2757.24  156.34
   5 -10  -8 2578.97  146.63
  -5  10   8 2380.73  140.85
   5 -10  -7  977.54   56.80
   5 -10  -7  880.78   76.96
  -5  10   7  892.88   52.74
   5 -10  -6   23.16   13.72
   5 -10  -6   10.08   10.00
  -5  10   6   -3.55   15.71
   5 -10  -5  127.78   36.69
   5 -10  -5  103.27   28.33
  -5  10   5  136.88   28.43
   5 -10  -4 1243.61   55.05
   5 -10  -4 1004.10   55.61
  -5  10   4 1037.69   57.31
   5 -10  -3 1237.23   54.40
   5 -10  -3 1169.88   63.14
  -5  10   3 1204.38   81.75
   5 -10  -2  316.24   25.77
  -5  10   2  174.13   24.84
  -5  10   2  294.52   49.44
   5 -10  -1  234.68   43.99
  -5  10   1  228.02   44.49
  -5  10   1  241.70   37.27
   5 -10   0  491.47   63.73
  -5  10   0  438.63   39.92
  -5  10   0  491.91   37.39
   5 -10   1  211.39   21.66
  -5  10  -1  259.55   64.81
  -5  10  -1  205.99   41.07
   5 -10   2    1.12    1.09
   5 -10   2   24.03   16.19
   5 -10   2    0.71    0.89
  -5  10  -2    4.34   13.09
  -5  10  -2   11.53    9.02
   5 -10   3    2.70    3.84
   5 -10   3    9.15    9.09
   5 -10   3    2.89    3.51
  -5  10  -3   -1.17   12.68
  -5  10  -3    7.80    6.92
   5 -10   4  162.20   15.59
   5 -10   4  221.26   56.99
   5 -10   4  171.86   14.22
  -5  10  -4  186.76   59.59
  -5  10  -4  198.76   25.92
   5 -10   5 1088.33   43.95
   5 -10   5 1150.89   63.74
  -5  10  -5 1119.92   53.22
  -5  10  -5 1107.43   44.29
   5 -10   6 2447.00   90.09
   5 -10   6 2332.84   90.03
  -5  10  -6 2332.42  100.79
  -5  10  -6 2257.37   75.96
   5 -10   7 2057.71   88.60
   5 -10   7 2298.46  106.39
   5 -10   7 2092.74   60.78
  -5  10  -7 2186.87   88.75
   5 -10   8  453.20   51.34
   5 -10   8  386.72   30.38
  -5  10  -8  422.23   27.44
   5 -10   9  391.69   28.38
   5 -10   9  380.80   41.87
  -5  10  -9  299.12   35.47
   5 -10  10  320.44   42.66
   5 -10  10  330.47   46.61
  -5  10 -10  307.85   82.84
   5 -10  11 2061.85  122.98
  -5  10 -11 2229.77   88.95
  -5  10 -11 2020.66  111.38
   5 -10  12 2188.83  120.86
  -5  10 -12 1903.22  106.22
  -5  10 -12 2098.81  123.87
  -5  10 -13  150.12   44.46
  -5  10 -13  154.33   41.88
   5 -10  14   92.40   38.41
  -5  10 -14  116.86   30.14
  -5  10 -14   69.85   28.50
   5 -10  15  270.34   97.11
  -5  10 -15  260.77   61.17
   5 -10  16  582.14   76.58
  -5  10 -16  627.23   45.61
   5 -10  17   31.51   21.92
   5 -10  18   58.02   24.63
   5  -9 -16    5.92   10.24
   5  -9 -14  384.94   68.84
   5  -9 -14  481.56   67.42
  -5   9  14  522.15   83.93
   5  -9 -13  128.95   48.98
   5  -9 -13  165.37   56.68
  -5   9  13  155.87   74.99
   5  -9 -12   36.06   26.34
   5  -9 -12   14.23    8.38
  -5   9  12    8.94   13.28
   5  -9 -11  169.90   56.86
   5  -9 -11  163.27   52.40
  -5   9  11  179.59   72.32
   5  -9 -10  868.63   35.44
   5  -9 -10  681.25   68.52
  -5   9  10  725.88   61.16
   5  -9  -9 1931.15   83.51
   5  -9  -9 2030.37   82.93
  -5   9   9 1863.03   79.20
   5  -9  -8 1572.84   78.52
   5  -9  -8 1570.64   63.19
  -5   9   8 1593.07   71.66
   5  -9  -7  174.30   28.05
   5  -9  -7  142.40   40.48
  -5   9   7  163.87   60.11
   5  -9  -6   34.61   11.82
   5  -9  -6   32.09   15.23
  -5   9   6   13.17    9.40
   5  -9  -5   97.87   24.83
   5  -9  -5   55.11   18.85
  -5   9   5   41.56   24.02
   5  -9  -4 6598.93  105.50
   5  -9  -4 6333.83  215.38
  -5   9   4 6271.90  213.43
   5  -9  -3 1686.76   74.79
   5  -9  -3 1960.94   75.91
  -5   9   3 2010.05   89.10
   5  -9  -2  781.59   45.74
  -5   9   2  633.03   49.51
  -5   9   2  712.06   62.83
   5  -9  -1  293.92   49.18
  -5   9   1  216.38   19.64
  -5   9   1  259.06   42.76
   5  -9   0 1980.68   85.52
  -5   9   0 1976.46   89.78
  -5   9   0 1977.25   84.22
   5  -9   1  893.54   61.90
  -5   9  -1  884.16   52.28
  -5   9  -1  891.54   41.40
   5  -9   2  574.08   26.63
   5  -9   2  591.89   49.56
   5  -9   2  511.23   33.76
  -5   9  -2  588.52   49.99
  -5   9  -2  573.69   30.87
   5  -9   3  127.43   10.21
   5  -9   3  170.70   28.77
   5  -9   3  135.50   22.30
  -5   9  -3  178.76   58.85
  -5   9  -3  171.23   26.43
   5  -9   4  311.68   24.95
   5  -9   4  341.37   38.21
   5  -9   4  349.30   25.26
   5  -9   4  253.44   26.33
  -5   9  -4  397.95   31.82
  -5   9  -4  337.27   34.26
   5  -9   5 1745.09   72.86
   5  -9   5 1875.08  114.57
   5  -9   5 1890.73   90.96
  -5   9  -5 1869.27   80.97
  -5   9  -5 1995.36   83.73
   5  -9   6 2132.97   79.24
   5  -9   6 2122.47   85.01
   5  -9   6 2250.82   94.92
   5  -9   6 2129.13   75.05
  -5   9  -6 2296.81   87.19
   5  -9   7 1929.70   81.41
   5  -9   7 1891.34   84.08
   5  -9   7 1890.18   75.83
  -5   9  -7 1890.81   88.49
   5  -9   8   27.98   26.11
   5  -9   8   25.06   15.31
   5  -9   8    3.73    3.07
   5  -9   9    9.73    6.03
  -5   9  -9   14.59    9.14
  -5   9  -9   15.26   12.32
   5  -9  10  846.75   53.79
  -5   9 -10  852.90   52.91
  -5   9 -10  825.38   44.61
   5  -9  11  703.25   57.46
  -5   9 -11  698.46   53.78
  -5   9 -11  656.43   39.71
   5  -9  12  629.21   74.16
  -5   9 -12  682.73   37.12
  -5   9 -12  610.46   36.30
   5  -9  13  439.62   38.51
  -5   9 -13  390.37   83.10
  -5   9 -13  372.69   32.73
   5  -9  14   30.14   20.71
  -5   9 -14   13.92   18.41
   5  -9  15   90.75   28.72
  -5   9 -15   65.71   36.18
   5  -9  16   93.99   33.23
  -5   9 -16   85.00   30.68
   5  -9  17   37.19   22.52
  -5   9 -17   27.29   14.02
   5  -9  18   87.68   36.09
   5  -8 -16   27.21   18.82
   5  -8 -16   12.84   11.33
   5  -8 -15  265.59   99.82
   5  -8 -15  403.25   31.33
  -5   8  15  188.85  113.33
   5  -8 -14  785.70   90.10
   5  -8 -14  871.46   53.74
  -5   8  14  906.61   78.33
   5  -8 -13  198.49   55.18
   5  -8 -13  213.21   37.34
  -5   8  13  226.49   63.11
   5  -8 -12   70.19   21.65
   5  -8 -12   60.11   18.49
  -5   8  12   65.11   38.51
   5  -8 -11    4.38   14.97
   5  -8 -11   11.35   12.70
  -5   8  11   48.02   19.42
   5  -8 -10  955.99   51.02
   5  -8 -10  971.21   68.03
  -5   8  10  902.40   69.16
   5  -8  -9 1573.70   68.76
   5  -8  -9 1630.07  107.64
  -5   8   9 1684.41   91.42
   5  -8  -8  763.78   62.74
   5  -8  -8  814.26   53.49
  -5   8   8  924.96   94.50
   5  -8  -7   40.60   25.20
   5  -8  -7   15.83   14.13
  -5   8   7   31.68   17.80
   5  -8  -6  901.16   41.17
   5  -8  -6 1030.14   43.00
  -5   8   6  842.99   41.09
   5  -8  -5 1823.85   82.06
   5  -8  -5 1908.95   84.72
  -5   8   5 1951.51   78.60
   5  -8  -4 5696.03  200.10
   5  -8  -4 5920.54   75.27
  -5   8   4 6100.81   84.11
   5  -8  -3 3005.98   97.67
   5  -8  -3 3075.61  100.26
  -5   8   3 3040.92   91.27
   5  -8  -2 1195.43   55.29
   5  -8  -2 1233.05   57.84
  -5   8   2 1281.27   61.30
   5  -8  -1    7.37    7.25
  -5   8   1   10.90   13.21
  -5   8   1    7.06    7.83
   5  -8   0  382.25   32.08
  -5   8   0  383.99   45.02
  -5   8   0  417.82   53.09
   5  -8   1  928.95   46.68
   5  -8   1  951.06   56.87
   5  -8   1  908.67   47.17
  -5   8  -1  887.13   83.78
  -5   8  -1  932.74   50.21
   5  -8   2  997.36   55.10
   5  -8   2 1064.08   63.10
  -5   8  -2 1102.90   61.37
  -5   8  -2 1087.57   57.68
   5  -8   3    5.24    3.72
   5  -8   3   19.21    8.73
   5  -8   3   10.00    7.31
  -5   8  -3   23.76   10.91
  -5   8  -3    9.38    7.45
   5  -8   4 1866.44   82.70
   5  -8   4 2091.64  106.23
   5  -8   4 2095.81   93.71
  -5   8  -4 1990.01   84.54
  -5   8  -4 1929.54   84.84
   5  -8   5 1513.31   68.19
   5  -8   5 1750.22   77.94
   5  -8   5 1572.58   74.47
  -5   8  -5 1715.20   72.84
  -5   8  -5 1851.41   81.32
   5  -8   6  710.89   42.69
   5  -8   6  780.87   57.95
   5  -8   6  827.37   59.99
   5  -8   6  751.44   39.74
  -5   8  -6  778.67   46.82
   5  -8   7 1358.98   56.97
   5  -8   7 1321.10   62.21
   5  -8   7 1347.05   57.03
  -5   8  -7 1281.62   71.29
   5  -8   8  673.86   36.28
   5  -8   8  558.64   26.58
  -5   8  -8  620.76   36.76
  -5   8  -8  640.82   37.44
   5  -8   9  283.11   20.67
   5  -8   9  199.96   11.57
  -5   8  -9  216.44   26.90
  -5   8  -9  262.06   48.40
   5  -8  10 2617.16  139.26
  -5   8 -10 2640.37   88.91
  -5   8 -10 2749.07   93.38
   5  -8  11  532.85   41.71
  -5   8 -11  561.04   48.39
  -5   8 -11  672.46   41.23
   5  -8  12    5.57   14.95
  -5   8 -12   11.31    5.55
  -5   8 -12    1.29    5.70
   5  -8  13   -0.34   12.73
  -5   8 -13   18.27   19.76
  -5   8 -13    0.31    6.78
   5  -8  14  149.02   54.00
  -5   8 -14  154.12   55.08
   5  -8  15  697.96   96.29
  -5   8 -15  680.61   93.69
   5  -8  16   87.77   38.96
  -5   8 -16  150.43   71.15
   5  -8  17  121.52   45.45
  -5   8 -17   51.49   61.02
   5  -8  18   25.45   10.33
   5  -7 -17   88.58   31.58
   5  -7 -15   40.96   18.58
   5  -7 -15   21.66   15.67
  -5   7  15   10.40   19.02
   5  -7 -14  534.86   76.73
   5  -7 -14  528.80   54.21
  -5   7  14  541.50   38.73
   5  -7 -13  520.30   65.72
   5  -7 -13  517.65   47.15
  -5   7  13  499.52   78.21
   5  -7 -12   19.22   14.21
   5  -7 -12   15.10    9.45
  -5   7  12   15.25   17.83
   5  -7 -11  143.08   39.39
   5  -7 -11  107.73   42.73
  -5   7  11  135.02   67.97
   5  -7 -10 1492.23   83.47
   5  -7 -10 1357.50   86.53
  -5   7  10 1284.21   85.26
   5  -7  -9 2892.11  109.94
   5  -7  -9 2882.72   96.62
  -5   7   9 2926.29   92.92
  -5   7   9 2833.12   98.01
   5  -7  -8 1862.53   78.25
   5  -7  -8 1865.76   87.89
  -5   7   8 1833.36   67.06
  -5   7   8 1964.84   81.51
   5  -7  -7  253.10   53.40
   5  -7  -7  216.76   22.30
  -5   7   7  192.66   15.05
  -5   7   7  183.65   47.35
   5  -7  -6   35.37   11.13
   5  -7  -6   64.69   16.80
  -5   7   6   32.91    6.81
  -5   7   6   44.89   16.12
   5  -7  -5 1943.48   86.83
   5  -7  -5 1931.30   80.36
  -5   7   5 1844.47   79.92
   5  -7  -4 5698.39  163.89
   5  -7  -4 5514.55  151.62
  -5   7   4 5483.63  155.41
   5  -7  -3 2418.68  113.84
   5  -7  -3 2379.80  100.89
  -5   7   3 2349.21  101.08
   5  -7  -2  226.78   57.46
   5  -7  -2  260.18   48.75
  -5   7   2  218.79   40.54
   5  -7  -1  695.90   34.87
   5  -7  -1  641.04   74.64
   5  -7  -1  587.23   34.91
  -5   7   1  677.69   44.36
   5  -7   0 1503.67   64.52
   5  -7   0 1720.59   81.77
   5  -7   0 1493.73   66.70
  -5   7   0 1539.57   89.56
  -5   7   0 1697.86   82.37
   5  -7   1 3840.35   90.20
   5  -7   1 4111.31  103.11
   5  -7   1 3745.65   94.57
  -5   7  -1 4026.13  107.71
  -5   7  -1 3853.78   98.22
   5  -7   2  789.06   43.90
   5  -7   2  725.15   41.81
   5  -7   2  756.15   47.16
  -5   7  -2  787.55   47.17
  -5   7  -2  736.84   44.89
   5  -7   3   13.41    6.05
   5  -7   3    8.03    8.05
   5  -7   3   16.06    6.97
   5  -7   3   19.06    7.33
  -5   7  -3   31.43   16.65
  -5   7  -3   16.11    7.31
   5  -7   4  247.80   24.95
   5  -7   4  257.07   28.65
   5  -7   4  301.77   37.01
  -5   7  -4  258.90   17.26
  -5   7  -4  268.66   22.43
   5  -7   5  525.67   36.69
   5  -7   5  530.72   24.88
   5  -7   5  603.40   42.90
   5  -7   5  478.90   32.54
  -5   7  -5  533.01   46.18
   5  -7   6  187.70   18.72
   5  -7   6  160.74   18.41
   5  -7   6  243.21   60.54
  -5   7  -6  282.84   38.60
  -5   7  -6  215.49   50.97
   5  -7   7   10.98    7.36
   5  -7   7   -0.10    3.86
   5  -7   7   21.95   12.64
  -5   7  -7   16.72   15.45
  -5   7  -7    7.85    6.37
   5  -7   8 1764.60   78.17
   5  -7   8 1593.20   66.88
  -5   7  -8 1744.36   76.48
  -5   7  -8 1586.14   75.55
   5  -7   9 1039.14   61.78
   5  -7   9 1039.39   38.19
  -5   7  -9 1072.98   55.06
  -5   7  -9 1164.29   53.44
   5  -7  10 2647.36   93.71
  -5   7 -10 2852.97  109.60
  -5   7 -10 2660.18   85.21
   5  -7  11 1407.76   67.78
  -5   7 -11 1368.36   66.22
  -5   7 -11 1370.63   65.05
   5  -7  12  109.25   42.38
  -5   7 -12   80.07   27.44
  -5   7 -12   59.52   17.93
   5  -7  13  158.74   48.83
  -5   7 -13  218.45   67.93
   5  -7  14  378.70   48.86
  -5   7 -14  336.70   94.70
   5  -7  15  203.33   85.17
  -5   7 -15  191.70   86.33
   5  -7  16  133.45   66.42
  -5   7 -16  187.97   53.17
   5  -7  17  162.85   84.88
  -5   7 -17  140.45   82.84
   5  -7  18   49.24   27.71
  -5   7 -18   18.02   14.93
   5  -6 -18  591.36   60.89
   5  -6 -18  659.51   66.32
   5  -6 -17    2.71   10.06
  -5   6  17   24.49   22.16
   5  -6 -16    9.65    8.28
   5  -6 -16    2.15   15.40
  -5   6  16   11.06   18.32
   5  -6 -15   15.92   23.38
   5  -6 -15    9.28   10.21
  -5   6  15   15.39    9.32
   5  -6 -14  140.51   56.95
   5  -6 -14  127.86   44.23
  -5   6  14  204.51   53.12
   5  -6 -13  503.07   30.28
   5  -6 -13  452.59   56.50
  -5   6  13  667.07   39.44
   5  -6 -12   14.45    8.53
   5  -6 -12   12.28   10.49
  -5   6  12    4.73    4.78
  -5   6  12   11.48   15.19
   5  -6 -11  250.11   61.23
   5  -6 -11  171.88   49.04
  -5   6  11  172.84   40.94
  -5   6  11  249.12   67.62
   5  -6 -10 2322.25   80.65
   5  -6 -10 2233.17   81.56
  -5   6  10 2189.53   72.34
  -5   6  10 2388.68   89.79
   5  -6  -9 2062.94   81.86
   5  -6  -9 1765.69   83.36
  -5   6   9 1787.59   72.11
  -5   6   9 1734.87   69.88
   5  -6  -8  257.60   53.61
   5  -6  -8  230.91   28.68
  -5   6   8  273.35   30.25
   5  -6  -7   16.39    7.51
   5  -6  -7   15.04    8.77
   5  -6  -7    5.31    5.40
  -5   6   7    6.18    8.62
  -5   6   7   23.98   14.87
   5  -6  -6   61.07   13.69
   5  -6  -6   60.62   18.19
   5  -6  -6   50.85   13.93
  -5   6   6   45.87   12.06
  -5   6   6   28.22   16.00
   5  -6  -5  727.17   44.04
   5  -6  -5  780.13   62.05
   5  -6  -5  650.30   42.95
  -5   6   5  737.05   38.60
  -5   6   5  692.06   47.30
   5  -6  -4 4652.08  132.06
   5  -6  -4 4748.84  108.71
  -5   6   4 4894.94  111.77
  -5   6   4 4737.55  146.19
   5  -6  -3 2764.49   74.81
   5  -6  -3 2751.01   71.90
   5  -6  -3 2676.75   17.40
  -5   6   3 2682.11   75.50
   5  -6  -2  168.12   55.01
   5  -6  -2  166.65   53.45
   5  -6  -2  129.14    9.56
  -5   6   2  123.06    9.87
  -5   6   2  126.85   21.06
   5  -6  -1   -0.68   17.51
   5  -6  -1   22.27    7.15
   5  -6  -1   23.82    8.97
  -5   6   1   16.98    9.32
  -5   6   1   21.94   10.62
   5  -6   0  623.58   34.39
   5  -6   0  596.16   31.22
  -5   6   0  643.30   36.44
   5  -6   1 3493.16   84.21
   5  -6   1 3443.63   94.32
   5  -6   1 3372.27   85.95
  -5   6  -1 3323.65   91.88
   5  -6   2 2286.71   98.77
   5  -6   2 2083.25   89.25
   5  -6   2 2182.04   96.19
  -5   6  -2 2246.94  102.13
  -5   6  -2 2210.97   95.97
   5  -6   3   65.71   17.35
   5  -6   3   87.33   16.22
   5  -6   3   66.98   14.23
  -5   6  -3   79.73   21.92
  -5   6  -3   61.31   15.79
   5  -6   4  121.77   16.28
   5  -6   4  159.64   13.99
   5  -6   4  138.61   17.22
  -5   6  -4  145.29   14.48
   5  -6   5 1071.38   58.57
   5  -6   5 1130.58   60.69
   5  -6   5 1236.57   60.35
  -5   6  -5 1162.24   58.66
  -5   6  -5 1147.09   58.22
   5  -6   6 1062.59   45.55
   5  -6   6 1020.54   51.87
   5  -6   6 1110.25   54.81
  -5   6  -6 1010.50   48.07
  -5   6  -6 1043.56   47.14
   5  -6   7   73.18   17.08
   5  -6   7   40.65   15.12
   5  -6   7   71.88   18.73
  -5   6  -7   33.23   20.65
  -5   6  -7   58.60   22.40
   5  -6   8  125.65   26.62
   5  -6   8  116.57   17.98
   5  -6   8  157.77   43.96
  -5   6  -8  136.57   35.56
  -5   6  -8  168.90   26.19
   5  -6   9 1588.76   94.95
   5  -6   9 1588.00   67.30
  -5   6  -9 1721.32   73.17
  -5   6  -9 1520.00   78.37
   5  -6  10 1045.45   61.56
   5  -6  10  970.47   50.52
  -5   6 -10  909.13   55.01
  -5   6 -10 1021.88   59.09
   5  -6  11 1569.83  115.80
   5  -6  11 1325.87   56.94
  -5   6 -11 1470.49   61.52
  -5   6 -11 1473.30   65.99
   5  -6  12  338.89   93.93
  -5   6 -12  328.41   90.21
   5  -6  13   33.74   27.40
  -5   6 -13   54.22   25.13
   5  -6  14  353.11  113.56
  -5   6 -14  413.64   88.96
   5  -6  15  743.34   71.55
  -5   6 -15  707.86   69.61
   5  -6  16  242.55  105.94
  -5   6 -16  229.09   88.95
   5  -6  17   68.09   41.28
  -5   6 -18   -9.24   16.94
   5  -5 -19  429.72   91.69
   5  -5 -18  349.65  102.10
   5  -5 -18  472.73   56.99
  -5   5  18  586.17   91.19
   5  -5 -17   11.47   17.42
   5  -5 -17   12.79    8.63
  -5   5  17  -12.33   14.73
   5  -5 -16    5.62    9.98
   5  -5 -16   21.99   14.73
  -5   5  16   13.32   16.39
   5  -5 -15  117.48   36.33
   5  -5 -15   91.62   51.32
  -5   5  15  126.59   43.50
  -5   5  15  135.89   49.95
   5  -5 -14  115.05   46.13
   5  -5 -14   87.23   34.04
  -5   5  14  110.92   46.70
   5  -5 -13  406.75   35.81
   5  -5 -13  462.94   27.78
  -5   5  13  338.26   22.98
  -5   5  13  358.38   55.40
   5  -5 -12   16.45   10.53
   5  -5 -12   16.72   13.33
  -5   5  12    7.05   11.53
  -5   5  12   -0.24   19.53
   5  -5 -11  391.42   38.57
   5  -5 -11  429.84   47.39
  -5   5  11  331.36   20.43
  -5   5  11  326.30   27.70
   5  -5 -10 1615.23   67.99
   5  -5 -10 1438.96   57.51
  -5   5  10 1363.68   51.83
  -5   5  10 1484.17   61.55
   5  -5  -9 1425.34   83.65
   5  -5  -9 1398.19   78.92
  -5   5   9 1423.57   60.14
  -5   5   9 1532.70   69.17
   5  -5  -8  296.48   67.41
   5  -5  -8  192.41   17.76
   5  -5  -8  110.54   20.68
  -5   5   8  173.26   22.62
  -5   5   8  181.97   19.31
   5  -5  -7  119.59   22.64
   5  -5  -7   68.06   16.98
   5  -5  -7   51.15   16.92
  -5   5   7   68.73   14.16
  -5   5   7   55.40   13.12
   5  -5  -6  262.93   27.06
   5  -5  -6  238.96   24.93
   5  -5  -6  198.02   16.11
  -5   5   6  222.14   13.76
  -5   5   6  232.56   29.75
   5  -5  -5 3975.54  118.16
   5  -5  -5 3651.46   97.04
   5  -5  -5 3733.74   90.35
  -5   5   5 3850.99   91.70
  -5   5   5 3908.54  102.24
   5  -5  -4 2007.73   89.24
   5  -5  -4 1751.50   75.25
   5  -5  -4 1745.98   75.46
  -5   5   4 1749.64   73.22
  -5   5   4 1719.44   75.27
  -5   5   4 1762.74   77.76
   5  -5  -3 1801.38   78.81
   5  -5  -3 1757.59   73.93
   5  -5  -3 1822.37   75.62
  -5   5   3 1813.88   76.03
  -5   5   3 1766.32   76.11
  -5   5   3 1780.26   82.28
   5  -5  -2   -0.36   13.83
   5  -5  -2    6.83    6.33
   5  -5  -2    2.20    2.87
  -5   5   2    9.63    5.02
  -5   5   2    5.86    7.38
  -5   5   2   -5.99    9.44
   5  -5  -1  314.72   50.67
   5  -5  -1  216.39   20.47
   5  -5  -1  246.75   11.35
   5  -5  -1  227.18   17.03
  -5   5   1  224.30   15.52
  -5   5   1  217.43   23.91
   5  -5   0  435.01   26.87
   5  -5   0  440.59   27.12
   5  -5   0  402.76   34.54
   5  -5   0  427.11   22.91
  -5   5   0  468.31   28.85
  -5   5   0  437.59   44.21
   5  -5   1 3049.73   76.62
   5  -5   1 2963.08   75.91
   5  -5   1 3030.54   76.12
   5  -5   1 2942.98   71.59
  -5   5  -1 3173.02   76.87
  -5   5  -1 2920.92   73.53
   5  -5   2  913.45   41.07
   5  -5   2  921.85   44.56
   5  -5   2  948.22   40.92
  -5   5  -2  996.06   43.70
  -5   5  -2  956.39   47.19
  -5   5  -2  991.07   47.12
   5  -5   3  106.87   19.70
   5  -5   3  142.56   20.22
  -5   5  -3  127.28   15.63
   5  -5   4   57.32   14.23
   5  -5   4   59.51   14.49
   5  -5   4   63.67   25.66
   5  -5   4   77.30   11.48
  -5   5  -4   73.06   11.82
  -5   5  -4   72.51   27.01
   5  -5   5  950.46   53.39
   5  -5   5  962.61   57.93
   5  -5   5 1097.25   67.10
   5  -5   5 1023.02   54.53
  -5   5  -5 1037.22   81.10
  -5   5  -5 1054.58   57.35
   5  -5   6  942.47   54.28
   5  -5   6  947.30   52.29
   5  -5   6 1005.68   57.47
   5  -5   6 1018.20   54.72
  -5   5  -6 1040.85   59.08
  -5   5  -6 1058.83   58.27
   5  -5   7    3.59    4.30
   5  -5   7    0.87    3.47
   5  -5   7   19.54   13.32
   5  -5   7    3.31    5.01
  -5   5  -7    6.58    7.01
  -5   5  -7    9.32    9.10
   5  -5   8    4.79    4.13
   5  -5   8    1.67    3.03
   5  -5   8   18.85   10.27
  -5   5  -8   -1.50   12.81
  -5   5  -8    4.61    4.53
   5  -5   9 1741.16   90.80
   5  -5   9 1521.58   64.11
  -5   5  -9 1652.25   73.04
  -5   5  -9 1644.73   77.71
   5  -5  10 1198.14   87.34
   5  -5  10 1157.24   64.01
  -5   5 -10 1226.14   50.23
  -5   5 -10 1170.59   91.31
   5  -5  11 1734.64   69.20
   5  -5  11 1744.44  122.31
  -5   5 -11 1864.03   82.08
   5  -5  12  590.48   63.67
  -5   5 -12  468.20   54.86
   5  -5  13  159.26   46.65
  -5   5 -13  169.77   35.18
   5  -5  14 1054.57  116.08
  -5   5 -14 1148.72   88.19
   5  -5  15  722.52   64.63
  -5   5 -15  882.03   58.54
   5  -5  16  303.68   93.39
  -5   5 -16  299.90   94.98
   5  -5  17  124.62   54.57
   5  -4 -19  494.39   54.62
   5  -4 -19  618.78   69.90
   5  -4 -18  730.79   40.26
   5  -4 -18  612.53   71.36
  -5   4  18  523.75   78.99
   5  -4 -17   68.51   23.36
   5  -4 -17   52.16   25.03
  -5   4  17   16.97   19.41
  -5   4  17   34.82   24.95
   5  -4 -16   14.95   19.01
   5  -4 -16   31.10   12.38
  -5   4  16   15.09   11.21
   5  -4 -15  132.63   38.45
   5  -4 -15  107.84   48.36
  -5   4  15  124.29   35.43
  -5   4  15  145.46   42.48
   5  -4 -14  229.78   60.99
   5  -4 -14  252.25   29.08
  -5   4  14  240.81   36.65
  -5   4  14  243.33   44.01
   5  -4 -13  663.24   40.00
   5  -4 -13  581.26   63.81
  -5   4  13  573.72   39.32
  -5   4  13  538.95   73.40
   5  -4 -12   94.73   28.68
   5  -4 -12   76.15   30.40
  -5   4  12   76.52   20.73
  -5   4  12   52.51   31.49
   5  -4 -11   23.38   10.29
   5  -4 -11    9.76    7.46
  -5   4  11   13.82    7.85
  -5   4  11   34.05   27.45
   5  -4 -10   76.67   18.36
   5  -4 -10   82.30   21.07
  -5   4  10   64.91   14.83
  -5   4  10   56.80   36.50
   5  -4  -9   26.39    8.40
   5  -4  -9   16.11   11.94
  -5   4   9   12.16    6.56
  -5   4   9    1.82   11.02
   5  -4  -8  448.04   33.25
   5  -4  -8  508.00   39.90
  -5   4   8  447.30   34.19
  -5   4   8  416.32   48.47
   5  -4  -7   21.01   15.53
   5  -4  -7   11.57    6.10
   5  -4  -7    3.97    6.18
  -5   4   7   10.11    5.34
  -5   4   7   10.90   10.16
   5  -4  -6 2943.63   94.19
   5  -4  -6 2803.79   74.04
   5  -4  -6 2997.80   74.38
  -5   4   6 2984.49   77.42
  -5   4   6 2957.85   72.31
  -5   4   6 3088.24   85.34
   5  -4  -5 3701.81  113.03
   5  -4  -5 3943.59  104.67
   5  -4  -5 3746.78   89.98
  -5   4   5 3764.04   91.99
  -5   4   5 3752.98   92.35
  -5   4   5 3912.15  101.43
   5  -4  -4 1916.81   83.39
   5  -4  -4 1788.64   74.35
   5  -4  -4 1934.72   84.47
  -5   4   4 1897.65   82.78
  -5   4   4 1816.04   76.22
  -5   4   4 1857.87   80.87
   5  -4  -3 1582.79   59.36
   5  -4  -3 1470.39   53.75
   5  -4  -3 1511.41   50.11
  -5   4   3 1504.99   53.36
  -5   4   3 1441.92   48.64
  -5   4   3 1529.55   59.77
   5  -4  -2   27.87   11.52
   5  -4  -2    3.72    4.84
   5  -4  -2   -3.54    4.41
   5  -4  -2    4.72    3.04
  -5   4   2    5.90    3.19
  -5   4   2    4.49    6.14
   5  -4  -1 2120.15   73.88
   5  -4  -1 2282.50   65.75
   5  -4  -1 2181.33   67.55
   5  -4  -1 2050.94   66.37
  -5   4   1 2098.71   72.75
  -5   4   1 2138.62   72.43
   5  -4   0 3484.58  103.93
   5  -4   0 3440.77   95.92
   5  -4   0 3612.81  101.45
   5  -4   0 3506.51   97.87
  -5   4   0 3507.97   99.39
  -5   4   0 3357.39   96.13
   5  -4   1 1153.57   50.12
   5  -4   1 1090.38   43.99
   5  -4   1 1174.35   48.83
   5  -4   1 1109.21   46.71
  -5   4  -1 1170.37   48.76
  -5   4  -1 1203.71   60.16
   5  -4   2  853.94   40.87
   5  -4   2  913.31   38.25
   5  -4   2  924.56   38.02
   5  -4   2  901.10   39.86
  -5   4  -2  967.79   42.19
  -5   4  -2  949.10   43.59
  -5   4  -2  918.05   44.57
   5  -4   3   49.67   14.07
   5  -4   3   28.49   12.15
   5  -4   3   37.32    8.71
  -5   4  -3   36.01   18.92
   5  -4   4 1761.13   74.48
   5  -4   4 1837.84   82.49
  -5   4  -4 1858.65   79.20
  -5   4  -4 1746.74   80.69
   5  -4   5 2664.21   32.42
   5  -4   5 2711.46   68.74
   5  -4   5 2905.46   91.24
  -5   4  -5 2739.27   70.68
  -5   4  -5 2659.87   27.59
   5  -4   6  175.06   28.93
   5  -4   6  181.53   18.79
   5  -4   6  237.72   68.42
  -5   4  -6  198.33   30.93
  -5   4  -6  163.95   18.04
   5  -4   7  464.81   34.00
   5  -4   7  481.78   31.05
   5  -4   7  540.43   44.72
  -5   4  -7  407.53   35.89
  -5   4  -7  446.07   31.40
   5  -4   8  144.17   30.87
   5  -4   8  100.51   13.65
   5  -4   8  114.12   38.44
  -5   4  -8  133.31   31.18
  -5   4  -8  120.42   22.16
   5  -4   9 1436.24  101.81
   5  -4   9 1600.47   71.28
  -5   4  -9 1512.96   60.51
  -5   4  -9 1582.05   73.08
   5  -4  10  674.81   79.69
   5  -4  10  437.43   31.49
  -5   4 -10  435.16   15.82
  -5   4 -10  523.91   29.06
   5  -4  11 1679.66   73.04
   5  -4  11 1813.13   82.22
  -5   4 -11 1952.31   75.67
   5  -4  12    6.11    9.19
   5  -4  12   -1.71   19.76
  -5   4 -12    7.58   16.79
   5  -4  13  483.84   51.13
  -5   4 -13  562.32   72.86
   5  -4  14  643.80  132.18
  -5   4 -14  557.88   84.37
   5  -4  15  836.11   77.30
  -5   4 -15  880.04   49.66
   5  -4  16  407.91   50.01
  -5   4 -16  345.47  100.50
   5  -4  17   91.32   23.16
  -5   4 -17   46.53   39.97
   5  -3 -20  799.85   63.42
  -5   3  20  546.92  110.98
   5  -3 -19  233.45   92.96
   5  -3 -19  255.41   48.49
  -5   3  19  321.95   49.49
   5  -3 -18  702.37   70.68
   5  -3 -18  557.88   71.62
  -5   3  18  650.10   41.97
  -5   3  18  478.65   99.99
   5  -3 -17  473.44   96.44
   5  -3 -17  383.90   52.11
  -5   3  17  352.99   83.31
  -5   3  17  408.52   46.86
   5  -3 -16   28.47   19.04
   5  -3 -16   18.77    9.85
  -5   3  16   44.61   21.07
  -5   3  16   34.03   26.20
   5  -3 -15  284.11   66.96
   5  -3 -15  280.63   48.96
  -5   3  15  216.10   51.10
  -5   3  15  205.91   68.18
   5  -3 -14 1067.70   81.53
   5  -3 -14 1025.82   51.59
  -5   3  14 1019.27   87.09
  -5   3  14 1070.48   72.75
   5  -3 -13 1248.48   71.94
   5  -3 -13 1254.12   67.03
  -5   3  13 1256.93   68.80
  -5   3  13 1265.94  100.18
   5  -3 -12   77.80   20.38
   5  -3 -12   25.39   13.86
  -5   3  12   45.12   19.08
  -5   3  12   41.96   27.63
   5  -3 -11  105.44   18.75
   5  -3 -11   71.44   21.80
  -5   3  11   86.43   29.24
  -5   3  11   95.71   23.90
   5  -3 -10   26.24   11.06
   5  -3 -10   10.83    8.75
  -5   3  10   13.55    7.23
  -5   3  10   23.27    7.46
   5  -3  -9 1176.77   56.44
   5  -3  -9 1111.29   50.65
  -5   3   9 1230.33   54.54
  -5   3   9 1223.29   73.91
   5  -3  -8   19.47   10.39
   5  -3  -8    5.70    3.99
  -5   3   8    1.21    7.01
  -5   3   8   27.79   15.77
   5  -3  -7    5.41   13.16
   5  -3  -7   10.47    5.92
   5  -3  -7   20.18    7.82
  -5   3   7    8.96   12.48
  -5   3   7    3.38    6.58
  -5   3   7   26.45   18.01
   5  -3  -6  476.38   59.80
   5  -3  -6  545.75   37.33
   5  -3  -6  445.46   25.90
  -5   3   6  487.82   30.38
  -5   3   6  446.24   28.15
  -5   3   6  326.72   36.74
   5  -3  -5 4396.99  109.84
   5  -3  -5 3935.87   95.06
   5  -3  -5 3955.31  100.87
  -5   3   5 4006.52   96.53
  -5   3   5 3994.83   96.37
  -5   3   5 3939.01   99.42
   5  -3  -4 2682.75   81.78
   5  -3  -4 2610.89   75.03
   5  -3  -4 2515.54   74.25
  -5   3   4 2580.80   78.06
  -5   3   4 2563.55   71.63
  -5   3   4 2557.44   77.47
   5  -3  -3 1852.87   75.31
   5  -3  -3 1756.87   57.80
   5  -3  -3 1839.56   61.69
  -5   3   3 1883.88   64.89
  -5   3   3 1871.88   67.10
   5  -3  -2  603.22   33.39
   5  -3  -2  607.84   33.10
   5  -3  -2  549.22   26.12
   5  -3  -2  565.68   30.59
  -5   3   2  610.99   33.93
  -5   3   2  592.09   31.67
   5  -3  -1 1290.72   68.00
   5  -3  -1 1282.14   50.26
   5  -3  -1 1238.40   50.46
   5  -3  -1 1225.29   49.23
  -5   3   1 1269.69   55.31
  -5   3   1 1219.54   56.43
   5  -3   0 4245.20   81.84
   5  -3   0 4621.88   85.07
   5  -3   0 4331.12   75.16
   5  -3   0 4392.20   80.19
   5  -3   0 4268.66   78.79
  -5   3   0 4317.53   83.59
  -5   3   0 4232.26   79.71
   5  -3   1 4058.56   76.46
   5  -3   1 3919.18  107.94
  -5   3  -1 3906.14  110.07
  -5   3  -1 3895.23  110.48
  -5   3  -1 3860.82  112.11
   5  -3   2 4271.34   79.93
   5  -3   2 4350.13   77.12
   5  -3   2 4258.38   76.40
   5  -3   2 4486.61   86.71
  -5   3  -2 4482.86   95.15
   5  -3   3  477.85   36.11
   5  -3   3  532.67   29.09
   5  -3   3  532.60   29.17
   5  -3   3  556.86   33.53
  -5   3  -3  524.25   35.65
  -5   3  -3  559.27   32.89
   5  -3   4   32.94    6.29
   5  -3   4   26.05   12.07
  -5   3  -4   41.39    6.43
  -5   3  -4   37.16   14.30
   5  -3   5 1075.31   55.47
   5  -3   5 1043.10   56.32
   5  -3   5 1024.42   56.85
  -5   3  -5 1066.78   60.62
  -5   3  -5 1120.77   61.63
   5  -3   6  649.33   40.27
   5  -3   6  621.67   42.88
   5  -3   6  737.67   48.67
   5  -3   6  675.58   77.81
  -5   3  -6  640.57   53.67
   5  -3   7  197.85   11.01
   5  -3   7  193.76   11.09
   5  -3   7  207.99   29.58
   5  -3   7  224.46   28.05
  -5   3  -7  203.17   43.59
   5  -3   8   -0.21    1.42
   5  -3   8    6.57   12.57
   5  -3   8   10.43   16.21
  -5   3  -8   17.90   12.40
   5  -3   9  514.26   55.61
   5  -3   9  535.05   51.62
  -5   3  -9  495.19   50.94
   5  -3  10  255.76   30.87
   5  -3  10  324.95   50.74
  -5   3 -10  273.62   74.04
   5  -3  11   15.18   14.05
   5  -3  11   10.40   17.78
  -5   3 -11    8.73    9.29
   5  -3  12   44.51   16.70
   5  -3  12   28.81   17.43
  -5   3 -12   39.68   22.46
   5  -3  13  238.56   48.29
   5  -3  13  268.61   94.59
  -5   3 -13  261.18   57.94
   5  -3  14  427.81  116.64
  -5   3 -14  474.37   78.20
   5  -3  15  787.03   89.86
  -5   3 -15  781.48   46.37
  -5   3 -16  643.14   59.18
   5  -3  17   -1.48   23.85
  -5   3 -17   25.18   24.23
   5  -2 -20 1027.24   76.36
   5  -2 -20  884.37   71.16
  -5   2  20  806.22   75.07
  -5   2  20 1057.70   80.15
   5  -2 -19  133.92   75.88
   5  -2 -19  151.54   57.73
  -5   2  19  150.79   79.69
   5  -2 -18   56.57   25.32
  -5   2  18   47.88   20.26
   5  -2 -17  109.24   51.32
   5  -2 -17   69.46   34.53
  -5   2  17   82.20   39.25
  -5   2  17  124.40   46.83
   5  -2 -16   83.58   27.78
   5  -2 -16   40.85   24.32
  -5   2  16   95.66   23.95
  -5   2  16   95.97   26.21
   5  -2 -15 1459.34  103.02
   5  -2 -15 1241.94   74.02
  -5   2  15 1387.43   88.56
  -5   2  15 1383.87   87.97
   5  -2 -14  946.57   40.89
   5  -2 -14 1039.64   39.59
  -5   2  14 1049.21   72.94
  -5   2  14  998.57   77.16
   5  -2 -13  190.66   44.96
   5  -2 -13  205.14   41.12
  -5   2  13  213.60   49.74
  -5   2  13  156.71   44.75
   5  -2 -12  673.73   48.77
   5  -2 -12  685.42   69.38
  -5   2  12  673.49   40.59
  -5   2  12  683.55   69.95
   5  -2 -11  479.48   28.76
   5  -2 -11  539.41   47.39
  -5   2  11  534.36   28.33
  -5   2  11  587.79   36.96
   5  -2 -10 3089.60  120.20
   5  -2 -10 3005.80  119.66
  -5   2  10 3282.47  117.55
  -5   2  10 3030.96  117.02
   5  -2  -9 1114.32   52.81
   5  -2  -9 1053.84   50.24
  -5   2   9 1053.90   53.53
  -5   2   9 1083.77   54.05
   5  -2  -8  277.85   59.62
   5  -2  -8  211.87   11.23
  -5   2   8  197.38   17.98
  -5   2   8  241.00   19.61
  -5   2   8  240.85   47.19
   5  -2  -7   79.07   28.30
   5  -2  -7   99.11   20.44
  -5   2   7   53.89   11.68
  -5   2   7   47.69   23.17
  -5   2   7  168.92   30.78
   5  -2  -6 1366.69   68.26
   5  -2  -6 1247.11   52.07
  -5   2   6 1359.92   56.08
  -5   2   6 1355.00   65.85
  -5   2   6 1343.84   81.98
   5  -2  -5 4400.99  121.53
   5  -2  -5 4175.91   96.21
   5  -2  -5 4212.16  105.23
  -5   2   5 4313.11  104.79
  -5   2   5 4250.66   99.12
  -5   2   5 4066.08  101.31
   5  -2  -4 3577.34  104.32
   5  -2  -4 3254.03   88.48
   5  -2  -4 3332.74   94.98
  -5   2   4 3454.71   98.38
  -5   2   4 3178.49   86.95
  -5   2   4 3595.47  105.32
   5  -2  -3 1510.72   52.75
   5  -2  -3 1355.29   51.81
   5  -2  -3 1433.98   57.21
  -5   2   3 1475.43   52.53
  -5   2   3 1380.92   33.81
   5  -2  -2  514.28   46.47
   5  -2  -2  437.05   21.47
   5  -2  -2  406.65   19.01
   5  -2  -2  394.36   26.98
  -5   2   2  445.32   27.59
  -5   2   2  458.50   44.77
   5  -2  -1  498.70   26.14
   5  -2  -1  631.63   47.26
   5  -2  -1  486.25   23.26
   5  -2  -1  510.54   26.42
   5  -2  -1  480.98   31.83
  -5   2   1  550.68   37.94
  -5   2   1  552.19   32.88
   5  -2   0 6329.94  110.23
   5  -2   0 6174.31  108.78
   5  -2   0 6319.06  106.69
  -5   2   0 6410.78  111.18
  -5   2   0 6650.77  118.88
  -5   2   0 6352.86  114.75
   5  -2   1 4203.11   76.72
   5  -2   1 4217.57   75.39
   5  -2   1 4384.48   78.43
   5  -2   1 4129.63   89.57
  -5   2  -1 4277.71   78.35
  -5   2  -1 3990.59   74.38
   5  -2   2  697.85   34.79
   5  -2   2  689.96   32.59
   5  -2   2  715.24   18.71
   5  -2   2  717.10   23.95
  -5   2  -2  692.09   38.84
  -5   2  -2  628.12   46.89
   5  -2   3  620.28   37.04
   5  -2   3  619.18   31.37
   5  -2   3  629.77   33.16
   5  -2   3  656.08   54.94
  -5   2  -3  578.18   38.13
  -5   2  -3  607.30   35.38
   5  -2   4  150.66   13.67
   5  -2   4  183.08   17.92
   5  -2   4  186.16   37.99
  -5   2  -4  153.80   18.25
  -5   2  -4  112.02   12.93
   5  -2   5 1313.55   58.08
   5  -2   5 1207.40   53.29
   5  -2   5 1282.80   69.21
  -5   2  -5 1233.20   61.50
  -5   2  -5 1371.44   64.12
   5  -2   6 1792.42   70.56
   5  -2   6 1919.56  110.64
  -5   2  -6 1787.52   79.30
  -5   2  -6 1814.53   77.64
   5  -2   7  296.67   33.79
   5  -2   7  292.31   65.38
  -5   2  -7  258.27   23.08
   5  -2   8   27.29   16.48
   5  -2   8    5.64   11.05
  -5   2  -8   58.29   17.14
   5  -2   9  377.07   42.52
   5  -2   9  405.21   62.06
  -5   2  -9  366.59   53.21
   5  -2  10  916.15   63.61
   5  -2  10  873.73  111.21
  -5   2 -10  912.62   63.16
   5  -2  11   15.90   19.00
   5  -2  11   18.55   19.60
  -5   2 -11   17.37    9.72
   5  -2  12   58.87   20.73
   5  -2  12   84.65   30.22
  -5   2 -12   39.08   26.67
   5  -2  13    0.26   10.71
   5  -2  13   -1.11   21.68
  -5   2 -13   13.94   18.00
   5  -2  14  286.13   37.16
   5  -2  14  157.54   93.34
  -5   2 -14  227.21   90.33
   5  -2  15  995.81  120.44
  -5   2 -15  962.42   99.85
   5  -2  16  458.97  138.73
  -5   2 -16  515.65   72.35
  -5   2 -17   21.04   14.09
   5  -1 -21   79.03   55.07
   5  -1 -20  741.55   61.89
   5  -1 -20  612.91   64.74
  -5   1  20  577.34   79.26
  -5   1  20  705.92   62.02
   5  -1 -19  619.30   74.51
   5  -1 -19  541.22   78.45
  -5   1  19  548.22   79.05
  -5   1  19  531.58   73.00
   5  -1 -18  303.12   40.42
   5  -1 -18  229.94   48.94
  -5   1  18  215.41   73.85
  -5   1  18  253.47   74.70
   5  -1 -17    2.59   18.11
   5  -1 -17   11.36   12.31
  -5   1  17   16.94   19.38
  -5   1  17   17.43   13.45
   5  -1 -16  454.38   67.09
   5  -1 -16  370.43   42.41
  -5   1  16  314.59   77.91
  -5   1  16  351.79   36.61
   5  -1 -15  622.83   62.37
   5  -1 -15  605.28   64.82
  -5   1  15  548.21   35.65
  -5   1  15  516.34   46.32
   5  -1 -14 2772.94  111.55
   5  -1 -14 2981.52  113.68
  -5   1  14 2871.86  114.10
  -5   1  14 2719.86  122.86
   5  -1 -13 1340.93   63.98
   5  -1 -13 1216.02   63.94
  -5   1  13 1215.46   52.44
  -5   1  13 1292.07   73.83
   5  -1 -12   12.94   15.87
   5  -1 -12   13.07    7.51
  -5   1  12   20.53    9.04
  -5   1  12    7.70    5.42
   5  -1 -11   15.57    9.19
   5  -1 -11   11.68    8.29
  -5   1  11   28.28   18.70
  -5   1  11   30.62   18.54
   5  -1 -10  575.76   33.22
   5  -1 -10  501.46   35.16
  -5   1  10  548.24   40.50
  -5   1  10  493.41   49.32
   5  -1  -9 1233.35   61.74
   5  -1  -9 1156.84   58.47
  -5   1   9 1096.90   57.09
  -5   1   9 1116.08   71.96
  -5   1   9 1107.61   63.92
   5  -1  -8   95.29   15.15
   5  -1  -8   88.26   20.99
  -5   1   8   81.73    9.03
  -5   1   8   73.76   18.85
  -5   1   8   77.83   32.10
   5  -1  -7   17.75   11.98
   5  -1  -7   21.21   10.77
  -5   1   7    0.94    4.81
  -5   1   7    8.76   12.38
  -5   1   7    6.65   14.19
   5  -1  -6  916.41   44.03
   5  -1  -6  859.17   18.76
  -5   1   6  918.87   38.92
  -5   1   6  828.97   48.47
  -5   1   6  921.24   43.14
   5  -1  -5 1663.55   63.31
   5  -1  -5 1607.90   50.15
  -5   1   5 1565.44   48.76
  -5   1   5 1646.91   57.11
  -5   1   5 1610.82   58.26
   5  -1  -4 1417.32   51.28
  -5   1   4 1376.67   24.66
  -5   1   4 1375.12   30.16
   5  -1  -3   82.75   25.15
  -5   1   3  101.84   31.30
  -5   1   3   82.51   17.33
   5  -1  -2    9.43    7.38
  -5   1   2    1.09    6.71
  -5   1   2   16.55    8.53
  -5   1   2    5.11    5.80
   5  -1  -1 2051.90   68.24
   5  -1  -1 2170.72   67.76
  -5   1   1 2082.25   67.99
  -5   1   1 2085.38   74.60
  -5   1   1 2128.01   73.08
  -5   1   1 2036.09   68.62
   5  -1   0 7367.04  128.03
   5  -1   0 7523.56  136.36
   5  -1   0 7555.20  127.91
  -5   1   0 7296.97  121.94
  -5   1   0 7313.09  130.77
  -5   1   0 7065.63  121.88
   5  -1   1  289.74   19.45
   5  -1   1  282.78   15.47
   5  -1   1  295.03   16.09
   5  -1   1  318.00   24.03
  -5   1  -1  325.50   17.51
  -5   1  -1  284.57   25.98
   5  -1   2  395.34   24.48
   5  -1   2  397.54   26.41
   5  -1   2  429.54   23.68
   5  -1   2  493.35   44.96
  -5   1  -2  377.01   21.67
  -5   1  -2  426.63   41.43
   5  -1   3 1693.97   72.44
   5  -1   3 1644.20   69.39
   5  -1   3 1564.04   67.65
   5  -1   3 1740.27   81.67
  -5   1  -3 1738.84   73.79
  -5   1  -3 1737.08   76.15
   5  -1   4 2610.16  106.14
   5  -1   4 2755.39   63.70
   5  -1   4 3159.86  146.58
  -5   1  -4 2760.15   82.25
  -5   1  -4 2659.36   47.62
   5  -1   5 1877.56   97.25
  -5   1  -5 1814.94   92.97
  -5   1  -5 1735.95   50.42
   5  -1   6  906.97   66.14
  -5   1  -6  837.99   68.82
  -5   1  -6  883.95   44.99
   5  -1   7  986.87   56.62
   5  -1   7  935.31   69.88
  -5   1  -7  848.05   62.17
   5  -1   8  147.97   37.68
   5  -1   8  162.06   48.58
  -5   1  -8  122.53   46.84
   5  -1   9  475.29   48.89
   5  -1   9  572.35   85.12
  -5   1  -9  510.72   34.70
   5  -1  10 1112.02   57.45
   5  -1  10 1134.94   53.02
  -5   1 -10 1129.61   82.94
   5  -1  11   59.92   16.59
   5  -1  11   85.07   19.36
  -5   1 -11   53.29   20.51
   5  -1  12   86.06   30.81
   5  -1  12  139.35   65.00
  -5   1 -12   85.50   36.70
   5  -1  13  389.81   52.90
   5  -1  13  528.92   53.12
  -5   1 -13  540.16   50.47
   5  -1  14  344.93   48.10
   5  -1  14  391.56   77.03
  -5   1 -14  266.54   79.21
   5  -1  15  496.01   50.39
  -5   1 -15  469.82   74.59
  -5   1 -16  162.76   87.83
   5   0 -21  106.29   76.02
  -5   0  21   99.02   87.09
   5   0 -20  531.30   58.91
  -5   0  20  456.55   90.12
  -5   0  20  547.46   65.22
   5   0 -19 1184.57   64.21
   5   0 -19 1091.44   62.91
  -5   0  19 1207.12   72.78
  -5   0  19 1080.82   60.97
   5   0 -18  186.95   81.41
   5   0 -18  261.66   39.97
  -5   0  18  321.87   65.27
  -5   0  18  279.07   74.11
   5   0 -17  214.80   70.09
   5   0 -17  189.52   60.32
  -5   0  17  195.63   67.94
   5   0 -16    5.61   10.65
   5   0 -16   49.14   12.08
  -5   0  16   46.99   20.00
  -5   0  16    8.15   15.04
   5   0 -15 1740.08  133.47
   5   0 -15 1706.59   94.84
  -5   0  15 1778.99   78.33
  -5   0  15 1783.44   84.49
   5   0 -14 2441.46   96.47
   5   0 -14 2434.05   89.47
  -5   0  14 2373.59   88.69
  -5   0  14 2318.53  102.61
   5   0 -13  731.29   42.82
   5   0 -13  837.38   47.15
  -5   0  13  800.72   71.93
  -5   0  13  756.63   50.54
   5   0 -12  345.75   70.33
   5   0 -12  353.31   26.50
  -5   0  12  352.49   50.15
  -5   0  12  351.96   44.07
   5   0 -11  417.68   39.03
   5   0 -11  352.05   31.15
  -5   0  11  367.09   28.97
  -5   0  11  388.30   40.49
   5   0 -10 1551.16   69.55
   5   0 -10 1411.63   64.83
  -5   0  10 1398.94   59.09
  -5   0  10 1492.42   73.17
  -5   0  10 1440.22   65.21
   5   0  -9 1664.35   96.04
   5   0  -9 1673.77   76.13
  -5   0   9 1560.87   69.59
  -5   0   9 1826.63   81.86
  -5   0   9 1743.33   39.18
   5   0  -8 2662.34   50.74
   5   0  -8 2541.89  104.59
  -5   0   8 2520.65  102.17
  -5   0   8 2594.30  114.20
  -5   0   8 2679.03   86.65
   5   0  -7   18.65   11.57
   5   0  -7   20.26    9.88
  -5   0   7    0.85    3.20
  -5   0   7   16.94    8.21
  -5   0   7   25.22   21.52
   5   0  -6  723.21   52.07
  -5   0   6  655.69   32.25
  -5   0   6  655.11   35.76
  -5   0   6  703.67   41.94
   5   0  -5 1990.87   77.48
  -5   0   5 2059.95   69.39
  -5   0   5 2250.37   85.67
   5   0  -4 1078.43   47.38
  -5   0   4 1033.29   44.94
  -5   0   4 1068.96   49.28
   5   0  -3   12.87    4.91
  -5   0   3   -1.77   11.01
  -5   0   3   11.20    8.31
   5   0  -2  322.42   30.07
   5   0  -2  354.72   36.88
  -5   0   2  354.60   29.54
  -5   0   2  336.31   24.79
   5   0  -1   10.54    8.60
   5   0  -1   18.14    7.12
   5   0  -1    9.47    6.64
  -5   0   1    6.24    5.07
  -5   0   1    8.92    5.56
  -5   0   1    7.29    7.40
   5   0   0 9142.52  155.00
   5   0   0 9001.71  167.73
   5   0   0 8886.75  147.49
  -5   0   0 8691.65  144.45
  -5   0   0 9236.31  161.43
  -5   0   0 8575.28  146.40
   5   0   111093.98  184.66
   5   0   111407.11  202.99
   5   0   110902.35  182.85
  -5   0  -111204.69  189.50
  -5   0  -111330.49  197.30
  -5   0  -111347.26  187.73
   5   0   2 1394.07   65.28
   5   0   2 1415.50   59.32
   5   0   2 1449.54   58.37
   5   0   2 1443.13   66.01
  -5   0  -2 1393.69   57.45
  -5   0  -2 1380.23   58.80
   5   0   3   74.85   11.73
   5   0   3  109.47   12.02
   5   0   3   60.30   68.45
  -5   0  -3   93.74   34.07
  -5   0  -3  104.19   16.30
   5   0   4  903.26   86.27
  -5   0  -4  731.19   44.58
  -5   0  -4  809.87   60.95
   5   0   5  843.21   48.28
  -5   0  -5  803.30   61.81
  -5   0  -5  845.28   62.86
   5   0   6  602.31   43.25
  -5   0  -6  485.59   44.31
  -5   0  -6  598.05   56.59
   5   0   7  213.73   46.27
  -5   0  -7  210.22   26.14
  -5   0  -7  198.49   49.12
   5   0   8  524.18   35.25
   5   0   8  471.00   44.70
  -5   0  -8  527.68   32.26
   5   0   9   37.48   25.17
   5   0   9   42.23   21.01
  -5   0  -9   76.06   16.10
   5   0  10 2201.25   85.57
   5   0  10 2202.35  110.30
  -5   0 -10 2177.59   97.40
   5   0  11   80.00   31.95
   5   0  11   53.01   19.87
  -5   0 -11   92.72   42.68
   5   0  12  181.37   50.58
   5   0  12  167.07   63.87
  -5   0 -12  195.51   52.88
   5   0  13  323.42   44.46
   5   0  13  446.01  118.36
  -5   0 -13  406.61   45.43
   5   0  14  442.67   48.59
   5   0  14  400.84   48.19
  -5   0 -14  438.44   59.05
   5   0  15  133.94   42.16
  -5   0 -15  163.54   62.27
   5   0  16   43.24   30.56
  -5   0 -16   27.54   25.06
   5   1 -21   75.17   50.03
  -5  -1  21   83.51   40.51
   5   1 -20   78.52   46.18
  -5  -1  20   49.07   39.12
   5   1 -19  171.64   48.05
   5   1 -19   96.91   36.66
  -5  -1  19  126.28   68.18
   5   1 -18  109.44   56.01
   5   1 -18   98.43   43.46
  -5  -1  18   92.97   49.47
  -5  -1  18  135.20   49.33
   5   1 -17   68.02   45.93
   5   1 -17   68.36   17.16
  -5  -1  17  102.82   23.15
  -5  -1  17  109.04   35.50
   5   1 -16  756.44   35.61
   5   1 -16  721.69   46.60
  -5  -1  16  716.70   82.28
   5   1 -15 1001.16   43.45
   5   1 -15  939.00   46.57
  -5  -1  15  942.92   41.55
  -5  -1  15 1023.39   87.83
   5   1 -14 1017.43   44.85
   5   1 -14  922.03   62.24
  -5  -1  14 1133.83   58.86
  -5  -1  14 1001.17   48.23
   5   1 -13 1248.20   54.82
   5   1 -13 1304.79   57.22
  -5  -1  13 1327.10   71.96
  -5  -1  13 1293.12   98.34
   5   1 -12  868.96   62.01
   5   1 -12  763.97   35.50
  -5  -1  12  824.72   40.73
  -5  -1  12  889.10   41.69
   5   1 -11  176.92   37.99
   5   1 -11  200.62   25.97
  -5  -1  11  178.40   57.81
  -5  -1  11  197.83   49.85
   5   1 -10 1301.34   61.59
   5   1 -10 1242.85   53.63
  -5  -1  10 1241.99   57.93
  -5  -1  10 1262.56   80.27
  -5  -1  10 1445.26   78.20
   5   1  -9 1070.06   86.04
   5   1  -9 1081.06   58.43
  -5  -1   9  988.61   56.68
  -5  -1   9 1101.21   65.89
  -5  -1   9 1097.40   64.03
   5   1  -8 2398.87  116.73
   5   1  -8 2133.17   92.42
  -5  -1   8 2122.77   86.53
  -5  -1   8 2469.51  107.61
  -5  -1   8 2483.97  108.25
   5   1  -7   45.45   25.53
   5   1  -7   46.30   10.42
  -5  -1   7   36.48    5.90
  -5  -1   7   51.27   13.93
  -5  -1   7   19.94   17.46
   5   1  -6 1742.50   78.68
  -5  -1   6 1493.82   60.77
  -5  -1   6 1581.60   64.69
  -5  -1   6 1620.08   71.53
  -5  -1   6 1547.34   74.28
   5   1  -5 8179.94  192.86
  -5  -1   5 7961.28  191.89
  -5  -1   5 7963.80  192.83
   5   1  -4 1300.05   57.51
  -5  -1   4 1267.46   70.98
  -5  -1   4 1333.23   60.28
   5   1  -3  154.59   18.04
   5   1  -3  131.19   15.88
  -5  -1   3  206.78   19.00
   5   1  -2   97.98   20.86
   5   1  -2   78.76   21.72
   5   1  -2   73.01   11.86
  -5  -1   2   85.63    7.51
  -5  -1   2   84.88   22.73
  -5  -1   2   88.14   20.50
   5   1  -1 2024.95   65.89
   5   1  -1 2051.14   78.12
   5   1  -1 1992.35   65.50
  -5  -1   1 2012.22   64.50
  -5  -1   1 2108.39   75.33
  -5  -1   1 1942.78   65.40
   5   1   0 8800.07   59.79
   5   1   0 8603.98   87.18
   5   1   0 8489.11  194.83
  -5  -1   0 8282.13  192.73
  -5  -1   0 8601.00   98.17
  -5  -1   0 8024.94  185.35
   5   1   1 3060.38   74.32
   5   1   1 2939.85   70.67
   5   1   1 3030.84   96.95
  -5  -1  -1 3251.00   79.10
  -5  -1  -1 3173.91   99.91
   5   1   2  426.20   30.92
   5   1   2  425.43   35.37
   5   1   2  357.12   13.25
  -5  -1  -2  360.28   14.35
  -5  -1  -2  439.70   48.69
  -5  -1  -2  386.04   20.34
   5   1   3  169.27    8.93
   5   1   3  320.58   72.90
  -5  -1  -3  181.51   26.65
  -5  -1  -3  183.03   14.81
   5   1   4 1497.99   86.51
  -5  -1  -4 1543.10   77.01
  -5  -1  -4 1475.33   70.24
   5   1   5 1403.71   73.07
  -5  -1  -5 1270.74   59.47
  -5  -1  -5 1236.12   58.55
  -5  -1  -6  870.08   48.90
  -5  -1  -6  850.42   59.36
   5   1   7  292.49   70.63
  -5  -1  -7  242.82   44.55
  -5  -1  -7  241.18   27.65
   5   1   8  525.16   81.19
   5   1   8  663.75   78.60
  -5  -1  -8  544.52   31.65
   5   1   9  415.66   39.02
   5   1   9  355.12   41.30
  -5  -1  -9  391.18   33.47
   5   1  10  946.45   53.97
   5   1  10 1049.43   66.07
  -5  -1 -10  978.59   45.77
   5   1  11   66.27   35.68
   5   1  11   72.49   27.60
  -5  -1 -11   86.47   20.84
   5   1  12   26.85   17.57
   5   1  12   51.41   34.77
  -5  -1 -12   33.46   19.45
   5   1  13  281.50   60.10
   5   1  13  245.30   60.99
  -5  -1 -13  307.60   40.33
   5   1  14  813.79   90.22
   5   1  14  920.62  110.84
  -5  -1 -14 1005.08   49.14
   5   1  15  489.61   68.19
   5   1  15  683.07   47.24
  -5  -1 -15  606.87   57.98
   5   2 -21   33.04   27.34
   5   2 -20   59.49   28.41
   5   2 -20   68.71   37.54
  -5  -2  20   99.45   46.08
  -5  -2  20   57.35   28.05
   5   2 -19  309.71   55.30
   5   2 -19  357.74   24.72
  -5  -2  19  238.36   95.30
  -5  -2  19  324.81   49.17
   5   2 -18   -4.32   15.60
   5   2 -18   11.08    6.73
  -5  -2  18    5.39   14.51
  -5  -2  18   -5.17   11.00
   5   2 -17   33.17   23.48
   5   2 -17   38.92   25.00
  -5  -2  17   66.82   42.02
  -5  -2  17   64.05   23.46
   5   2 -16  402.85   72.06
   5   2 -16  418.08   45.71
  -5  -2  16  477.70   41.38
  -5  -2  16  492.60   70.79
   5   2 -15 1453.61   89.66
   5   2 -15 1330.52   96.88
  -5  -2  15 1436.04  111.78
  -5  -2  15 1539.40  108.00
   5   2 -14 1119.94   49.18
   5   2 -14 1068.05   47.50
  -5  -2  14 1191.46  106.29
  -5  -2  14  980.04   47.28
   5   2 -13  484.33   51.66
   5   2 -13  497.01   35.46
  -5  -2  13  574.06   62.91
  -5  -2  13  596.49   53.86
   5   2 -12  207.46   28.15
   5   2 -12  176.19   27.89
  -5  -2  12  261.40   52.24
  -5  -2  12  219.23   18.90
   5   2 -11   79.80   27.49
   5   2 -11   64.73   16.89
  -5  -2  11   23.02   17.55
  -5  -2  11   50.08   23.87
   5   2 -10  846.13   25.02
   5   2 -10  779.18   41.40
  -5  -2  10  759.67   36.71
  -5  -2  10  900.45   74.12
  -5  -2  10  801.07   42.32
   5   2  -9  840.16   70.00
   5   2  -9  707.66   38.51
  -5  -2   9  798.39   42.97
  -5  -2   9  831.47   59.62
  -5  -2   9  857.51   58.81
   5   2  -8  549.41   41.15
  -5  -2   8  486.97   32.57
  -5  -2   8  620.61   53.28
  -5  -2   8  557.89   83.76
   5   2  -7   72.77   34.01
  -5  -2   7    3.02    3.31
  -5  -2   7    2.45    3.85
  -5  -2   7   17.90    9.46
  -5  -2   7   68.18   33.79
   5   2  -6   35.47   16.79
  -5  -2   6   32.32    5.94
  -5  -2   6   34.53    6.75
  -5  -2   6   23.62   10.75
  -5  -2   6   37.92   17.01
   5   2  -5 1344.57   63.58
  -5  -2   5 1310.89   51.04
  -5  -2   5 1355.40   58.64
   5   2  -4  295.14   48.09
   5   2  -4  385.09   81.96
  -5  -2   4  303.68   14.03
  -5  -2   4  316.31   23.15
  -5  -2   4  286.35   11.46
   5   2  -3   41.61   20.39
   5   2  -3   52.89    9.34
   5   2  -3   41.63   29.26
  -5  -2   3   57.39    9.34
  -5  -2   3   47.93   10.97
   5   2  -2  150.65   27.67
   5   2  -2  152.26   38.73
   5   2  -2  124.78   12.12
  -5  -2   2  145.69   17.75
  -5  -2   2  174.51   20.30
  -5  -2   2  121.33   20.18
   5   2  -1 6857.92  161.47
   5   2  -1 7067.59  173.05
   5   2  -1 6701.58  155.94
  -5  -2   1 6890.42  159.02
  -5  -2   1 6527.77  168.49
  -5  -2   1 6611.78  154.87
   5   2   0 2924.49   77.91
   5   2   0 3001.72   95.69
   5   2   0 2947.29   73.05
  -5  -2   0 2976.29   73.11
  -5  -2   0 3044.13   91.77
  -5  -2   0 2879.47   71.31
   5   2   1  191.70   30.18
   5   2   1  203.59   34.54
   5   2   1  137.18   13.67
  -5  -2  -1  167.24   26.11
  -5  -2  -1  192.18   45.97
  -5  -2  -1  160.14    9.96
   5   2   2  514.08   34.56
   5   2   2  688.54   71.40
  -5  -2  -2  554.80   35.22
  -5  -2  -2  697.53   57.10
  -5  -2  -2  549.63   36.10
   5   2   3 1211.83   82.99
  -5  -2  -3  904.45   52.65
  -5  -2  -3 1105.61   60.99
   5   2   4 3103.73  100.69
  -5  -2  -4 3122.63  104.16
  -5  -2  -4 3144.46   98.62
   5   2   5 2129.14  115.69
  -5  -2  -5 1925.03   84.84
  -5  -2  -5 1827.03   96.45
   5   2   6  747.74   63.57
  -5  -2  -6  737.27   41.29
  -5  -2  -6  808.79   38.50
   5   2   7   29.71   16.09
  -5  -2  -7   34.03   22.86
  -5  -2  -7    3.73   13.94
   5   2   8  536.37   30.09
  -5  -2  -8  538.76   43.59
   5   2   9  125.69   59.65
   5   2   9  194.37   57.85
  -5  -2  -9  206.10   45.06
   5   2  10  458.47   57.13
   5   2  10  517.23   58.24
  -5  -2 -10  629.12   36.75
   5   2  11    2.38   20.53
   5   2  11   12.16   18.27
   5   2  12  216.53   41.47
   5   2  12  242.55   55.64
  -5  -2 -12  226.19   29.95
   5   2  13  243.50   43.26
   5   2  13  280.52   81.25
  -5  -2 -13  322.02   34.36
   5   2  14  522.95   46.96
   5   2  14  549.21  140.12
  -5  -2 -14  655.80   39.78
   5   2  15  484.37   67.43
   5   2  15  328.29  155.47
  -5  -2 -15  576.05  122.44
   5   3 -21  -13.11   15.19
  -5  -3  21   11.98   22.30
   5   3 -20  199.62   96.25
  -5  -3  20  388.18   43.51
   5   3 -19  241.73   67.72
   5   3 -19  182.63   41.23
  -5  -3  19  169.75   48.90
  -5  -3  19  141.87   58.61
   5   3 -18   64.47   27.41
   5   3 -18   28.97   12.78
  -5  -3  18   20.84   31.68
  -5  -3  18   39.09   16.57
   5   3 -17   -5.42   16.03
   5   3 -17   14.87   11.06
  -5  -3  17   27.26   19.94
  -5  -3  17    4.71    8.71
   5   3 -16  517.42   60.77
   5   3 -16  506.78   53.64
  -5  -3  16  510.08   67.14
  -5  -3  16  464.31   52.36
   5   3 -15 1894.22   83.29
   5   3 -15 1711.91   71.14
  -5  -3  15 1941.03   79.71
  -5  -3  15 1822.50  100.05
   5   3 -14 1866.94   86.85
   5   3 -14 1713.65   84.18
  -5  -3  14 1896.03   79.69
  -5  -3  14 1933.37  100.77
   5   3 -13  154.98   34.90
   5   3 -13  152.16   27.31
  -5  -3  13  201.80   32.32
  -5  -3  13  117.41   36.03
   5   3 -12   27.38   14.90
   5   3 -12   20.86   12.65
  -5  -3  12   25.05   25.79
  -5  -3  12   37.53   12.65
   5   3 -11  223.76   56.02
   5   3 -11  220.74   17.56
  -5  -3  11  228.16   57.24
  -5  -3  11  265.91   37.58
   5   3 -10 1512.29   73.23
   5   3 -10 1513.70   64.82
  -5  -3  10 1338.85   66.78
  -5  -3  10 1525.62   98.08
  -5  -3  10 1634.20   79.75
   5   3  -9 1496.02   67.74
  -5  -3   9 1469.04   60.08
  -5  -3   9 1390.10   60.10
  -5  -3   9 1377.83   87.31
  -5  -3   9 1626.49   73.10
   5   3  -8   -5.75   15.60
  -5  -3   8   19.01    7.77
  -5  -3   8   14.13    8.21
  -5  -3   8   42.99   17.76
  -5  -3   8   18.78   15.23
   5   3  -7  252.32   57.71
  -5  -3   7  179.21   16.58
  -5  -3   7  179.79   14.84
  -5  -3   7  219.11   47.44
  -5  -3   7  240.39   66.69
   5   3  -6  293.79   72.17
   5   3  -6  202.20   27.49
  -5  -3   6  174.92   12.29
  -5  -3   6  208.51   51.83
  -5  -3   6  140.10   14.25
   5   3  -5  584.54   55.42
   5   3  -5  550.87   57.78
  -5  -3   5  500.81   26.20
  -5  -3   5  588.50   59.46
  -5  -3   5  551.96   32.86
   5   3  -4   53.81   23.40
   5   3  -4  101.52   24.57
  -5  -3   4   62.49   15.21
  -5  -3   4  106.69   31.71
  -5  -3   4   89.15   14.46
   5   3  -3  104.69   23.38
   5   3  -3  122.76   14.56
   5   3  -3  157.17   47.61
  -5  -3   3  113.70    7.80
  -5  -3   3  155.68   38.06
   5   3  -2  322.46   29.96
   5   3  -2  336.44   13.01
   5   3  -2  298.93   35.77
  -5  -3   2  327.18   17.92
  -5  -3   2  334.25   23.20
   5   3  -1 2178.06  104.76
   5   3  -1 1919.11   95.32
   5   3  -1 1737.68   75.83
  -5  -3   1 1940.21   82.46
  -5  -3   1 1911.34   93.63
  -5  -3   1 1750.21   75.11
   5   3   0  300.28   42.66
   5   3   0  317.36   72.29
   5   3   0  234.80   23.63
  -5  -3   0  255.90   12.45
  -5  -3   0  267.44   65.03
  -5  -3   0  250.34   15.54
   5   3   1  482.63   40.12
   5   3   1  571.56   55.49
  -5  -3  -1  472.13   34.37
  -5  -3  -1  524.95   46.81
  -5  -3  -1  553.36   39.00
   5   3   2  608.46   40.08
   5   3   2  643.38   52.88
  -5  -3  -2  559.43   35.91
  -5  -3  -2  635.69   45.57
  -5  -3  -2  599.15   51.74
   5   3   3  360.99   24.81
   5   3   3  398.97   32.51
  -5  -3  -3  358.08   23.33
  -5  -3  -3  426.93   47.81
  -5  -3  -3  362.19   40.60
   5   3   4 2556.70  108.93
  -5  -3  -4 2488.85  100.43
  -5  -3  -4 2369.16   93.81
   5   3   5 4517.64  207.30
  -5  -3  -5 4673.30  177.29
  -5  -3  -5 4584.61  168.88
   5   3   6 1181.06   84.66
  -5  -3  -6 1130.87   86.03
  -5  -3  -6 1125.98   60.70
   5   3   7    2.28   11.16
  -5  -3  -7   20.23   19.44
  -5  -3  -7   15.53   11.35
   5   3   8   15.63   15.44
  -5  -3  -8   13.57   20.16
  -5  -3  -8   35.09   15.70
   5   3   9  237.99   23.96
   5   3   9  349.60   90.90
  -5  -3  -9  328.00   31.05
   5   3  10  172.44   50.86
   5   3  10  168.16   46.08
  -5  -3 -10  186.16   48.57
   5   3  11   16.06   12.79
   5   3  11   10.04   18.48
  -5  -3 -11   17.66   11.33
   5   3  12   14.00   21.28
   5   3  12   36.79   22.52
  -5  -3 -12   25.32   22.84
   5   3  13  162.74   44.62
   5   3  13  173.95   59.29
  -5  -3 -13  186.81   78.95
   5   3  14  154.15   70.66
   5   3  14  262.75   61.48
  -5  -3 -14  225.08   84.77
   5   4 -21  276.30   43.31
  -5  -4  21  116.56   95.46
   5   4 -20  511.96   74.17
  -5  -4  20  430.12   73.11
   5   4 -19  327.45   40.43
   5   4 -19  143.00   64.01
  -5  -4  19  190.12   75.98
  -5  -4  19  182.28   49.41
   5   4 -18  137.30   40.96
   5   4 -18   52.64   28.80
  -5  -4  18  130.38   44.49
  -5  -4  18  106.01   15.65
   5   4 -17   65.43   17.55
   5   4 -17   42.63   15.93
  -5  -4  17   12.52   13.52
  -5  -4  17   17.52   10.23
   5   4 -16  566.57   62.22
   5   4 -16  485.82   35.84
  -5  -4  16  562.41  105.26
  -5  -4  16  603.46   53.81
   5   4 -15 2590.85  103.26
   5   4 -15 2330.95  100.11
  -5  -4  15 2110.44   93.12
  -5  -4  15 2375.32  108.82
   5   4 -14 1059.69   92.39
   5   4 -14  826.36   34.05
  -5  -4  14  818.14   57.37
  -5  -4  14  930.02   80.89
   5   4 -13   17.09   11.75
   5   4 -13   15.85    5.47
  -5  -4  13    5.97   13.80
  -5  -4  13    4.46   10.54
   5   4 -12   23.93   12.96
   5   4 -12    8.27    4.61
  -5  -4  12    8.90   12.33
  -5  -4  12   13.13    7.63
   5   4 -11  614.84   46.39
  -5  -4  11  617.69   65.82
  -5  -4  11  668.42   36.94
   5   4 -10 2943.25  112.49
  -5  -4  10 2728.79   97.23
  -5  -4  10 2840.29  104.78
  -5  -4  10 2969.01  110.78
  -5  -4  10 2963.09  121.34
   5   4  -9 1903.29   81.87
  -5  -4   9 1758.09   72.16
  -5  -4   9 1774.39   75.18
  -5  -4   9 1836.95   85.58
  -5  -4   9 1857.50   85.61
   5   4  -8  463.46   41.07
   5   4  -8  412.52   34.90
  -5  -4   8  392.05   25.79
  -5  -4   8  450.40   64.84
  -5  -4   8  398.37   31.77
   5   4  -7  149.24   33.49
   5   4  -7  187.66   45.54
  -5  -4   7  118.65   19.18
  -5  -4   7  152.87   41.90
  -5  -4   7  119.02   19.95
   5   4  -6  262.57   66.85
   5   4  -6  201.96   58.83
  -5  -4   6  232.64   17.53
  -5  -4   6  235.28   58.70
  -5  -4   6  212.32   19.15
   5   4  -5  558.30   57.96
   5   4  -5  518.43   46.14
  -5  -4   5  451.10   31.43
  -5  -4   5  586.93   45.28
  -5  -4   5  475.12   32.69
   5   4  -4 1324.67   72.24
   5   4  -4 1095.17   59.49
   5   4  -4 1172.74   58.67
  -5  -4   4 1126.99   56.97
  -5  -4   4 1409.31  101.26
   5   4  -3  671.59  108.53
   5   4  -3  511.02   33.89
   5   4  -3  586.90   65.14
  -5  -4   3  498.80   35.56
  -5  -4   3  496.54   61.55
   5   4  -2  218.66   37.89
   5   4  -2  179.85   27.60
   5   4  -2  215.22   53.91
  -5  -4   2  213.24   19.99
  -5  -4   2  229.47   30.17
   5   4  -1 1100.38   61.39
   5   4  -1  989.91   55.24
   5   4  -1 1081.71   63.03
  -5  -4   1 1109.35   57.51
  -5  -4   1  965.05   54.90
   5   4   0  971.38   54.15
   5   4   0  953.52   57.25
  -5  -4   0 1035.29   59.94
  -5  -4   0  924.04   49.50
   5   4   1  790.09   38.64
   5   4   1  862.92   56.05
  -5  -4  -1  725.64   45.04
  -5  -4  -1  873.88   54.58
  -5  -4  -1  867.76   40.46
   5   4   2   20.20    6.44
   5   4   2   39.73   10.53
  -5  -4  -2   30.35    8.04
  -5  -4  -2   18.65   13.27
  -5  -4  -2   40.97   16.19
   5   4   3  274.53   13.79
   5   4   3  375.49   63.13
  -5  -4  -3  357.20   15.72
  -5  -4  -3  295.23    7.94
   5   4   4  927.58   63.92
  -5  -4  -4  807.80   76.74
  -5  -4  -4  662.08   60.18
   5   4   5 3065.30  125.04
  -5  -4  -5 2949.63  134.95
  -5  -4  -5 2803.63  103.83
   5   4   6 1170.03   65.23
  -5  -4  -6 1289.87   98.38
  -5  -4  -6 1228.61   61.60
   5   4   7   23.96   19.89
  -5  -4  -7    7.81   17.48
  -5  -4  -7   18.83   16.70
   5   4   8  128.25   43.53
  -5  -4  -8  108.59   30.24
  -5  -4  -8   78.89   40.03
   5   4   9  859.20   45.51
   5   4   9  893.84   78.07
  -5  -4  -9  828.18   65.22
   5   4  10  175.53   74.84
   5   4  10  263.13   50.41
  -5  -4 -10  212.42   62.29
   5   4  11  487.87   49.05
   5   4  11  559.55   63.47
  -5  -4 -11  483.29   49.31
   5   4  12   23.43   18.94
   5   4  12   18.75   11.19
  -5  -4 -12   26.56   18.56
   5   4  13   55.01   24.45
   5   4  13   89.33   35.33
  -5  -4 -13   92.96   39.50
  -5  -5  21  142.28   68.99
   5   5 -20   64.44   34.74
  -5  -5  20   53.10   28.46
   5   5 -19  132.75   47.11
   5   5 -19   95.09   34.07
  -5  -5  19  140.43   39.53
   5   5 -18   93.85   34.59
   5   5 -18   66.45   26.17
  -5  -5  18   88.29   43.14
  -5  -5  18   97.41   38.82
   5   5 -17  141.57   47.36
   5   5 -17  117.70   53.05
  -5  -5  17   66.71   28.63
  -5  -5  17  124.75   40.06
   5   5 -16  306.03   32.79
   5   5 -16  268.32   51.51
  -5  -5  16  308.13   40.33
  -5  -5  16  359.85   51.97
   5   5 -15  795.10   87.13
   5   5 -15  782.34   61.98
  -5  -5  15  743.74   88.67
  -5  -5  15  954.84   54.25
   5   5 -14  333.26   43.44
   5   5 -14  258.35   32.98
  -5  -5  14  303.72   58.71
  -5  -5  14  296.77   24.04
   5   5 -13   24.78   17.99
  -5  -5  13   64.06   31.91
  -5  -5  13   39.82   11.37
   5   5 -12  243.07   53.14
  -5  -5  12  271.84   41.27
  -5  -5  12  254.20   53.73
  -5  -5  12  270.40   17.64
   5   5 -11  934.86   74.81
  -5  -5  11  853.62   45.41
  -5  -5  11 1006.78   60.67
   5   5 -10 2480.65   96.00
   5   5 -10 2485.46  110.21
  -5  -5  10 2560.96  115.74
  -5  -5  10 2423.13   96.00
   5   5  -9  870.06   84.79
   5   5  -9  870.74   58.69
  -5  -5   9  851.07   47.76
  -5  -5   9  783.19   67.02
  -5  -5   9  820.99   54.82
   5   5  -8    8.90   11.74
   5   5  -8   23.11    8.46
  -5  -5   8    6.97    5.50
  -5  -5   8    4.50   14.81
  -5  -5   8    5.75    5.93
   5   5  -7    3.54    4.41
   5   5  -7   10.14    8.46
  -5  -5   7    4.86    2.35
  -5  -5   7   -6.07   12.48
  -5  -5   7    7.66    9.33
   5   5  -6  942.43   48.10
   5   5  -6  984.69   62.79
  -5  -5   6  976.28   43.82
  -5  -5   6  775.66   52.54
  -5  -5   6  936.86   47.59
   5   5  -5  181.94   50.42
   5   5  -5  193.00   48.56
  -5  -5   5  105.10   22.75
  -5  -5   5  150.59   39.55
  -5  -5   5  133.70   26.79
   5   5  -4  267.85   37.23
   5   5  -4  211.40   29.99
   5   5  -4  305.72   56.10
  -5  -5   4  238.11   19.06
  -5  -5   4  217.31   39.76
   5   5  -3   13.96   11.22
   5   5  -3   10.65    6.48
   5   5  -3   17.29   13.85
  -5  -5   3    6.41   10.31
  -5  -5   3   21.84   11.53
   5   5  -2 1710.26   75.16
   5   5  -2 1729.54   80.57
  -5  -5   2 1728.70   80.41
  -5  -5   2 1692.83   74.92
   5   5  -1 3682.81  109.12
   5   5  -1 3914.62  119.89
  -5  -5   1 3564.96  109.92
  -5  -5   1 3873.68  116.01
   5   5   0 1884.09   80.04
   5   5   0 1843.42   83.62
  -5  -5   0 1747.74   83.91
  -5  -5   0 1722.77   81.12
   5   5   1  731.93   44.44
   5   5   1  708.65   44.15
  -5  -5  -1  658.55   20.52
  -5  -5  -1  804.37   54.15
  -5  -5  -1  714.88   43.32
   5   5   2  127.61   30.99
   5   5   2  195.38   64.07
  -5  -5  -2  114.97   13.38
  -5  -5  -2  191.84   48.72
  -5  -5  -2  198.07   44.06
   5   5   3  739.90   34.08
   5   5   3  901.01   97.56
  -5  -5  -3  857.54   41.68
  -5  -5  -3  705.79   53.69
   5   5   4 1145.39   65.50
  -5  -5  -4 1140.20   68.20
  -5  -5  -4 1135.01   83.25
   5   5   5 1440.01   71.43
  -5  -5  -5 1172.66   95.50
  -5  -5  -5 1372.84   59.70
   5   5   6  624.14   69.66
  -5  -5  -6  465.23   54.75
  -5  -5  -6  537.27   25.02
   5   5   7   28.68   18.33
  -5  -5  -7   12.84   14.44
  -5  -5  -7   58.75   22.10
   5   5   8  411.14   57.78
  -5  -5  -8  299.71   36.49
  -5  -5  -8  353.77   42.22
   5   5   9 1197.81  119.24
   5   5   9 1351.22   99.15
  -5  -5  -9 1351.73   90.03
   5   5  10  138.34   59.52
   5   5  10  213.90   57.78
  -5  -5 -10  213.97   37.82
   5   5  11  137.24   55.16
   5   5  11  197.57   69.93
  -5  -5 -11  163.33   75.81
   5   5  12   19.52   23.87
  -5  -5 -12   69.74   27.48
   5   5  13   44.54   16.08
   5   5  13   21.40   23.74
  -5  -5 -13   26.58   26.99
   5   6 -21   61.35   27.19
   5   6 -20  168.52   54.40
  -5  -6  20  143.73   61.02
   5   6 -19   45.24   22.01
   5   6 -19   47.53   14.94
  -5  -6  19   64.11   23.24
   5   6 -18   18.69   13.33
   5   6 -18    4.00   10.47
  -5  -6  18   11.73   11.24
   5   6 -17   43.03   24.31
   5   6 -17   16.07    6.05
  -5  -6  17   36.37   25.28
  -5  -6  17   16.67   12.38
   5   6 -16  443.72   70.73
   5   6 -16  412.91   53.12
  -5  -6  16  439.58   45.55
  -5  -6  16  496.02   34.57
   5   6 -15  527.21   45.95
  -5  -6  15  634.06   46.22
  -5  -6  15  541.72   62.78
   5   6 -14  388.09   65.73
  -5  -6  14  421.42   39.41
  -5  -6  14  441.59   44.06
   5   6 -13  498.12   68.52
   5   6 -13  513.20   31.68
  -5  -6  13  545.80   49.59
  -5  -6  13  499.42   34.75
   5   6 -12  159.09   38.00
   5   6 -12  142.92   29.46
  -5  -6  12  167.49   29.92
  -5  -6  12  129.33   29.95
   5   6 -11 1332.46   89.73
   5   6 -11 1487.69   65.42
  -5  -6  11 1415.50   66.03
  -5  -6  11 1407.81   64.67
   5   6 -10 2537.28   95.76
   5   6 -10 2620.93  104.39
  -5  -6  10 2535.09   98.54
  -5  -6  10 2365.96   96.66
   5   6  -9 3287.08  122.00
   5   6  -9 3159.86  126.80
  -5  -6   9 2849.14  103.94
   5   6  -8   55.62   17.72
   5   6  -8   24.71   21.30
  -5  -6   8   27.96    8.89
  -5  -6   8   39.57   11.30
   5   6  -7 1556.28   82.23
   5   6  -7 1673.74   92.13
  -5  -6   7 1683.99   76.38
  -5  -6   7 1551.68   65.68
   5   6  -6  780.23   51.02
   5   6  -6  853.39   53.43
  -5  -6   6  909.44   45.47
  -5  -6   6  857.54   41.51
   5   6  -5  207.77   46.01
   5   6  -5  162.43   26.43
  -5  -6   5  201.66   42.99
  -5  -6   5  213.27   34.15
   5   6  -4 1872.40   79.35
   5   6  -4 1940.45  101.09
  -5  -6   4 2156.72   99.03
  -5  -6   4 1974.02   83.95
   5   6  -3   -1.39    9.45
   5   6  -3   -6.38   15.25
  -5  -6   3   11.23   10.42
  -5  -6   3   10.36   10.94
   5   6  -2  485.33   49.55
   5   6  -2  577.49   65.05
  -5  -6   2  481.94   58.78
  -5  -6   2  484.82   36.98
   5   6  -1  553.69   54.37
   5   6  -1  576.54   58.62
  -5  -6   1  519.15   55.66
  -5  -6   1  595.88   45.09
   5   6   0  990.86   64.49
   5   6   0 1102.66   65.73
  -5  -6   0 1096.24   39.15
  -5  -6   0 1098.84   34.24
   5   6   1    7.09    6.93
   5   6   1   -0.74   15.26
  -5  -6  -1   20.86   12.75
  -5  -6  -1    8.03    6.71
   5   6   2  316.02   34.51
   5   6   2  343.46   63.51
  -5  -6  -2  350.27   31.60
  -5  -6  -2  354.53   16.74
   5   6   3 1291.38   50.59
   5   6   3 1323.95   87.04
  -5  -6  -3 1479.38   89.81
  -5  -6  -3 1314.61   63.10
   5   6   4 1170.47   59.90
  -5  -6  -4 1132.14   94.79
  -5  -6  -4 1158.70   52.74
   5   6   5  720.63   73.47
  -5  -6  -5  758.61   82.05
  -5  -6  -5  614.51   65.92
   5   6   6  121.44   62.56
  -5  -6  -6  220.60   45.09
  -5  -6  -6  122.57   50.71
   5   6   7  104.31   40.66
  -5  -6  -7   24.28   26.78
  -5  -6  -7   75.46   15.70
   5   6   8  514.12   46.23
  -5  -6  -8  593.28   45.42
  -5  -6  -8  596.56   76.88
   5   6   9  813.62   84.23
   5   6   9  860.25  100.40
  -5  -6  -9  903.72   58.72
   5   6  10   29.36   31.29
   5   6  10   59.00   26.10
  -5  -6 -10   23.03   20.00
   5   6  11   63.23   25.97
   5   6  12   -2.26   16.98
   5   6  12   21.37   25.25
  -5  -6 -12   22.49   19.59
   5   7 -20  135.41   44.62
  -5  -7  20  151.65   49.35
   5   7 -19   46.47   41.31
  -5  -7  19   61.61   33.84
   5   7 -18   19.39   18.89
  -5  -7  18   19.70   23.16
   5   7 -17  216.57   64.80
   5   7 -17  176.25   51.11
  -5  -7  17  192.55   71.11
  -5  -7  17  176.29   64.98
   5   7 -16  763.50   78.74
  -5  -7  16  719.55   53.54
  -5  -7  16  786.85   77.88
   5   7 -15  478.92   56.70
   5   7 -15  413.05   30.36
  -5  -7  15  502.59   49.90
  -5  -7  15  427.30   36.06
   5   7 -14   86.06   23.24
   5   7 -14   90.68   24.77
  -5  -7  14  144.06   46.09
  -5  -7  14  111.31   38.06
   5   7 -13  398.65   41.14
   5   7 -13  378.54   20.31
  -5  -7  13  420.17   47.22
  -5  -7  13  349.55   57.24
   5   7 -12  650.52   59.61
   5   7 -12  518.00   28.84
  -5  -7  12  399.95   32.49
  -5  -7  12  536.82   19.53
   5   7 -11 1855.47  113.90
   5   7 -11 2094.18   75.53
  -5  -7  11 1995.46   51.07
  -5  -7  11 1876.53   77.30
   5   7 -10 6015.09  180.34
   5   7 -10 6270.68  190.90
  -5  -7  10 6191.31  199.59
  -5  -7  10 6232.74  180.12
   5   7  -9 2383.24   92.24
   5   7  -9 2376.52   88.26
  -5  -7   9 2518.91   92.93
  -5  -7   9 2332.74   90.34
   5   7  -8 1142.73   68.85
   5   7  -8 1227.39   98.00
  -5  -7   8 1181.73   59.57
  -5  -7   8 1082.19   45.31
   5   7  -7  287.68   22.62
   5   7  -7  346.72   34.02
  -5  -7   7  264.52   47.16
  -5  -7   7  279.60   32.92
   5   7  -6 3246.21  131.34
   5   7  -6 3412.97  145.24
  -5  -7   6 3364.40  123.22
  -5  -7   6 3241.49  122.18
   5   7  -5 3310.38  136.98
   5   7  -5 3309.23  148.48
  -5  -7   5 3407.57  156.24
  -5  -7   5 3224.54  119.42
   5   7  -4  378.94   44.76
   5   7  -4  388.90   40.49
  -5  -7   4  466.99   65.10
  -5  -7   4  451.94   45.71
   5   7  -3  348.83   41.35
   5   7  -3  433.87   97.61
  -5  -7   3  313.23   26.57
  -5  -7   3  340.80   38.95
   5   7  -2   51.02   18.89
   5   7  -2   22.37   14.88
  -5  -7   2   42.81   15.33
  -5  -7   2   48.56   10.83
   5   7  -1 1072.48   65.65
   5   7  -1 1023.49   55.61
  -5  -7   1 1158.48   58.15
  -5  -7   1  991.89   44.01
   5   7   0  881.83   53.24
   5   7   0  914.60   60.38
  -5  -7   0  782.97   65.03
  -5  -7   0  862.63   63.96
   5   7   1    1.14    7.53
   5   7   1    3.67   22.02
  -5  -7  -1   13.43   11.61
  -5  -7  -1    5.61    5.84
   5   7   2   18.49   12.97
   5   7   2   14.99   16.97
  -5  -7  -2   15.87   20.47
  -5  -7  -2   38.54   13.27
   5   7   3 1353.91  127.87
  -5  -7  -3 1509.58   96.69
  -5  -7  -3 1301.17   72.34
   5   7   4 1066.70   58.20
  -5  -7  -4 1200.42  106.26
  -5  -7  -4 1067.06   89.87
   5   7   5 1117.57   69.13
  -5  -7  -5  995.32  116.23
  -5  -7  -5 1087.90   66.20
   5   7   6  159.98   59.57
  -5  -7  -6  171.05   40.76
  -5  -7  -6  115.49   40.19
   5   7   7   28.31   19.76
  -5  -7  -7   36.22   26.80
  -5  -7  -7   29.06   24.69
   5   7   8  448.10   67.17
  -5  -7  -8  306.58   57.88
  -5  -7  -8  364.52   92.16
   5   7   9  541.21   63.92
   5   7   9  505.00  142.35
  -5  -7  -9  638.59   46.41
   5   7  10  759.62   49.44
   5   7  10  832.01   60.15
  -5  -7 -10  900.81   64.18
   5   7  11  238.04   70.68
   5   7  11  247.00   86.32
  -5  -7 -11  295.74   46.63
   5   8 -20   89.44   62.59
  -5  -8  20  161.87   51.08
   5   8 -19   74.97   35.72
  -5  -8  19   19.30   32.20
   5   8 -18   42.37   26.33
  -5  -8  18   34.13   17.02
  -5  -8  18   35.99   23.86
   5   8 -17   26.48   17.41
  -5  -8  17   36.89   25.32
  -5  -8  17   56.23   31.03
   5   8 -16  381.36   40.84
   5   8 -16  351.50   22.09
  -5  -8  16  356.77   78.83
  -5  -8  16  358.93   31.15
   5   8 -15  104.77   16.95
   5   8 -15   78.32   19.19
  -5  -8  15   84.34   22.10
  -5  -8  15   52.44   17.31
   5   8 -14   76.21   27.70
   5   8 -14   57.77   15.71
  -5  -8  14   73.26   33.69
  -5  -8  14   41.59   14.93
   5   8 -13   82.87   37.23
   5   8 -13  101.25   23.83
  -5  -8  13   72.13   40.37
  -5  -8  13   66.08   25.13
   5   8 -12 1656.40   75.66
   5   8 -12 1603.98   74.69
  -5  -8  12 1695.01   81.52
  -5  -8  12 1456.19   96.54
   5   8 -11  611.78   91.34
   5   8 -11  653.83   61.51
  -5  -8  11  745.52   54.96
  -5  -8  11  727.44   37.00
   5   8 -10  209.72   78.60
   5   8 -10  175.77   47.54
  -5  -8  10  205.46   57.15
  -5  -8  10  186.56   44.46
   5   8  -9  250.29   52.92
   5   8  -9  245.57   39.63
  -5  -8   9  270.38   27.93
  -5  -8   9  228.16   38.03
   5   8  -8  173.78   34.23
   5   8  -8  183.01   50.10
  -5  -8   8  191.00   42.27
  -5  -8   8  212.28   17.52
   5   8  -7   26.94   15.29
   5   8  -7   23.64   15.29
  -5  -8   7   51.34   15.50
  -5  -8   7   30.25   13.13
   5   8  -6 1066.87   68.72
   5   8  -6 1103.47   52.92
  -5  -8   6 1145.72   80.92
  -5  -8   6 1077.64   51.87
   5   8  -5 1964.77   90.01
   5   8  -5 2265.18  102.04
  -5  -8   5 1968.89  101.80
  -5  -8   5 1848.02   85.66
   5   8  -4  350.55   50.96
   5   8  -4  316.60   55.64
  -5  -8   4  305.66   33.68
  -5  -8   4  330.57   37.08
   5   8  -3  250.48   35.52
   5   8  -3  238.35   23.25
  -5  -8   3  281.86   29.80
  -5  -8   3  282.29   27.85
   5   8  -2  225.54   36.12
   5   8  -2  324.32   31.96
  -5  -8   2  369.39   31.06
  -5  -8   2  252.96   15.13
   5   8  -1  381.08   52.26
   5   8  -1  402.45   36.19
  -5  -8   1  460.61   72.30
  -5  -8   1  453.79   45.83
   5   8   0  432.97   33.72
   5   8   0  447.23   40.56
  -5  -8   0  485.74   44.17
  -5  -8   0  404.68   65.99
   5   8   1   18.76   14.04
   5   8   1  -16.96   18.88
  -5  -8  -1   11.58   16.22
  -5  -8  -1    9.64    9.23
   5   8   2   30.09   23.70
  -5  -8  -2   42.92   36.81
  -5  -8  -2   36.14   18.80
   5   8   3 1438.29   75.23
  -5  -8  -3 1475.92   84.33
  -5  -8  -3 1665.76   63.63
   5   8   4 4642.32   81.26
  -5  -8  -4 4238.56  233.12
  -5  -8  -4 4416.24  244.95
   5   8   5 1221.14   95.00
  -5  -8  -5 1225.89  127.10
  -5  -8  -5 1286.56   95.54
   5   8   6   39.41   19.30
  -5  -8  -6   26.24   27.82
  -5  -8  -6   28.28   17.98
   5   8   7   64.71   44.80
  -5  -8  -7  101.66   29.45
  -5  -8  -7   47.07   33.43
   5   8   8  492.59   68.09
  -5  -8  -8  529.06   27.59
   5   8   9  957.76   74.44
   5   8   9  803.83   88.43
  -5  -8  -9 1083.38   68.83
   5   8  10  876.09  121.53
  -5  -8 -10 1220.89   86.94
   5   9 -19  107.37   99.00
  -5  -9  19  218.23   77.67
   5   9 -18   45.67   28.69
  -5  -9  18  105.82   27.37
   5   9 -17    9.31   15.17
  -5  -9  17   10.30   24.31
   5   9 -16   10.76   14.05
  -5  -9  16   16.85   14.98
  -5  -9  16   26.47   18.48
   5   9 -15  316.87   94.86
   5   9 -15  304.97   50.43
  -5  -9  15  308.21   77.62
   5   9 -14  179.07   73.05
   5   9 -14  196.30   50.26
  -5  -9  14  275.81   79.53
  -5  -9  14  217.60   36.13
   5   9 -13   11.35   11.92
   5   9 -13   46.29   15.85
  -5  -9  13    6.18   16.62
  -5  -9  13   16.25    9.02
   5   9 -12  369.65   73.40
   5   9 -12  384.52   24.84
  -5  -9  12  365.93   40.32
  -5  -9  12  323.48   25.27
   5   9 -11  512.83   58.48
   5   9 -11  439.86   46.65
  -5  -9  11  567.62  113.40
  -5  -9  11  506.19   29.59
   5   9 -10 1253.83   77.69
   5   9 -10 1186.42   86.34
  -5  -9  10 1210.99   75.85
  -5  -9  10 1160.04   63.21
   5   9  -9  203.55   69.81
   5   9  -9  157.42   45.41
  -5  -9   9  147.19   68.14
  -5  -9   9  157.90   44.60
   5   9  -8   12.39   12.17
   5   9  -8    6.07   15.29
  -5  -9   8   12.09   13.69
  -5  -9   8   12.86    9.72
   5   9  -7  377.29   29.56
   5   9  -7  375.88   37.78
  -5  -9   7  380.99   37.04
  -5  -9   7  326.50   41.72
   5   9  -6  667.38   34.85
   5   9  -6  737.19   40.23
  -5  -9   6  722.05   66.46
  -5  -9   6  648.64   30.65
   5   9  -5 1362.55   67.77
   5   9  -5 1487.27   73.57
  -5  -9   5 1439.56   65.88
  -5  -9   5 1252.08   68.06
   5   9  -4  585.45   57.99
   5   9  -4  683.27   72.67
  -5  -9   4  717.59   62.93
  -5  -9   4  647.41   32.09
   5   9  -3  176.82   47.26
   5   9  -3  225.65   47.11
  -5  -9   3  187.02   46.68
  -5  -9   3  172.53   46.93
   5   9  -2  279.94   52.30
   5   9  -2  433.44   35.32
  -5  -9   2  284.79   42.10
  -5  -9   2  301.03   45.69
   5   9  -1  134.60   35.41
   5   9  -1  142.56   37.04
  -5  -9   1  136.08   58.29
  -5  -9   1  171.86   46.06
   5   9   0   55.01   24.94
   5   9   0   41.01   20.80
  -5  -9   0   44.54   16.93
  -5  -9   0   65.50   19.24
   5   9   1   84.47   40.36
   5   9   1  157.57   53.63
  -5  -9  -1  121.38   33.84
  -5  -9  -1   73.93   22.38
   5   9   2   -1.24   19.88
  -5  -9  -2   33.32   17.48
  -5  -9  -2    8.52   14.17
   5   9   3  414.96   40.63
  -5  -9  -3  360.72   46.31
  -5  -9  -3  286.58   77.79
   5   9   4  846.29   70.38
  -5  -9  -4  829.68   91.31
  -5  -9  -4  809.58   60.14
   5   9   5  325.53  107.39
  -5  -9  -5  351.75   42.38
   5   9   6  100.95   20.92
  -5  -9  -6   26.32   13.82
  -5  -9  -6   24.77   15.81
   5   9   7  432.33   57.80
  -5  -9  -7  393.27   61.28
  -5  -9  -7  552.08   42.25
   5   9   8  605.73   66.57
   5   9   8  486.62  102.83
  -5  -9  -8  514.90   79.78
   5   9   9  972.39  132.26
  -5  -9  -9  885.63   89.39
   5  10 -19  744.63  105.80
  -5 -10  19  792.06   62.46
   5  10 -18   42.37   32.10
  -5 -10  18   44.51   32.02
   5  10 -17   34.22   26.02
  -5 -10  17   57.76   26.70
   5  10 -16  126.36   55.30
  -5 -10  16   88.40   46.42
  -5 -10  16  116.64   38.48
   5  10 -15  292.63   82.72
  -5 -10  15  296.80   81.65
  -5 -10  15  358.38   39.92
   5  10 -14   90.19   24.17
   5  10 -14   90.13   29.01
  -5 -10  14  108.21   32.17
  -5 -10  14   71.24   27.78
   5  10 -13   26.31   21.81
   5  10 -13    6.89   16.13
  -5 -10  13   26.31   18.12
  -5 -10  13   22.16   12.28
   5  10 -12   87.53   45.82
   5  10 -12  121.04   26.62
  -5 -10  12  142.47   41.87
  -5 -10  12   85.43   21.37
   5  10 -11 2121.71   93.64
   5  10 -11 2166.95   84.02
  -5 -10  11 2204.82  162.96
  -5 -10  11 2037.99   79.85
   5  10 -10  867.83   70.84
   5  10 -10  921.70   56.04
  -5 -10  10 1160.22  119.79
  -5 -10  10  979.30   43.85
   5  10  -9  399.32   95.43
   5  10  -9  443.75   46.96
  -5 -10   9  425.44   42.31
  -5 -10   9  420.31   25.43
   5  10  -8    7.38   11.76
   5  10  -8   -2.43   11.05
  -5 -10   8   34.04   22.97
  -5 -10   8    3.45    8.04
   5  10  -7  684.47   55.59
   5  10  -7  724.30   71.41
  -5 -10   7  861.97   97.45
  -5 -10   7  720.86   57.74
   5  10  -6 1651.18   90.64
   5  10  -6 1417.16  111.40
  -5 -10   6 1694.87  127.54
  -5 -10   6 1481.50   93.49
   5  10  -5 2506.45  118.42
   5  10  -5 2348.29   92.49
  -5 -10   5 2389.34  105.69
   5  10  -4 1033.69   65.35
   5  10  -4  920.48   87.49
  -5 -10   4  896.44   93.18
  -5 -10   4  906.20   59.97
   5  10  -3   96.44   33.32
   5  10  -3  130.86   41.28
  -5 -10   3  139.76   49.34
  -5 -10   3  124.43   30.12
   5  10  -2  517.94   49.84
   5  10  -2  453.15   51.61
  -5 -10   2  460.06   40.75
  -5 -10   2  416.07   21.99
   5  10  -1 1200.08   75.90
   5  10  -1 1020.79   89.25
  -5 -10   1 1079.13   80.69
  -5 -10   1 1129.91   72.89
   5  10   0  329.30   35.53
   5  10   0  394.74   46.84
  -5 -10   0  385.95   53.44
  -5 -10   0  368.06   39.59
   5  10   1    9.98   14.43
  -5 -10  -1    6.50   13.83
  -5 -10  -1   21.28    9.10
   5  10   2    5.18   14.36
  -5 -10  -2   25.48   22.31
  -5 -10  -2   21.55   21.61
   5  10   3  153.80   73.58
  -5 -10  -3  164.18   49.42
  -5 -10  -3  146.26   58.09
   5  10   4  705.02   69.77
  -5 -10  -4  653.38   85.88
  -5 -10  -4  699.83  117.37
   5  10   5   42.76   13.91
  -5 -10  -5  124.62   46.64
  -5 -10  -5   74.93   16.80
   5  10   6   31.82   22.29
  -5 -10  -6   11.65   14.88
  -5 -10  -6    5.44   11.62
  -5 -10  -7  150.57   48.58
  -5 -10  -7  175.11   73.04
   5  10   8  437.22   77.36
   5  11 -18  165.35   65.59
  -5 -11  18  136.50   61.27
   5  11 -17   28.79   29.99
  -5 -11  17   25.94   20.81
   5  11 -16  109.12   38.36
  -5 -11  16  131.42   56.27
   5  11 -15   44.60   23.70
  -5 -11  15   61.44   16.73
  -5 -11  15   79.41   26.66
   5  11 -14   84.59   29.68
  -5 -11  14  151.49   37.48
  -5 -11  14  110.33   40.50
   5  11 -13   90.79   25.72
   5  11 -13   65.99   27.89
  -5 -11  13  141.59   36.55
  -5 -11  13   74.43   21.51
   5  11 -12  260.28   82.33
   5  11 -12  294.88   59.21
  -5 -11  12  324.42   73.50
  -5 -11  12  249.76   64.08
   5  11 -11 3299.48   71.14
   5  11 -11 3673.22   68.31
  -5 -11  11 2980.09  218.39
  -5 -11  11 3171.16  211.01
   5  11 -10  347.26   97.67
   5  11 -10  273.61   66.32
  -5 -11  10  312.54   85.17
  -5 -11  10  363.09   41.15
   5  11  -9   99.41   28.45
   5  11  -9   59.14   19.68
  -5 -11   9   65.00   19.53
  -5 -11   9   63.65   16.56
   5  11  -8   36.06   25.89
   5  11  -8   27.77   14.13
  -5 -11   8   23.67   18.78
  -5 -11   8   15.50   12.04
   5  11  -7  902.03   90.60
   5  11  -7  785.64   64.75
  -5 -11   7  825.80   69.08
  -5 -11   7  853.76   49.80
   5  11  -6  950.79  112.15
   5  11  -6  924.63   59.49
  -5 -11   6  998.50  105.17
  -5 -11   6  832.35   59.57
   5  11  -5  839.95   82.16
   5  11  -5  932.29   62.97
  -5 -11   5  852.43   82.94
  -5 -11   5  823.48   43.68
   5  11  -4  118.77   44.99
   5  11  -4  126.89   51.52
  -5 -11   4   90.70   49.80
  -5 -11   4  115.88   26.66
   5  11  -3   51.57   19.87
   5  11  -3   52.41   19.76
  -5 -11   3   51.92   26.77
  -5 -11   3   46.17   23.82
   5  11  -2  568.88   52.61
   5  11  -2  647.87   94.39
  -5 -11   2  720.04   75.91
  -5 -11   2  714.24   30.61
   5  11  -1 1198.65   82.09
   5  11  -1 1114.29   95.67
  -5 -11   1 1158.22  104.85
  -5 -11   1 1275.29   80.31
   5  11   0  347.70   88.97
  -5 -11   0  404.88   59.50
  -5 -11   0  448.17   31.63
   5  11   1    7.69   20.38
  -5 -11  -1   48.10   16.66
  -5 -11  -1   11.25   14.35
   5  11   2   26.99   27.97
  -5 -11  -2   44.31   23.90
  -5 -11  -2   48.06   19.69
   5  11   3  237.26   97.36
  -5 -11  -3  235.80   56.31
  -5 -11  -3  227.86   72.96
   5  11   4  613.65   76.35
  -5 -11  -4  593.78   93.98
  -5 -11  -4  568.66   76.68
   5  11   5   47.32   19.47
  -5 -11  -5   49.52   16.57
  -5 -11  -6    1.11   10.28
  -5 -11  -6   10.40    5.96
  -5 -11  -7   29.51   21.61
   5  12 -17   -2.03   10.88
  -5 -12  17   18.38   12.79
   5  12 -16  199.74   91.97
  -5 -12  16  194.12   64.48
   5  12 -15  104.20   41.83
  -5 -12  15   52.11   25.15
  -5 -12  15   53.16   24.92
   5  12 -14   23.51   13.39
  -5 -12  14   22.05   17.53
  -5 -12  14   19.55   19.11
   5  12 -13   30.95   15.02
  -5 -12  13   45.99   16.86
  -5 -12  13   39.44   16.30
   5  12 -12  312.88   55.06
   5  12 -12  293.83   41.22
  -5 -12  12  353.24   54.54
  -5 -12  12  254.23   60.51
   5  12 -11 1972.22  123.76
   5  12 -11 1850.13  132.79
  -5 -12  11 2050.41  144.23
  -5 -12  11 2105.42  118.25
   5  12 -10   42.63   27.24
   5  12 -10   34.50   20.56
  -5 -12  10  106.42   37.95
  -5 -12  10   78.31   38.42
   5  12  -9   20.68   34.83
   5  12  -9   65.02   25.09
  -5 -12   9   77.94   34.14
  -5 -12   9   65.49   23.49
   5  12  -8  196.34   71.15
   5  12  -8  201.67   87.96
  -5 -12   8  217.45   77.78
  -5 -12   8  179.06   49.24
   5  12  -7 1598.43  112.65
   5  12  -7 1843.83  115.68
  -5 -12   7 1662.03  110.28
  -5 -12   7 1516.85   95.92
   5  12  -6 1607.79  115.19
   5  12  -6 1409.70  121.35
  -5 -12   6 1682.64   98.85
  -5 -12   6 1639.89   94.19
   5  12  -5  820.55   62.34
   5  12  -5  867.15   61.93
  -5 -12   5  901.11   63.63
  -5 -12   5  821.39   51.10
   5  12  -4   58.74   23.62
   5  12  -4   43.24   26.67
  -5 -12   4   84.39   35.78
  -5 -12   4   63.70   29.45
   5  12  -3  322.62   49.58
   5  12  -3  326.30   94.67
  -5 -12   3  291.44   81.33
  -5 -12   3  377.26   61.87
   5  12  -2  281.44   54.69
   5  12  -2  272.89   79.06
  -5 -12   2  289.35   32.47
  -5 -12   2  241.99   70.20
   5  12  -1  700.48   83.74
  -5 -12   1  787.43   88.05
  -5 -12   1  772.39   70.65
   5  12   0  139.44   62.50
  -5 -12   0  150.91   53.88
  -5 -12   0  141.28   38.16
   5  12   1   33.10   18.00
  -5 -12  -1   11.23   11.63
  -5 -12  -1   45.47   13.95
   5  12   2   -0.89   20.91
  -5 -12  -2    5.04   11.77
  -5 -12  -2   13.17    6.64
   5  12   3  249.45  112.51
  -5 -12  -3  305.56   51.78
  -5 -12  -3  400.82   38.31
  -5 -12  -4  189.68   49.72
  -5 -12  -4  124.32   61.78
   5  13 -16  547.75  104.86
  -5 -13  16  626.71  101.51
   5  13 -15  461.20   46.15
  -5 -13  15  352.64  123.71
   5  13 -14   88.41   52.55
  -5 -13  14  122.21   35.98
   5  13 -13   29.38   24.95
  -5 -13  13   13.49    9.86
   5  13 -12   24.89   19.83
  -5 -13  12   12.27    8.22
  -5 -13  12   30.05   13.49
   5  13 -11  229.19   98.86
   5  13 -11  320.55   75.80
  -5 -13  11  335.54   43.03
  -5 -13  11  232.75   53.36
   5  13 -10  104.56   30.44
  -5 -13  10   27.34   20.91
  -5 -13  10   63.89   20.24
   5  13  -9    0.08   11.86
   5  13  -9    5.79   10.40
  -5 -13   9   10.78   14.18
  -5 -13   9   -1.29   11.66
   5  13  -8   59.50   29.35
   5  13  -8   62.64   24.25
  -5 -13   8   37.33   23.62
  -5 -13   8   67.75   26.00
   5  13  -7  814.67   57.92
   5  13  -7  867.67   63.31
  -5 -13   7  858.42  100.76
  -5 -13   7  971.71   63.99
   5  13  -6 2938.17   95.30
   5  13  -6 2715.00  140.33
  -5 -13   6 2599.66  153.38
  -5 -13   6 2913.89   52.27
   5  13  -5 1176.51  100.35
   5  13  -5 1182.54  105.35
  -5 -13   5 1067.27   73.79
  -5 -13   5 1279.00   73.54
   5  13  -4  109.22   49.30
   5  13  -4   87.86   37.47
  -5 -13   4  176.73   53.80
  -5 -13   4  164.67   48.61
   5  13  -3    9.52   14.66
   5  13  -3    5.65   14.60
  -5 -13   3   15.48   19.10
  -5 -13   3   -5.54   10.52
   5  13  -2  131.24   70.17
  -5 -13   2  127.00   55.41
  -5 -13   2  188.48   25.09
   5  13  -1  674.14  110.27
  -5 -13   1  950.99   63.85
  -5 -13   1  945.45   53.96
   5  13   0  716.08  113.00
  -5 -13   0  653.17   41.07
  -5 -13   0  817.03   68.34
   5  13   1   19.82   23.15
  -5 -13  -1   70.28   21.10
  -5 -13  -1   33.95   16.74
  -5 -13  -2  159.22   65.71
  -5 -13  -2  124.14   69.48
  -5 -13  -3  104.74   65.67
  -5 -14  15   84.59   44.54
   5  14 -14  117.49   50.47
  -5 -14  14   93.15   42.98
  -5 -14  13   25.43   10.95
   5  14 -12  271.50   50.18
  -5 -14  12  216.75   73.41
   5  14 -11  128.93   53.34
  -5 -14  11  118.67   51.25
  -5 -14  11  116.63   44.64
   5  14 -10  105.90   44.65
   5  14 -10   91.28   34.52
  -5 -14  10  102.17   38.21
   5  14  -9    8.65   18.14
   5  14  -9   -3.98   11.21
  -5 -14   9    7.88   18.73
  -5 -14   9    0.51   11.60
   5  14  -8   55.84   26.31
   5  14  -8   51.73   41.58
  -5 -14   8   72.75   37.17
  -5 -14   8   76.71   26.11
   5  14  -7  711.36   52.64
  -5 -14   7  737.53   57.74
  -5 -14   7  705.27   68.44
   5  14  -6 1790.51   96.78
   5  14  -6 1884.66   91.97
  -5 -14   6 1774.54  107.35
  -5 -14   6 1897.40   78.69
   5  14  -5  355.96   40.77
   5  14  -5  315.84  107.09
  -5 -14   5  437.49   39.06
  -5 -14   5  355.11   66.49
   5  14  -4   28.76   20.64
  -5 -14   4   10.76   16.95
  -5 -14   4   14.77   13.70
  -5 -14   3   10.35    9.32
  -5 -14   3    8.58   12.67
   5  14  -2  105.59   40.28
  -5 -14   2  117.08   40.20
  -5 -14   2  108.51   38.58
   5  14  -1 1928.03  143.58
  -5 -14   1 1889.42  133.74
  -5 -14   1 2034.27  134.36
  -5 -14   0 1258.80  102.12
  -5 -14   0 1308.41  123.51
  -5 -14  -1  101.45   41.83
  -5 -14  -1   86.76   43.88
  -5 -15  13   15.25   10.54
   5  15 -12  199.70   76.78
  -5 -15  12  137.77   72.86
  -5 -15  11   34.78   18.81
   5  15 -10  416.44   51.82
  -5 -15  10  386.84   85.93
   5  15  -9    6.13   14.11
  -5 -15   9   13.27    8.95
  -5 -15   9    9.38    9.78
   5  15  -8   24.21   20.41
   5  15  -8   24.70   17.97
  -5 -15   8   34.96   10.53
  -5 -15   8   34.79   35.31
   5  15  -7  600.27   69.35
   5  15  -7  613.46   65.52
  -5 -15   7  450.41   59.10
  -5 -15   7  485.69   90.94
   5  15  -6  663.29   68.54
   5  15  -6  558.99  100.36
  -5 -15   6  526.41   84.67
   5  15  -5   17.70   18.05
  -5 -15   5   53.00   33.83
   5  15  -4   67.03   35.63
  -5 -15   4   30.97   23.79
   5  15  -3  172.53   82.15
  -5 -15   3  152.39   77.71
  -5 -15   2  529.29   83.50
  -5 -15   2  312.72   95.72
  -5 -15   1   42.62   17.22
  -5 -16   9   32.42   15.54
   5  16  -7   14.87   12.74
   5  16  -7   11.54   10.85
  -5 -16   7    6.34   12.91
  -5 -16   6  130.12   48.19
   6 -18   3   66.19   37.94
   6 -18   4   48.16   42.05
   6 -18   5    7.17   15.64
  -6  17   4  180.62   96.98
   6 -17  -3   14.27   12.21
  -6  17   3    6.02   15.41
   6 -17  -2    8.86   10.91
   6 -17  -1   77.68   35.71
  -6  17   1   57.62   27.51
   6 -17   0   88.11   58.40
  -6  17   0  126.81   37.90
  -6  17  -1   24.30   19.84
   6 -17   2  340.41   52.98
  -6  17  -2  339.88  100.72
   6 -17   3  125.49   56.54
  -6  17  -3  182.15   63.73
   6 -17   5   16.25   20.58
  -6  17  -5   22.84   33.09
   6 -17   6   12.91   15.14
  -6  17  -6   14.65   21.90
   6 -17   7   -0.32   22.07
  -6  17  -7   -0.34   21.95
   6 -17   8   55.24   21.12
  -6  17  -8   65.67   38.95
   6 -17   9  171.77   83.76
  -6  17  -9  234.24  104.47
   6 -17  10  112.28   28.91
  -6  17 -10   95.24   59.65
  -6  17 -11    1.10   11.70
  -6  17 -12   41.82   17.38
   6 -16  -5  944.51   71.10
  -6  16   5  978.62   75.60
   6 -16  -4  244.18  101.42
   6 -16  -4  308.64   28.87
  -6  16   4  182.95   86.82
   6 -16  -3   67.21   36.81
   6 -16  -3   15.61   21.03
  -6  16   3   67.32   29.03
   6 -16  -2   27.16   13.70
   6 -16  -2   22.36   26.73
  -6  16   2   13.67   13.08
   6 -16  -1  140.94   73.80
  -6  16   1  173.20   61.25
  -6  16   1  141.80   44.35
   6 -16   0  599.73   49.77
  -6  16   0  466.32   36.95
  -6  16   0  543.30   36.04
   6 -16   1  242.22   75.44
  -6  16  -1  275.21   80.97
   6 -16   2   10.67   14.02
  -6  16  -2   15.62   22.24
   6 -16   3   73.63   29.17
  -6  16  -3   30.13   32.49
   6 -16   4   66.27   46.61
  -6  16  -4   63.60   19.09
   6 -16   5   96.92   40.22
  -6  16  -5   79.09   41.12
   6 -16   6   24.99   14.08
  -6  16  -6   20.02   18.35
   6 -16   7   88.17   44.54
  -6  16  -7   78.18   50.73
   6 -16   8   16.18   20.62
  -6  16  -8   32.90   14.53
   6 -16   9  157.96   71.46
  -6  16  -9  143.55   80.48
   6 -16  10    8.87   18.34
  -6  16 -10   10.97   18.72
  -6  16 -11   16.78   11.52
   6 -16  12   97.32   31.63
  -6  16 -12   95.73   47.18
  -6  16 -13  388.66   60.57
   6 -15  -7  822.66   67.19
   6 -15  -6 2148.69  144.13
   6 -15  -6 1961.19  132.58
  -6  15   6 2034.36  144.64
   6 -15  -5  433.30  138.39
   6 -15  -5  487.67   38.61
  -6  15   5  500.14   67.85
   6 -15  -4  725.77   83.57
   6 -15  -4  805.01   49.42
  -6  15   4  704.22   75.75
   6 -15  -3   23.36   22.57
   6 -15  -3   27.58   34.22
  -6  15   3   21.92   17.93
   6 -15  -2  276.49   97.89
   6 -15  -2  362.02   75.65
  -6  15   2  430.70   47.42
   6 -15  -1 1524.60  122.70
  -6  15   1 1833.84  101.57
  -6  15   1 1800.57   94.46
   6 -15   0 1534.20  144.90
  -6  15   0 1389.47  105.95
  -6  15   0 1646.65   91.47
   6 -15   1  389.32   90.54
  -6  15  -1  431.59   73.77
  -6  15  -1  404.66   29.14
   6 -15   2   53.62   30.04
  -6  15  -2   61.74   30.62
  -6  15  -2   40.79   13.12
   6 -15   3  127.91   50.39
  -6  15  -3   78.56   52.30
   6 -15   4  515.75   57.58
  -6  15  -4  429.95  103.13
   6 -15   5  458.31   71.13
  -6  15  -5  455.28  100.30
  -6  15  -6  163.92   64.53
   6 -15   7   26.12   26.45
  -6  15  -7   23.47   35.89
   6 -15   8  132.61   62.65
  -6  15  -8   90.60   59.41
   6 -15   9  270.27   54.66
  -6  15  -9  232.42  111.01
   6 -15  10   87.71   53.94
  -6  15 -10   77.57   35.28
   6 -15  11    0.81   26.05
  -6  15 -11   25.25   14.37
   6 -15  12  220.56   64.88
  -6  15 -12  271.45   70.61
   6 -15  13  138.90   84.30
  -6  15 -13  163.25   61.47
  -6  15 -14   87.74   60.46
   6 -14  -8  439.36   77.73
   6 -14  -8  514.53   64.76
  -6  14   8  505.39   76.62
   6 -14  -7   72.72   41.35
   6 -14  -7   45.97   18.46
  -6  14   7   68.12   41.60
   6 -14  -6  234.81   80.55
   6 -14  -6  345.04   54.54
  -6  14   6  356.21   44.66
   6 -14  -5  114.82   28.96
   6 -14  -5   98.64   38.00
  -6  14   5   97.88   46.79
   6 -14  -4  192.99   68.58
   6 -14  -4  156.01   58.90
  -6  14   4  144.68   46.17
   6 -14  -3   49.88   32.18
   6 -14  -3   99.73   26.54
  -6  14   3   92.19   46.27
   6 -14  -2 1041.96   66.50
   6 -14  -2  997.21   63.62
  -6  14   2  985.28   66.38
   6 -14  -1 1382.81  113.01
  -6  14   1 1108.89   78.11
  -6  14   1 1313.52   99.68
   6 -14   0  900.96  100.28
  -6  14   0  893.27  104.17
  -6  14   0  825.68   44.33
   6 -14   1  682.54   69.51
  -6  14  -1  627.36   64.89
  -6  14  -1  579.87   29.05
   6 -14   2    4.76   21.55
  -6  14  -2   17.53   17.59
  -6  14  -2   15.67   13.60
  -6  14  -3   16.14   18.93
  -6  14  -3   26.47   13.02
   6 -14   4  202.22   61.94
  -6  14  -4  167.29   56.71
   6 -14   5  385.09   85.07
  -6  14  -5  355.45   66.87
   6 -14   6  326.99   40.46
  -6  14  -6  209.91   62.91
   6 -14   7   27.20   19.99
  -6  14  -7   18.48   18.52
   6 -14   8  235.08   78.05
  -6  14  -8  369.72   62.55
   6 -14   9  689.16   44.23
  -6  14  -9  711.20   53.39
   6 -14  10   51.72   25.13
  -6  14 -10   82.80   47.64
   6 -14  11   16.55   16.24
   6 -14  12  152.97   35.75
  -6  14 -12   77.22   39.20
   6 -14  13  696.53   79.98
  -6  14 -13  731.69   44.98
   6 -14  14  541.05   60.65
   6 -13 -11  584.17   66.00
   6 -13 -10  377.85   60.02
   6 -13 -10  383.63   46.99
   6 -13  -9  499.81  104.58
   6 -13  -9  525.46   60.41
  -6  13   9  626.84   71.42
   6 -13  -8   34.79   20.75
   6 -13  -8   -4.99   12.94
  -6  13   8   16.74   18.56
   6 -13  -7  230.30   84.38
   6 -13  -7  251.58   83.72
  -6  13   7  231.58   84.91
   6 -13  -6  644.63   36.33
   6 -13  -6  501.52   65.99
  -6  13   6  439.06  118.20
   6 -13  -5  139.10   49.00
   6 -13  -5  128.19   47.46
  -6  13   5  155.91   55.94
   6 -13  -4   39.68   21.39
   6 -13  -4   26.63   19.05
  -6  13   4   21.84   17.90
   6 -13  -3   -1.31   17.13
   6 -13  -3   51.58   18.88
  -6  13   3   79.77   26.44
   6 -13  -2 1348.84   79.06
   6 -13  -2 1246.82   44.87
  -6  13   2 1390.02   81.13
   6 -13  -1 2059.64  135.51
  -6  13   1 2013.21  131.34
  -6  13   1 1926.28  125.77
   6 -13   0 1499.81  101.35
  -6  13   0 1543.97  124.38
  -6  13   0 1460.34   93.80
   6 -13   1  550.63   50.28
  -6  13  -1  484.15   70.02
  -6  13  -1  455.32   56.99
   6 -13   2  110.09   29.73
  -6  13  -2  202.44   51.58
  -6  13  -2  141.78   42.19
   6 -13   3  146.70   57.01
  -6  13  -3  161.77   70.48
  -6  13  -3  169.45   45.08
   6 -13   4 1281.03   60.29
  -6  13  -4 1244.21   62.38
  -6  13  -4 1109.45   53.68
   6 -13   5 1032.31   62.72
  -6  13  -5 1005.84   80.36
   6 -13   6  385.94   65.06
  -6  13  -6  325.82   54.60
   6 -13   7   74.99   38.47
  -6  13  -7   41.27   17.04
   6 -13   8  277.86   39.03
  -6  13  -8  272.04   78.44
   6 -13   9  412.85  108.27
  -6  13  -9  535.16   37.80
   6 -13  10  163.47   45.64
  -6  13 -10  185.00   78.91
   6 -13  11   12.37   16.88
   6 -13  11   -1.80   12.80
   6 -13  12   81.90   21.56
  -6  13 -12   97.84   39.58
   6 -13  13  330.30   43.07
   6 -13  13  365.00   48.74
  -6  13 -13  186.63   76.62
   6 -13  14  259.02   30.89
   6 -13  15  184.17   81.84
   6 -13  16    5.72    7.24
   6 -13  17   38.69   21.54
   6 -12 -12   56.78   39.45
   6 -12 -11   30.67   21.30
  -6  12  11   23.91   19.14
   6 -12 -10  540.81   71.56
   6 -12 -10  509.61   66.24
  -6  12  10  697.03   59.61
   6 -12  -9  350.05   53.32
   6 -12  -9  367.50   28.62
  -6  12   9  290.32  119.91
   6 -12  -8   14.37   20.87
   6 -12  -8   15.59   12.95
  -6  12   8   36.21   24.75
   6 -12  -7  365.92   76.71
   6 -12  -7  231.28   60.83
  -6  12   7  303.33   29.17
   6 -12  -6 1247.06   76.51
   6 -12  -6 1283.82   79.70
  -6  12   6 1148.58  103.85
   6 -12  -5  468.40   52.92
   6 -12  -5  402.45   46.67
  -6  12   5  497.48   45.38
   6 -12  -4  100.38   22.58
   6 -12  -4   88.34   36.08
  -6  12   4   39.16   16.71
   6 -12  -3   98.10   38.58
   6 -12  -3   78.64   39.44
  -6  12   3  145.51   45.17
   6 -12  -2 1785.13  129.50
   6 -12  -2 1762.33  130.49
  -6  12   2 1726.82   67.38
   6 -12  -1 2733.81  112.26
  -6  12   1 2961.32  118.35
  -6  12   1 2899.65  107.29
   6 -12   0 1492.51   96.08
  -6  12   0 1517.09   86.64
  -6  12   0 1668.89   68.21
   6 -12   1  419.19   65.43
  -6  12  -1  579.01  101.06
  -6  12  -1  464.66   24.82
   6 -12   2  753.99   79.32
  -6  12  -2  738.70   84.38
  -6  12  -2  812.51   52.29
   6 -12   3 3221.17  119.44
  -6  12  -3 3222.06  131.20
  -6  12  -3 3184.72  119.14
   6 -12   4 1652.85   69.32
  -6  12  -4 1668.45   72.98
  -6  12  -4 1692.86   62.70
   6 -12   5 1312.73  108.07
  -6  12  -5 1426.37   87.07
  -6  12  -5 1186.98   63.54
   6 -12   6  855.40   47.42
  -6  12  -6  633.96   68.58
   6 -12   7   -0.06    3.81
   6 -12   7   18.15   16.65
  -6  12  -7   24.53   19.63
   6 -12   8  517.88   42.58
   6 -12   8  533.62   55.55
  -6  12  -8  532.39   58.04
   6 -12   9  601.26   31.80
   6 -12   9  609.57   45.42
  -6  12  -9  546.77   25.87
   6 -12  10  294.92   31.36
   6 -12  10  345.64   49.49
  -6  12 -10  279.06   32.03
   6 -12  11   26.50   17.51
   6 -12  11   32.11   17.55
   6 -12  12  342.33   40.54
   6 -12  12  283.31   91.32
  -6  12 -12  307.84   45.16
   6 -12  13  655.06   58.18
   6 -12  13  813.43   69.28
  -6  12 -13  742.48   33.97
   6 -12  14   92.79   37.30
   6 -12  14   85.88   37.05
   6 -12  15  131.17   96.00
   6 -12  15   67.15   36.75
   6 -11 -13   25.17   11.22
   6 -11 -12   -1.01   21.03
   6 -11 -12    2.73   10.81
  -6  11  12   15.65   15.78
   6 -11 -11  456.46   61.81
   6 -11 -11  398.84   60.74
  -6  11  11  383.60   57.39
   6 -11 -10  737.89   30.52
   6 -11 -10  701.06   43.62
  -6  11  10  680.53   92.50
   6 -11  -9  292.82   68.75
   6 -11  -9  278.95   27.63
  -6  11   9  177.89   82.42
   6 -11  -8   23.07   16.90
   6 -11  -8   13.95   14.34
  -6  11   8   17.07   15.31
   6 -11  -7  175.01   66.40
   6 -11  -7  177.74   56.86
  -6  11   7  174.39   52.99
   6 -11  -6  145.79   32.85
   6 -11  -6  110.56   43.76
  -6  11   6  133.37   43.31
   6 -11  -5  959.39   83.92
   6 -11  -5  933.82   49.43
  -6  11   5 1054.44   54.01
   6 -11  -4  137.14   30.41
   6 -11  -4  113.08   36.58
  -6  11   4  110.72   38.91
   6 -11  -3  268.14   37.91
   6 -11  -3  225.16   18.88
  -6  11   3  277.15   67.27
   6 -11  -2  794.57   56.26
   6 -11  -2  809.27   46.52
  -6  11   2  809.48   39.93
   6 -11  -1  387.11   68.96
  -6  11   1  450.27   64.45
  -6  11   1  369.65   45.67
   6 -11   0 2021.37   70.58
  -6  11   0 2279.35   86.24
  -6  11   0 2301.51   92.34
   6 -11   1  276.93   30.04
  -6  11  -1  376.20   64.94
  -6  11  -1  306.59   33.34
   6 -11   2  656.24   31.19
  -6  11  -2  799.37   53.10
  -6  11  -2  691.32   43.51
   6 -11   3  161.75   38.04
  -6  11  -3  108.79   38.63
  -6  11  -3  137.09   34.47
   6 -11   4  283.42   21.40
   6 -11   4  329.46   59.26
  -6  11  -4  312.91   29.78
  -6  11  -4  287.89   41.17
   6 -11   5   94.14   16.59
   6 -11   5  122.57   25.66
  -6  11  -5  141.74   43.03
  -6  11  -5   95.53   28.56
   6 -11   6    1.17    8.62
  -6  11  -6   19.64   14.90
  -6  11  -6    3.71    7.17
   6 -11   7  183.87   29.86
   6 -11   7  162.84   56.73
  -6  11  -7  219.59   37.27
   6 -11   8  338.72   34.86
   6 -11   8  338.12   27.79
  -6  11  -8  378.72   46.91
   6 -11   9  279.37   34.40
   6 -11   9  338.88   36.86
  -6  11  -9  321.90   53.27
   6 -11  10  100.53   33.09
   6 -11  10   33.92   18.71
  -6  11 -10   79.01   28.84
   6 -11  11   19.49   16.16
   6 -11  11   11.44   13.49
  -6  11 -11   13.54   13.65
   6 -11  12   82.15   29.44
   6 -11  12  131.98   47.27
  -6  11 -12   66.62   31.26
   6 -11  13  687.17   75.81
   6 -11  13  698.14   40.15
   6 -11  14  422.12  107.05
  -6  11 -14  545.89   51.27
   6 -11  15  106.78   61.49
  -6  11 -15  135.09   47.62
   6 -11  16   48.02   28.19
   6 -11  17  284.83  120.97
   6 -10 -14  589.79  103.81
   6 -10 -14  506.20   65.43
   6 -10 -13   -9.57   15.33
   6 -10 -13   -7.54   11.40
  -6  10  13   24.98   16.77
   6 -10 -12  157.28   48.99
   6 -10 -12  233.95   26.71
  -6  10  12  133.16   44.03
   6 -10 -11  831.27   48.94
   6 -10 -11  717.09   45.91
  -6  10  11  823.22  115.81
   6 -10 -10  847.66   48.93
   6 -10 -10  817.02   78.39
  -6  10  10  949.40   88.09
   6 -10  -9  144.02   31.92
   6 -10  -9  150.34   32.04
  -6  10   9   92.03   40.69
   6 -10  -8   42.82   16.95
   6 -10  -8   13.19    6.33
  -6  10   8   44.78   27.55
   6 -10  -7  570.62   70.04
   6 -10  -7  472.93   38.95
  -6  10   7  573.16   97.55
   6 -10  -6  149.19   31.66
   6 -10  -6  130.96   31.44
  -6  10   6  183.43   37.30
   6 -10  -5  622.51   74.94
   6 -10  -5  692.75   61.93
  -6  10   5  693.01   57.24
   6 -10  -4    8.74   12.98
   6 -10  -4    4.16   11.48
  -6  10   4   30.60   14.90
   6 -10  -3   76.46   26.04
   6 -10  -3   93.71   32.09
  -6  10   3  102.14   35.56
   6 -10  -2  626.54   52.53
   6 -10  -2  693.91   30.63
  -6  10   2  712.67   33.08
   6 -10  -1  372.45   36.83
   6 -10  -1  404.91   31.09
  -6  10   1  440.30   51.61
   6 -10   0  119.59   35.09
  -6  10   0  149.30   33.67
  -6  10   0  133.60   30.38
   6 -10   1  130.01   33.08
  -6  10  -1  221.87   44.22
  -6  10  -1  146.02   32.51
   6 -10   2  168.82    9.49
   6 -10   2  211.39   20.65
  -6  10  -2  247.19   42.94
  -6  10  -2  179.95   37.68
   6 -10   3  550.71   26.95
   6 -10   3  506.09   31.51
  -6  10  -3  503.26   38.15
  -6  10  -3  527.88   33.74
   6 -10   4  833.25   42.86
   6 -10   4  843.66   50.51
  -6  10  -4  762.01   79.92
  -6  10  -4  858.53   47.33
   6 -10   5  603.10   27.08
   6 -10   5  602.20   34.47
  -6  10  -5  591.68   65.24
  -6  10  -5  486.45   32.63
   6 -10   6  132.57   37.05
   6 -10   6  165.55   44.98
   6 -10   6  109.90   27.56
  -6  10  -6  137.87   59.27
   6 -10   7  415.27   36.13
   6 -10   7  476.74   39.15
  -6  10  -7  450.64   32.79
   6 -10   8  372.45   35.77
   6 -10   8  325.32   60.69
  -6  10  -8  424.71   35.59
   6 -10   9   23.46   13.79
   6 -10   9   12.11   17.73
  -6  10  -9    4.21   10.41
   6 -10  10   15.60    8.10
   6 -10  10   10.84   10.77
  -6  10 -10   10.88   10.52
   6 -10  11   11.00    6.87
  -6  10 -11    9.87    8.32
   6 -10  12  279.69   49.54
  -6  10 -12  317.56   95.23
  -6  10 -12  209.47   42.13
   6 -10  13  202.29   82.19
  -6  10 -13  235.01   78.60
   6 -10  14  534.72   58.69
  -6  10 -14  504.16   47.94
   6 -10  15  196.95   59.56
  -6  10 -15  277.53   87.14
  -6  10 -16   28.53   18.81
   6 -10  17  103.12   68.86
   6  -9 -15 1184.12   87.09
   6  -9 -15  885.99   85.25
   6  -9 -14  131.33   66.19
   6  -9 -14  121.55   53.63
  -6   9  14  224.99   82.59
   6  -9 -13  159.68   43.45
   6  -9 -13   98.18   42.50
  -6   9  13  176.09   72.25
   6  -9 -12  606.84   71.35
   6  -9 -12  647.46   29.29
  -6   9  12  702.89   84.55
   6  -9 -11 1333.28   86.69
   6  -9 -11  962.13   57.66
  -6   9  11 1168.85  111.17
   6  -9 -10  717.90   42.45
   6  -9 -10  639.50   35.77
  -6   9  10  728.08   65.99
   6  -9  -9  259.22   31.20
   6  -9  -9  219.49   48.14
  -6   9   9  229.77   30.32
   6  -9  -8    1.47    8.91
   6  -9  -8    8.44    9.78
  -6   9   8   25.62   15.71
   6  -9  -7  543.96   45.03
   6  -9  -7  639.09   65.58
  -6   9   7  541.45   78.52
   6  -9  -6  -13.12   16.61
   6  -9  -6    2.34    5.84
  -6   9   6    9.52    3.47
   6  -9  -5  463.28   33.31
   6  -9  -5  452.32   50.41
  -6   9   5  512.71   53.22
   6  -9  -4  175.11   36.24
   6  -9  -4  207.02   27.87
  -6   9   4  154.32   29.82
   6  -9  -3  602.77   51.21
   6  -9  -3  527.97   28.60
  -6   9   3  524.78   64.15
   6  -9  -2 1028.51   60.47
   6  -9  -2 1038.93   72.17
  -6   9   2  908.74   45.88
   6  -9  -1  983.40   43.57
   6  -9  -1  986.40   44.11
  -6   9   1  940.70   43.26
   6  -9   0   71.42   20.48
  -6   9   0  105.69   38.53
  -6   9   0  107.48   31.99
   6  -9   1  103.46   14.69
   6  -9   1  189.11   35.18
   6  -9   1  127.18   10.34
  -6   9  -1  195.88   46.37
  -6   9  -1  191.97   39.52
   6  -9   2  258.51   14.07
   6  -9   2  242.88   51.60
  -6   9  -2  291.03   64.91
  -6   9  -2  243.58   22.21
   6  -9   3 1808.86   76.52
   6  -9   3 1853.47   89.41
  -6   9  -3 1806.60   82.98
  -6   9  -3 1718.42   74.70
   6  -9   4 1414.30   59.38
   6  -9   4 1476.82   64.20
  -6   9  -4 1548.01   73.15
  -6   9  -4 1533.77   72.72
   6  -9   5 2040.77   93.79
   6  -9   5 2106.23   50.15
  -6   9  -5 2148.28   96.88
  -6   9  -5 2041.39   84.52
   6  -9   6  730.29   48.49
   6  -9   6  765.43   44.55
   6  -9   6  694.68   30.16
  -6   9  -6  785.82   47.09
   6  -9   7  841.11   76.13
   6  -9   7  802.18   57.57
   6  -9   7  808.88   42.86
  -6   9  -7  770.88   53.14
   6  -9   8  223.17   21.94
   6  -9   8  218.95   50.09
  -6   9  -8  168.22   50.03
   6  -9   9   77.98   22.88
  -6   9  -9   47.26   22.68
  -6   9  -9   80.79   21.99
   6  -9  10  375.52   37.93
  -6   9 -10  432.83   59.22
  -6   9 -10  387.34   30.15
   6  -9  11   20.33   22.22
  -6   9 -11   29.96   21.17
  -6   9 -11   26.59   14.62
   6  -9  12  862.24   77.83
  -6   9 -12  919.37   48.79
   6  -9  13  238.56   90.55
  -6   9 -13  205.74   87.77
   6  -9  14  128.88   53.52
  -6   9 -14  180.30   58.28
   6  -9  15   24.46   17.21
  -6   9 -15   -3.94   18.72
   6  -9  16   21.51   22.61
  -6   9 -16    9.99   18.00
   6  -9  17  393.95   74.00
   6  -8 -16  232.72   40.31
   6  -8 -16  187.73   30.47
   6  -8 -15  315.35   45.99
   6  -8 -15  255.93   48.67
  -6   8  15  268.92   75.71
   6  -8 -14   90.88   33.31
   6  -8 -14   70.42   33.06
  -6   8  14  101.27   53.12
   6  -8 -13  360.03   90.41
   6  -8 -13  314.63   54.52
  -6   8  13  295.18   89.96
   6  -8 -12  463.86   42.39
   6  -8 -12  347.16   55.94
  -6   8  12  374.41   39.33
   6  -8 -11 1296.14   93.03
   6  -8 -11 1201.24   92.95
  -6   8  11 1178.66   99.49
   6  -8 -10 1041.28   99.70
   6  -8 -10  921.94   61.37
  -6   8  10  971.78   81.69
   6  -8  -9  230.46   55.56
   6  -8  -9  229.29   38.40
  -6   8   9  224.70   61.37
   6  -8  -8  341.60   62.51
   6  -8  -8  360.87   20.76
  -6   8   8  354.32   89.19
   6  -8  -7  532.37   65.59
   6  -8  -7  491.58   32.40
  -6   8   7  495.28   48.32
   6  -8  -6  111.85   29.29
   6  -8  -6   92.30   30.64
  -6   8   6   87.00   36.53
   6  -8  -5  552.46   32.39
   6  -8  -5  579.15   31.63
  -6   8   5  527.89   40.74
   6  -8  -4   99.34   16.02
   6  -8  -4  119.66   20.39
  -6   8   4  124.16   24.76
   6  -8  -3  946.25   56.15
   6  -8  -3  880.16   67.50
  -6   8   3  900.77   52.19
   6  -8  -2 1264.54   59.25
   6  -8  -2 1270.92   57.93
  -6   8   2 1172.88   78.75
   6  -8  -1  507.70   57.27
   6  -8  -1  514.75   43.07
   6  -8  -1  502.87   32.71
  -6   8   1  490.01   44.04
   6  -8   0  290.59   34.73
   6  -8   0  330.95   20.23
   6  -8   0  256.19   10.87
   6  -8   0  306.35   14.87
  -6   8   0  270.25   30.83
   6  -8   1    0.14    3.13
   6  -8   1   14.74    8.45
   6  -8   1    2.08    4.62
  -6   8  -1    9.43    4.50
  -6   8  -1    5.53    7.07
   6  -8   2  717.10   41.12
   6  -8   2  712.91   70.18
   6  -8   2  710.28   39.12
  -6   8  -2  715.59   51.59
  -6   8  -2  750.31   41.10
   6  -8   3 2325.99   84.24
   6  -8   3 2442.78  104.17
   6  -8   3 2439.92   91.56
  -6   8  -3 2469.78   99.48
  -6   8  -3 2435.38   90.47
   6  -8   4 2217.62   82.77
   6  -8   4 2383.88   91.68
  -6   8  -4 2207.43   83.27
  -6   8  -4 2141.35   84.38
   6  -8   5  719.16   36.18
   6  -8   5  734.50   69.83
   6  -8   5  765.10   34.47
  -6   8  -5  711.94   56.22
   6  -8   6  521.26   52.13
   6  -8   6  506.33   87.23
   6  -8   6  498.31   26.33
  -6   8  -6  486.61   51.88
   6  -8   7   20.41   10.62
   6  -8   7   29.61   17.13
  -6   8  -7   42.25   15.86
   6  -8   8  358.52   31.30
   6  -8   8  439.28   19.52
  -6   8  -8  353.13   38.36
  -6   8  -8  353.08   40.14
   6  -8   9  327.69   35.04
  -6   8  -9  274.90   26.74
  -6   8  -9  261.80   42.90
   6  -8  10  390.78   52.18
  -6   8 -10  482.04   57.64
  -6   8 -10  492.00   27.17
   6  -8  11   78.55   40.10
  -6   8 -11   75.38   20.39
  -6   8 -11   79.40   26.60
   6  -8  12  115.41   32.17
  -6   8 -12   40.59   27.22
   6  -8  13  518.74   55.93
  -6   8 -13  483.26   69.71
   6  -8  14  175.87   52.12
  -6   8 -14  210.44  100.71
   6  -8  15   76.85   37.89
  -6   8 -15   62.65   31.46
   6  -8  16   19.18   20.07
  -6   8 -16    1.35   18.48
   6  -8  17  514.37   71.13
  -6   8 -17  429.74   78.64
   6  -7 -17   15.97   21.16
   6  -7 -16   69.04   46.40
  -6   7  16   91.74   57.52
   6  -7 -15  101.61   47.21
   6  -7 -15   58.20   39.84
  -6   7  15   91.07   33.17
   6  -7 -14   80.34   35.43
   6  -7 -14   59.43   29.39
  -6   7  14  111.97   44.36
   6  -7 -13   43.12   28.23
   6  -7 -13    7.19   10.58
  -6   7  13   12.98   11.01
   6  -7 -12  141.26   50.77
   6  -7 -12  129.32   41.18
  -6   7  12  206.02   62.61
   6  -7 -11 1297.17   81.98
   6  -7 -11 1349.30   80.87
  -6   7  11 1346.89   96.64
   6  -7 -10 1787.87   94.96
   6  -7 -10 1659.43   54.67
  -6   7  10 1712.54   69.72
   6  -7  -9  468.70   87.41
   6  -7  -9  400.84   32.64
  -6   7   9  393.98   37.92
   6  -7  -8   83.40   16.29
   6  -7  -8   70.19   17.79
  -6   7   8   51.21   11.18
  -6   7   8   77.73   25.40
   6  -7  -7  523.18   48.51
   6  -7  -7  556.69   31.24
  -6   7   7  524.19   20.87
  -6   7   7  531.07   35.82
   6  -7  -6  577.99   32.45
   6  -7  -6  536.23   32.23
  -6   7   6  572.33   25.46
  -6   7   6  564.87   53.03
   6  -7  -5  122.12   21.99
   6  -7  -5   39.11   20.07
   6  -7  -5   37.87    7.86
  -6   7   5   44.63    9.75
  -6   7   5   58.65   18.40
   6  -7  -4  273.88   24.00
   6  -7  -4  259.96   30.80
   6  -7  -4  234.86    7.36
  -6   7   4  227.13    6.67
  -6   7   4  225.56   22.20
   6  -7  -3 2274.31   98.59
   6  -7  -3 2348.25   70.62
  -6   7   3 2231.45   87.62
  -6   7   3 2283.55  102.05
   6  -7  -2 1551.27   72.55
   6  -7  -2 1572.07   66.55
   6  -7  -2 1452.07   60.01
  -6   7   2 1565.94   71.50
   6  -7  -1 1963.62   90.15
   6  -7  -1 1743.22   77.86
   6  -7  -1 1789.23   71.98
  -6   7   1 1681.98   71.15
   6  -7   0   -9.25   12.18
   6  -7   0   16.76   10.32
   6  -7   0   18.44   10.42
  -6   7   0   19.34   13.59
   6  -7   1  104.75   26.15
   6  -7   1  114.85   32.84
   6  -7   1   73.34   16.11
   6  -7   1   93.46   22.48
  -6   7  -1  100.89   20.24
   6  -7   2  682.39   33.96
   6  -7   2  678.72   38.44
   6  -7   2  624.00   36.68
  -6   7  -2  632.95   35.23
  -6   7  -2  627.18   41.48
   6  -7   3 3394.67  107.47
   6  -7   3 3391.91  110.69
  -6   7  -3 3294.04  102.24
  -6   7  -3 3419.95  103.16
   6  -7   4  710.23   56.63
   6  -7   4  653.51   55.78
   6  -7   4  611.84   31.63
  -6   7  -4  643.64   36.51
   6  -7   5  560.25   46.40
   6  -7   5  471.63   36.35
   6  -7   5  459.13   34.31
  -6   7  -5  492.62   38.27
   6  -7   6   20.23    9.61
   6  -7   6   28.98   10.13
  -6   7  -6   28.42   20.18
  -6   7  -6   35.55   21.26
   6  -7   7  631.38   44.67
   6  -7   7  739.32   44.81
  -6   7  -7  686.80   34.61
  -6   7  -7  677.01   53.07
   6  -7   8 1520.49   68.69
   6  -7   8 1474.01   57.37
  -6   7  -8 1524.99   59.43
  -6   7  -8 1507.00   67.68
   6  -7   9  894.75   64.85
   6  -7   9  965.66   39.31
  -6   7  -9  798.00   38.65
  -6   7  -9  879.49   39.80
   6  -7  10  985.27   91.50
  -6   7 -10 1011.33   84.91
  -6   7 -10  857.78   39.49
   6  -7  11  126.87   61.60
  -6   7 -11  136.97   44.90
   6  -7  12   62.77   24.20
  -6   7 -12   57.85   24.12
   6  -7  13   36.71   14.10
  -6   7 -13   57.65   32.18
   6  -7  14  186.25   84.74
  -6   7 -14  216.97   68.64
   6  -7  15   30.49   24.80
  -6   7 -15    8.04   10.32
   6  -7  16   16.06   11.44
  -6   7 -16   13.01   20.41
   6  -7  17   81.40   50.84
   6  -6 -17  270.60   37.03
  -6   6  17  127.91   85.47
   6  -6 -16   74.31   28.07
  -6   6  16   98.14   41.49
   6  -6 -15  172.38   60.02
   6  -6 -15  136.53   44.79
  -6   6  15  164.76   57.95
   6  -6 -14   18.66   18.51
   6  -6 -14    2.67    9.86
  -6   6  14   17.14    9.07
   6  -6 -13  289.83   39.02
   6  -6 -13  243.95   40.42
  -6   6  13  259.93   82.15
   6  -6 -12  616.81   39.25
   6  -6 -12  599.35   31.32
  -6   6  12  617.56   86.95
   6  -6 -11 1605.91   44.79
   6  -6 -11 1479.96   76.23
  -6   6  11 1510.94   65.31
  -6   6  11 1569.76   75.83
   6  -6 -10 1083.23   47.51
   6  -6 -10 1160.12   44.51
  -6   6  10 1053.61   54.29
  -6   6  10 1128.71   53.38
   6  -6  -9   33.06   27.97
   6  -6  -9   54.93   20.05
  -6   6   9   59.34   15.90
  -6   6   9   71.57   17.64
   6  -6  -8  369.72   50.18
   6  -6  -8  342.46   29.10
  -6   6   8  315.02   26.98
  -6   6   8  404.24   79.50
   6  -6  -7  959.16   45.30
   6  -6  -7 1042.99   57.43
  -6   6   7 1101.52   44.10
  -6   6   7 1033.50   64.17
   6  -6  -6 2333.15   98.65
   6  -6  -6 2380.42   96.37
   6  -6  -6 2363.82   84.30
  -6   6   6 2312.96   84.55
  -6   6   6 2582.43  101.82
   6  -6  -5   87.33   22.66
   6  -6  -5   28.50   10.64
   6  -6  -5   35.86   10.40
  -6   6   5   46.98   12.57
  -6   6   5   35.97   17.35
   6  -6  -4  704.73   57.82
   6  -6  -4  622.74   39.46
   6  -6  -4  611.96   30.08
  -6   6   4  696.99   33.42
  -6   6   4  631.16   36.27
   6  -6  -3  619.20   45.09
   6  -6  -3  616.41   31.80
  -6   6   3  579.59   29.07
  -6   6   3  590.81   35.30
   6  -6  -2 5541.86  138.37
   6  -6  -2 5441.45  131.93
  -6   6   2 5326.14  125.44
  -6   6   2 5439.57  137.21
   6  -6  -1 2420.07  104.87
   6  -6  -1 2589.17  108.63
   6  -6  -1 2383.05   96.50
  -6   6   1 2477.86  102.43
  -6   6   1 2542.67  105.86
   6  -6   0  209.17   49.15
   6  -6   0  190.16   21.57
   6  -6   0  137.50   14.92
  -6   6   0  166.75   22.59
  -6   6   0  161.35   17.58
   6  -6   1   82.47   13.69
   6  -6   1  103.03   21.45
   6  -6   1   63.02   15.89
  -6   6  -1   98.85   19.61
  -6   6  -1   94.70   24.04
   6  -6   2 2061.71   92.61
   6  -6   2 2187.17   98.73
   6  -6   2 2019.56   91.55
  -6   6  -2 2223.70   95.54
   6  -6   3 1682.18   74.62
   6  -6   3 1905.34   79.42
   6  -6   3 1819.26   81.83
  -6   6  -3 1843.77   77.61
   6  -6   4 2782.08   86.52
   6  -6   4 2699.75   87.93
  -6   6  -4 2685.06   90.93
   6  -6   5 1246.06   57.77
   6  -6   5 1195.27   54.26
  -6   6  -5 1181.88   57.85
  -6   6  -5 1230.02   60.64
   6  -6   6  104.83   32.52
   6  -6   6  126.11   22.07
  -6   6  -6  127.61   37.84
  -6   6  -6   83.01   19.82
   6  -6   7  200.82   17.07
   6  -6   7  181.51   40.10
  -6   6  -7  217.16   18.12
  -6   6  -7  204.35   53.92
   6  -6   8 2395.20   86.42
   6  -6   8 2606.62   79.82
  -6   6  -8 2447.35   78.45
  -6   6  -8 2698.19   90.05
   6  -6   9 1497.09   84.94
  -6   6  -9 1406.06  115.13
  -6   6  -9 1417.49   68.92
   6  -6  10  770.87   35.67
   6  -6  10  763.10   60.26
  -6   6 -10  813.54   45.67
   6  -6  11   73.67   24.74
  -6   6 -11   96.06   59.38
   6  -6  12    1.17   17.40
  -6   6 -12   13.25   12.95
   6  -6  13  302.05   74.93
  -6   6 -13  299.06  111.82
   6  -6  14  157.19   29.78
  -6   6 -14  157.74   58.69
   6  -6  15   36.86   27.37
  -6   6 -15   58.44   31.47
   6  -6  16   -0.79   16.22
  -6   6 -16   40.24   32.68
  -6   6 -17   50.18   25.79
   6  -5 -18  101.68   34.39
  -6   5  18  149.26   54.43
   6  -5 -17  105.74   58.79
   6  -5 -17  100.39   39.72
  -6   5  17  113.68   67.47
   6  -5 -16  433.69   30.55
   6  -5 -16  310.62   50.22
  -6   5  16  392.27   43.20
   6  -5 -15  117.40   61.18
   6  -5 -15  130.49   38.36
  -6   5  15  157.32   60.28
   6  -5 -14   19.56   12.15
   6  -5 -14   24.28   15.67
  -6   5  14   -1.02    9.03
   6  -5 -13   79.87   30.42
   6  -5 -13   25.45   18.44
  -6   5  13   38.57   15.67
  -6   5  13   36.09   26.99
   6  -5 -12 1220.22   59.31
   6  -5 -12 1045.89   64.02
  -6   5  12 1154.29   49.13
  -6   5  12 1053.49   75.67
   6  -5 -11  970.88   93.04
   6  -5 -11  970.83   36.82
  -6   5  11  898.55   50.80
  -6   5  11  999.23   48.77
   6  -5 -10  691.58   53.77
   6  -5 -10  687.79   46.74
  -6   5  10  652.35   35.40
  -6   5  10  716.78   36.23
   6  -5  -9  111.20   31.65
   6  -5  -9   62.58   24.77
  -6   5   9  101.23   19.81
  -6   5   9   60.54   20.14
   6  -5  -8  666.23   85.09
   6  -5  -8  581.53   43.71
  -6   5   8  628.39   33.10
  -6   5   8  634.02   35.40
   6  -5  -7  408.83   35.33
   6  -5  -7  268.46   20.94
   6  -5  -7  255.42   24.37
  -6   5   7  336.96   18.44
  -6   5   7  353.42   67.27
   6  -5  -6 1184.42   75.38
   6  -5  -6 1201.10   58.03
   6  -5  -6 1149.27   49.94
  -6   5   6 1140.71   51.51
  -6   5   6 1259.14   60.31
   6  -5  -5 1645.63   74.65
   6  -5  -5 1633.29   71.56
   6  -5  -5 1603.99   66.12
  -6   5   5 1698.71   69.19
  -6   5   5 1578.72   71.14
  -6   5   5 1627.49   90.04
   6  -5  -4   90.53   25.50
   6  -5  -4   82.80   15.83
   6  -5  -4   75.59   17.48
  -6   5   4   79.89   15.65
  -6   5   4   51.99    9.58
  -6   5   4   98.17   46.93
   6  -5  -3  562.16   47.55
   6  -5  -3  600.59   40.36
   6  -5  -3  609.08   39.09
  -6   5   3  710.65   41.63
  -6   5   3  634.32   46.57
   6  -5  -2   22.00   24.45
   6  -5  -2   17.21    7.01
   6  -5  -2   13.14    9.33
  -6   5   2   14.69    6.13
  -6   5   2   25.33   13.13
   6  -5  -1  433.17   45.31
   6  -5  -1  385.49   29.53
   6  -5  -1  424.06   27.68
   6  -5  -1  412.45   29.95
  -6   5   1  420.04   28.36
  -6   5   1  426.12   33.35
   6  -5   0  753.08   45.91
   6  -5   0  641.75   41.85
   6  -5   0  707.11   38.24
   6  -5   0  642.22   47.83
  -6   5   0  733.66   40.14
  -6   5   0  668.62   44.57
   6  -5   1  978.50   52.99
   6  -5   1  989.10   53.74
  -6   5  -1  987.49   54.31
  -6   5  -1  981.32   54.42
   6  -5   2 3669.31   99.80
   6  -5   2 3605.43   90.62
  -6   5  -2 3659.29  102.87
  -6   5  -2 3514.16  104.82
   6  -5   3 3217.26   87.25
   6  -5   3 3120.43   81.84
  -6   5  -3 3275.72   94.04
  -6   5  -3 3369.59   93.69
   6  -5   4 3540.43  101.88
   6  -5   4 3744.37  113.08
   6  -5   4 3487.53  100.67
  -6   5  -4 3746.14  112.98
   6  -5   5 1149.00   62.58
   6  -5   5 1159.91   62.37
   6  -5   5 1166.16   54.52
  -6   5  -5 1226.90   57.74
   6  -5   6   45.08   14.71
   6  -5   6   74.15   19.11
   6  -5   6  103.36   30.89
   6  -5   6   81.20   32.24
  -6   5  -6   69.69   21.27
   6  -5   7  357.95   28.57
   6  -5   7  336.99   26.29
  -6   5  -7  317.56   40.59
   6  -5   8 3167.37  100.94
   6  -5   8 3299.88  120.97
  -6   5  -8 3322.95  116.87
   6  -5   9 1018.53   70.58
   6  -5   9 1030.46   96.95
  -6   5  -9  992.87   49.64
   6  -5  10  978.10   40.34
   6  -5  10  976.59   73.45
  -6   5 -10  996.24   50.37
   6  -5  11  198.16   22.40
   6  -5  11  220.55   88.97
  -6   5 -11  235.32   62.56
   6  -5  12  568.49   56.86
  -6   5 -12  528.34   51.94
   6  -5  13 1190.37  150.14
  -6   5 -13 1504.67   97.74
   6  -5  14  636.82  127.24
  -6   5 -14  712.42   43.95
   6  -5  15  310.66  106.94
  -6   5 -15  239.10   84.69
   6  -5  16   18.86   21.62
  -6   5 -16    6.87   11.84
   6  -4 -19   20.50   19.87
  -6   4  18  103.76   44.15
   6  -4 -17  139.15   41.01
  -6   4  17  160.30   46.82
   6  -4 -16  521.96   53.90
   6  -4 -16  539.39   34.53
  -6   4  16  538.72   56.97
   6  -4 -15  295.44   94.57
   6  -4 -15  233.33   46.57
  -6   4  15  255.30   52.07
  -6   4  15  248.50   89.62
   6  -4 -14   30.38   25.96
   6  -4 -14   29.74   17.10
  -6   4  14   51.23   16.61
  -6   4  14   33.44   17.66
   6  -4 -13  168.69   61.01
   6  -4 -13  163.77   48.77
  -6   4  13  138.60   36.58
  -6   4  13  135.32   49.01
   6  -4 -12 1827.73   84.79
   6  -4 -12 1794.33   67.29
  -6   4  12 1730.70   66.63
  -6   4  12 1714.05  105.08
   6  -4 -11 1489.32   73.61
   6  -4 -11 1387.52   61.18
  -6   4  11 1355.35   76.94
  -6   4  11 1432.09   79.21
   6  -4 -10 1003.09   55.60
   6  -4 -10  921.26   62.07
  -6   4  10  886.45   53.01
  -6   4  10  862.56   49.23
   6  -4  -9  344.50   66.11
   6  -4  -9  299.08   19.81
  -6   4   9  333.29   29.75
  -6   4   9  302.28   69.43
   6  -4  -8  471.35   59.83
   6  -4  -8  443.20   40.76
  -6   4   8  456.50   35.25
  -6   4   8  504.59   42.98
   6  -4  -7  418.32   41.62
   6  -4  -7  381.49   27.57
  -6   4   7  433.04   34.00
  -6   4   7  402.24   34.04
   6  -4  -6 3937.59  114.09
   6  -4  -6 3569.57  100.07
   6  -4  -6 3388.71  100.77
  -6   4   6 3776.71  111.17
  -6   4   6 3413.61   95.99
  -6   4   6 3688.44  111.88
   6  -4  -5  615.65   46.30
   6  -4  -5  556.20   37.89
   6  -4  -5  560.44   35.84
  -6   4   5  615.68   50.08
  -6   4   5  525.66   35.50
  -6   4   5  560.47   45.58
   6  -4  -4  -22.04   17.42
   6  -4  -4   -3.10    5.15
   6  -4  -4    7.64    7.24
  -6   4   4    0.84    5.93
  -6   4   4   14.42   11.42
   6  -4  -3   37.02   22.88
   6  -4  -3    4.53    5.22
   6  -4  -3    8.20    9.21
   6  -4  -3    3.74    3.84
  -6   4   3   14.42    5.29
  -6   4   3    9.43   10.66
   6  -4  -2   33.62   23.61
   6  -4  -2    4.19    3.13
   6  -4  -2    4.64    5.06
   6  -4  -2    3.09    5.09
  -6   4   2    6.18    5.48
  -6   4   2    9.05    4.76
   6  -4  -1  102.95   24.46
   6  -4  -1   28.15    8.16
   6  -4  -1   39.06    9.24
   6  -4  -1   32.39    7.30
  -6   4   1   22.59   12.64
  -6   4   1   43.99   14.66
   6  -4   0  241.62   17.69
   6  -4   0  216.79   18.51
  -6   4   0  233.76   15.99
  -6   4   0  220.52   47.13
   6  -4   1  125.19   12.73
   6  -4   1  109.44    7.52
   6  -4   1   94.22   20.25
  -6   4  -1  100.62   24.78
  -6   4  -1  104.29   22.25
   6  -4   2 1847.34   80.05
   6  -4   2 1835.93   80.20
  -6   4  -2 2002.39   87.21
  -6   4  -2 1879.51   86.62
   6  -4   3 1657.56   77.88
   6  -4   3 1757.04   50.05
  -6   4  -3 1686.58   80.29
  -6   4  -3 1695.14   86.41
   6  -4   4 1681.86   72.18
   6  -4   4 1895.12   78.20
   6  -4   4 1802.66   76.39
  -6   4  -4 1867.36   88.24
  -6   4  -4 1939.84   80.63
   6  -4   5  491.77   42.05
   6  -4   5  573.33   35.94
   6  -4   5  569.78   67.06
   6  -4   5  530.78   54.48
  -6   4  -5  555.81   47.56
   6  -4   6  891.27   48.80
   6  -4   6  943.72   49.46
   6  -4   6 1069.34   48.36
   6  -4   6 1083.44   42.68
  -6   4  -6 1060.24   41.28
   6  -4   7 1155.61   45.25
   6  -4   7 1158.58   52.01
   6  -4   7 1177.33   53.28
  -6   4  -7 1190.39   53.10
   6  -4   8 1525.18   53.36
   6  -4   8 1622.64   66.02
   6  -4   8 1668.72   81.52
  -6   4  -8 1726.59   92.97
   6  -4   9 1735.58   73.87
   6  -4   9 1852.83   77.42
  -6   4  -9 1650.29   76.33
   6  -4  10  765.02   24.09
   6  -4  10  785.76   99.00
  -6   4 -10  701.27   66.83
   6  -4  11   16.11   10.70
   6  -4  11   37.98   25.26
  -6   4 -11   27.39    8.37
   6  -4  12  464.26   29.69
   6  -4  12  541.94   59.79
  -6   4 -12  497.96   38.81
   6  -4  13  251.13   82.38
  -6   4 -13  274.13   67.06
   6  -4  14  204.04   63.99
  -6   4 -14  211.41   83.80
   6  -4  15  181.41   60.39
  -6   4 -15  111.08   61.82
   6  -4  16  103.22   46.71
  -6   4 -16  109.64   49.40
   6  -3 -19   10.35   20.18
  -6   3  19   17.40   15.12
   6  -3 -18   53.42   21.56
  -6   3  18   55.74   20.17
   6  -3 -17  180.52   76.88
   6  -3 -17  119.94   45.18
  -6   3  17  147.62   49.87
  -6   3  17  185.72   74.16
   6  -3 -16  281.11   64.96
   6  -3 -16  267.56   41.60
  -6   3  16  236.84   68.21
  -6   3  16  276.65   62.82
   6  -3 -15  375.32   82.58
   6  -3 -15  326.18   64.65
  -6   3  15  286.54   51.18
  -6   3  15  422.05   39.82
   6  -3 -14   18.98   14.25
   6  -3 -14    4.91   10.08
  -6   3  14   -4.82   10.43
  -6   3  14   39.39   17.20
   6  -3 -13 1421.31   65.49
   6  -3 -13 1456.40   61.91
  -6   3  13 1445.23   58.85
  -6   3  13 1489.05   88.19
   6  -3 -12 4906.10  167.11
   6  -3 -12 4679.91  155.91
  -6   3  12 4827.96  157.90
  -6   3  12 4729.08  207.38
   6  -3 -11  159.18   32.37
   6  -3 -11  152.94   18.61
  -6   3  11  138.23   39.56
  -6   3  11  134.72   56.41
   6  -3 -10  187.71   43.03
   6  -3 -10  212.35   33.26
  -6   3  10  146.56   31.96
  -6   3  10  239.30   45.49
   6  -3  -9  155.28   36.42
   6  -3  -9  166.39   14.94
  -6   3   9  166.09   38.48
  -6   3   9  214.36   51.84
   6  -3  -8 2591.91   99.60
   6  -3  -8 2479.79   91.91
  -6   3   8 2432.21   88.07
  -6   3   8 2465.76   92.79
  -6   3   8 2598.88   98.36
   6  -3  -7 3103.27  105.95
   6  -3  -7 2856.13   83.26
  -6   3   7 2827.91   80.57
  -6   3   7 2938.91   86.09
  -6   3   7 3101.91   93.05
   6  -3  -6 2853.50   90.94
   6  -3  -6 2934.92   73.41
  -6   3   6 3024.77   71.59
  -6   3   6 2960.51   77.71
  -6   3   6 2976.72   89.96
   6  -3  -5 3178.94   91.23
   6  -3  -5 3109.44   73.38
  -6   3   5 3125.24   73.87
  -6   3   5 3280.82   86.39
  -6   3   5 3277.11  106.26
   6  -3  -4   47.02   34.21
   6  -3  -4    1.37    2.32
   6  -3  -4    0.95    2.66
   6  -3  -4    4.11    6.25
  -6   3   4    6.61    7.24
  -6   3   4   47.66   21.06
   6  -3  -3   45.74   37.55
   6  -3  -3   50.65    9.02
   6  -3  -3   51.52   10.33
  -6   3   3   50.80   14.08
  -6   3   3   61.33   18.32
   6  -3  -2 2754.82  110.43
   6  -3  -2 2285.48   94.06
   6  -3  -2 2232.92   91.59
  -6   3   2 2481.13  104.99
  -6   3   2 2326.14  105.59
   6  -3  -1  270.01   12.42
   6  -3  -1  313.70   19.16
  -6   3   1  290.50   27.97
  -6   3   1  328.87   64.73
   6  -3   0    9.51    6.20
   6  -3   0    2.55    4.59
   6  -3   0   19.31   15.83
  -6   3   0   11.54    9.57
  -6   3   0   20.12    9.83
   6  -3   1    4.27    4.18
   6  -3   1    8.11    5.52
   6  -3   1   -0.42    2.92
   6  -3   1   72.07   41.29
  -6   3  -1    1.23    4.31
  -6   3  -1   12.16    9.14
   6  -3   2  262.27   18.74
   6  -3   2  295.65   15.26
   6  -3   2  256.93   11.54
   6  -3   2  350.11   66.10
  -6   3  -2  274.53   23.37
  -6   3  -2  266.89   22.00
   6  -3   3 1529.48   68.77
   6  -3   3 1491.05   68.23
   6  -3   3 1626.00   79.35
  -6   3  -3 1672.63   83.17
  -6   3  -3 1596.15   74.23
   6  -3   4 1241.88   54.12
   6  -3   4 1312.10   60.44
   6  -3   4 1289.02   57.52
  -6   3  -4 1400.39   67.15
  -6   3  -4 1285.97   60.96
   6  -3   5   47.01   11.93
   6  -3   5   70.38   15.23
   6  -3   5   55.37   16.93
  -6   3  -5   78.35   26.28
  -6   3  -5   70.23   19.34
   6  -3   6   87.83   15.30
   6  -3   6  186.58   42.84
   6  -3   6  152.50   43.98
  -6   3  -6  113.13   29.93
   6  -3   7  999.54   34.44
   6  -3   7 1068.17   46.29
   6  -3   7 1001.88   48.00
  -6   3  -7 1052.14   55.62
   6  -3   8 1184.61   50.38
   6  -3   8 1175.87   66.55
  -6   3  -8 1050.05   70.07
   6  -3   9 1643.83   80.01
   6  -3   9 1637.97   88.78
  -6   3  -9 1706.43   72.79
   6  -3  10   98.39   29.64
   6  -3  10   88.33   41.67
  -6   3 -10  100.59   31.45
   6  -3  11   56.50   24.95
   6  -3  11   77.99   33.65
  -6   3 -11   55.74   15.84
   6  -3  12  817.02   38.93
   6  -3  12  767.45   62.10
  -6   3 -12  853.29   53.11
   6  -3  13  283.14   43.39
  -6   3 -13  446.56   32.27
   6  -3  14  147.71   68.83
  -6   3 -14  259.99   42.21
   6  -3  15  139.72   58.82
  -6   3 -15   92.67   50.84
   6  -3  16   24.62   19.53
  -6   3 -16   36.03   24.36
   6  -2 -20  324.49   60.00
  -6   2  20  395.05   51.30
   6  -2 -19   21.00   15.93
  -6   2  19    8.10    8.85
  -6   2  19   15.85    8.93
   6  -2 -18   16.73   10.53
  -6   2  18   28.17   16.64
   6  -2 -17  364.26   41.80
   6  -2 -17  242.93   41.14
  -6   2  17  231.16   69.65
  -6   2  17  288.63   96.69
   6  -2 -16  172.39   67.67
   6  -2 -16  127.78   45.10
  -6   2  16  126.84   53.14
  -6   2  16  169.06   56.69
   6  -2 -15  334.36   50.04
   6  -2 -15  268.80   29.30
  -6   2  15  274.25   56.55
  -6   2  15  321.62   42.60
   6  -2 -14   16.33   11.29
   6  -2 -14    6.97   12.98
  -6   2  14    7.41   12.17
  -6   2  14   18.08   12.56
   6  -2 -13 1019.20   92.10
   6  -2 -13 1008.76   40.79
  -6   2  13 1005.14   80.53
  -6   2  13 1022.72   46.80
   6  -2 -12 2735.84  108.27
   6  -2 -12 2638.85  101.45
  -6   2  12 2587.00  111.04
  -6   2  12 2562.64  108.66
   6  -2 -11 3343.73  128.02
   6  -2 -11 3331.18  101.62
  -6   2  11 3411.32  122.63
  -6   2  11 3418.69  113.74
   6  -2 -10 1382.46   66.39
   6  -2 -10 1364.89   65.89
  -6   2  10 1276.39   67.14
  -6   2  10 1319.19   64.29
   6  -2  -9  901.98   71.59
   6  -2  -9  822.78   46.86
  -6   2   9  754.97   43.12
  -6   2   9  856.94   53.66
  -6   2   9  821.85   47.81
   6  -2  -8 2068.44   89.71
   6  -2  -8 1983.37   82.50
  -6   2   8 1949.72   79.33
  -6   2   8 2004.89   83.94
  -6   2   8 2049.94   89.87
   6  -2  -7 3693.42  117.13
   6  -2  -7 3413.17   92.11
  -6   2   7 3515.41   99.62
  -6   2   7 3515.56  103.78
   6  -2  -6 4665.38  123.21
   6  -2  -6 4514.03  102.66
  -6   2   6 4399.59  100.50
  -6   2   6 4715.75  129.50
  -6   2   6 4473.07  127.43
   6  -2  -5 2314.24  112.26
  -6   2   5 2314.39   95.41
  -6   2   5 2256.96  100.47
   6  -2  -4   31.32   33.93
  -6   2   4   12.57    9.95
  -6   2   4   37.85   14.27
   6  -2  -3  600.18   49.00
  -6   2   3  520.08   30.79
  -6   2   3  428.79   31.20
   6  -2  -2 2071.36  107.47
   6  -2  -2 1908.89   77.34
  -6   2   2 2023.81   90.76
  -6   2   2 2015.72   89.09
   6  -2  -1 1107.17   53.00
   6  -2  -1 1304.10   51.71
   6  -2  -1 1314.47   56.76
  -6   2   1 1370.83   60.75
  -6   2   1 1287.15   58.32
   6  -2   0   42.32    9.31
   6  -2   0   32.75    7.63
   6  -2   0   32.87   24.31
  -6   2   0   28.47    8.28
  -6   2   0   33.35   13.84
   6  -2   1   33.47   10.70
   6  -2   1   40.14   12.52
   6  -2   1   39.05    9.22
   6  -2   1  110.42   49.87
  -6   2  -1   32.16    9.37
  -6   2  -1   24.23   13.63
   6  -2   2  330.60   27.78
   6  -2   2  338.32   23.67
   6  -2   2  327.82   25.52
   6  -2   2  456.76   90.15
  -6   2  -2  302.61   15.31
  -6   2  -2  402.67   70.73
   6  -2   3    6.18    6.60
   6  -2   3   20.07    7.88
   6  -2   3   18.63    7.89
  -6   2  -3    2.21    5.99
  -6   2  -3   18.04    8.21
   6  -2   4  111.36   13.55
   6  -2   4  127.05    7.04
   6  -2   4  158.04   36.12
  -6   2  -4  165.44   31.37
  -6   2  -4  153.60   24.25
   6  -2   5  148.15   14.50
   6  -2   5  160.48   19.99
  -6   2  -5  187.42   38.61
  -6   2  -5  161.87   33.19
   6  -2   6 1287.93   86.60
  -6   2  -6 1174.74   73.67
  -6   2  -6 1156.81   57.33
   6  -2   7 1712.79   78.09
   6  -2   7 1960.66   98.57
  -6   2  -7 1725.38   84.67
   6  -2   8  478.37   54.80
   6  -2   8  490.06   69.94
  -6   2  -8  395.54   36.00
   6  -2   9 1742.23   78.48
   6  -2   9 1772.73   98.25
  -6   2  -9 1782.57   83.91
   6  -2  10   19.31   10.59
   6  -2  10    3.60   12.01
  -6   2 -10   -0.62   11.25
   6  -2  11  108.63   48.36
   6  -2  11  172.77   36.64
  -6   2 -11  121.87   44.73
   6  -2  12  600.05   37.60
   6  -2  12  589.96  118.25
  -6   2 -12  591.90   73.02
   6  -2  13  252.66   49.80
   6  -2  13  261.38   77.15
  -6   2 -13  314.91   88.59
   6  -2  14  947.43   76.76
  -6   2 -14  996.89   75.43
   6  -2  15  299.11  119.13
  -6   2 -15  262.80   99.57
  -6   2 -16    9.96   20.33
   6  -1 -20  167.21   80.90
  -6   1  20   96.90   58.43
   6  -1 -19   16.91   25.06
  -6   1  19   11.48   11.50
  -6   1  19   17.41   12.30
   6  -1 -18    9.11    6.17
  -6   1  18    5.62   23.35
   6  -1 -17  906.24   58.63
  -6   1  17  785.59   53.61
   6  -1 -16  362.63   85.36
   6  -1 -16  307.80   38.34
  -6   1  16  258.78   61.96
  -6   1  16  265.48   42.02
   6  -1 -15    5.74    9.23
   6  -1 -15   10.26    5.17
  -6   1  15    5.73   12.32
  -6   1  15   10.86   10.36
   6  -1 -14   31.62   15.68
   6  -1 -14   26.29   10.46
  -6   1  14   27.66   20.73
  -6   1  14    9.19   17.07
   6  -1 -13  135.76   26.78
   6  -1 -13   85.60   21.90
  -6   1  13   96.00   17.67
  -6   1  13   84.93   31.88
   6  -1 -12 1392.96   90.82
   6  -1 -12 1385.15   60.70
  -6   1  12 1236.62   51.96
  -6   1  12 1325.28   62.32
   6  -1 -11 2392.01  106.52
   6  -1 -11 2283.09   87.10
  -6   1  11 2274.17   84.28
  -6   1  11 2354.66  130.12
   6  -1 -10  127.68   29.95
   6  -1 -10  117.08   13.27
  -6   1  10  149.52   35.07
  -6   1  10  135.28   32.39
   6  -1  -9  706.08   63.82
   6  -1  -9  572.96   39.16
  -6   1   9  507.05   37.20
  -6   1   9  580.59   56.97
  -6   1   9  608.09   54.21
   6  -1  -8 1103.46   54.95
   6  -1  -8 1120.64   46.39
  -6   1   8 1087.46   45.36
  -6   1   8 1170.40   53.73
  -6   1   8 1236.54   57.63
   6  -1  -7 2700.42   73.59
   6  -1  -7 2681.24   61.74
  -6   1   7 2781.14   64.15
  -6   1   7 2916.87   77.92
  -6   1   7 2884.56   96.83
   6  -1  -6 4123.76  106.68
  -6   1   6 4141.79  113.67
  -6   1   6 4095.40  105.49
   6  -1  -5 1015.20   76.24
  -6   1   5  958.13   53.12
  -6   1   5  731.13   50.02
   6  -1  -4  424.73   60.61
  -6   1   4  352.99   17.76
  -6   1   4  428.79   43.49
   6  -1  -3  625.19   65.57
  -6   1   3  622.98   38.96
  -6   1   3  642.57   50.19
   6  -1  -2 2738.02   82.07
  -6   1   2 2644.64   35.42
  -6   1   2 2640.61  115.33
   6  -1  -1 1536.89   79.28
   6  -1  -1 1437.86   56.31
   6  -1  -1 1472.03   67.77
  -6   1   1 1426.28   55.75
  -6   1   1 1565.08   72.75
   6  -1   0  400.65   22.97
   6  -1   0  391.81   22.83
   6  -1   0  401.26   28.38
   6  -1   0  654.53   71.34
  -6   1   0  419.35   26.82
  -6   1   0  429.39   46.03
   6  -1   1  204.52   12.48
   6  -1   1  190.50   11.98
   6  -1   1  201.25   14.58
   6  -1   1  292.45   49.92
  -6   1  -1  202.22   23.98
  -6   1  -1  274.55   51.80
   6  -1   2  864.16   46.26
   6  -1   2  916.41   47.17
   6  -1   2  895.82   49.91
   6  -1   2 1042.67   90.57
  -6   1  -2  830.41   54.34
  -6   1  -2  891.58   51.10
   6  -1   3  845.39   16.53
   6  -1   3  936.83   57.88
  -6   1  -3  882.47   62.07
  -6   1  -3  898.32   45.86
   6  -1   4  471.68   29.32
   6  -1   4  481.91   29.62
   6  -1   4  549.57   46.53
  -6   1  -4  461.05   47.35
  -6   1  -4  481.20   32.59
   6  -1   5   35.64   17.59
  -6   1  -5   22.09   12.49
   6  -1   6  183.29   43.09
  -6   1  -6  198.17   40.39
  -6   1  -6  245.76   53.21
   6  -1   7 1562.99  115.76
  -6   1  -7 1510.15   66.66
  -6   1  -7 1502.70   68.23
   6  -1   8  433.29   41.61
   6  -1   8  344.11   33.57
  -6   1  -8  490.26   54.17
   6  -1   9 2125.92  104.11
   6  -1   9 2284.20  124.35
  -6   1  -9 2127.52   91.07
   6  -1  10   23.41   12.46
   6  -1  10    8.88   14.08
  -6   1 -10   12.69   10.56
   6  -1  11  103.36   30.92
   6  -1  11   93.78   23.13
   6  -1  12  121.28   38.40
   6  -1  12  149.18   54.50
  -6   1 -12  165.08   39.44
   6  -1  13  423.14   50.96
   6  -1  13  502.39   73.98
  -6   1 -13  504.22   49.84
   6  -1  14  493.14   66.25
  -6   1 -14  448.65   57.26
   6  -1  15   68.01   55.19
  -6   1 -15  115.60   55.08
   6   0 -20  312.80   68.55
  -6   0  20  358.59   55.43
  -6   0  20  311.01   38.65
   6   0 -19   55.09   23.96
  -6   0  19   43.30   22.96
  -6   0  19   39.60   16.55
   6   0 -18   17.00   20.28
  -6   0  18   17.72   12.98
  -6   0  18   24.43    8.00
   6   0 -17  289.58   76.29
  -6   0  17  257.30   86.45
  -6   0  17  291.00   41.10
   6   0 -16  275.76   81.47
   6   0 -16  246.26   47.36
  -6   0  16  248.52   31.60
  -6   0  16  324.00   65.67
   6   0 -15  242.85   53.54
   6   0 -15  145.02   47.89
  -6   0  15  170.73   53.30
  -6   0  15  205.26   62.97
   6   0 -14  598.41   72.68
   6   0 -14  516.37   20.86
  -6   0  14  438.90   35.93
  -6   0  14  531.55   65.83
   6   0 -13 1286.49  105.64
   6   0 -13 1251.59   60.69
  -6   0  13 1352.43   65.81
  -6   0  13 1296.14  105.04
   6   0 -12   -0.38    7.93
   6   0 -12    6.47    7.78
  -6   0  12   27.02   21.18
  -6   0  12   40.35   16.46
   6   0 -11  819.64   45.71
   6   0 -11  855.52   36.82
  -6   0  11  842.23   60.63
  -6   0  11  927.17   97.91
   6   0 -10   18.32    7.70
   6   0 -10    5.28    5.12
  -6   0  10    3.99    3.99
  -6   0  10    6.62    8.22
  -6   0  10    4.89   12.34
   6   0  -9  936.30   82.71
   6   0  -9  846.85   43.93
  -6   0   9  797.05   41.58
  -6   0   9  867.28   70.59
  -6   0   9  966.11   86.52
   6   0  -8 1207.13   56.92
   6   0  -8 1047.56   44.41
  -6   0   8 1083.39   45.69
  -6   0   8 1118.94   53.44
  -6   0   8 1038.30   50.23
   6   0  -7 1588.56   73.91
  -6   0   7 1747.29   37.16
  -6   0   7 1567.56   76.43
   6   0  -6 1272.53   61.90
  -6   0   6 1413.64   67.06
  -6   0   6 1412.34   79.89
   6   0  -5   62.52   27.68
  -6   0   5   17.80   10.18
  -6   0   5   22.73   18.58
   6   0  -4 1027.89   90.69
  -6   0   4  838.71   66.60
  -6   0   4  771.21   44.63
   6   0  -3 3288.25  102.65
   6   0  -3 3161.93   94.89
  -6   0   3 3176.03   81.99
   6   0  -2 2370.97  105.28
   6   0  -2 2547.46  125.72
  -6   0   2 2354.56  109.88
   6   0  -1 1972.75   98.41
   6   0  -1 1778.93   73.25
   6   0  -1 2078.30  100.00
  -6   0   1 1909.98   79.89
  -6   0   1 1941.74   87.16
   6   0   0 1746.24   46.47
   6   0   0 1819.93   94.25
   6   0   0 1687.57   74.68
  -6   0   0 1641.88   73.46
  -6   0   0 1747.37   49.71
  -6   0   0 1737.79   37.13
   6   0   1  437.42   28.63
   6   0   1  446.09   30.55
   6   0   1  598.35  108.62
  -6   0  -1  497.71   32.46
  -6   0  -1  533.83   54.24
   6   0   2  706.44   37.00
   6   0   2  632.24   44.91
   6   0   2  816.25   76.70
  -6   0  -2  650.21   43.89
  -6   0  -2  697.30   37.18
   6   0   3 2048.37   81.82
   6   0   3 2159.04   85.11
   6   0   3 2277.76  118.36
  -6   0  -3 2213.48  103.09
  -6   0  -3 2091.21   92.69
   6   0   4  884.86   60.12
  -6   0  -4  988.32   65.39
  -6   0  -4 1030.29   27.77
   6   0   5   27.27   20.19
  -6   0  -5   10.02    7.21
  -6   0  -5   22.27    7.52
   6   0   6  279.20   48.64
  -6   0  -6  280.25   23.43
  -6   0  -6  276.09   38.10
   6   0   7 1072.98   93.70
  -6   0  -7  878.45   52.94
  -6   0  -7  833.94   69.91
   6   0   8  700.95   45.82
   6   0   8  730.65   45.38
  -6   0  -8  758.64   51.31
   6   0   9 1180.47   87.71
   6   0   9 1092.75  109.14
  -6   0  -9 1036.97   52.14
   6   0  10  138.05   53.80
   6   0  10  129.58   65.90
  -6   0 -10  159.48   46.90
   6   0  11  231.86   31.51
   6   0  11  137.93   54.28
  -6   0 -11  173.40   51.46
   6   0  12  445.22   61.13
   6   0  12  550.50   70.76
  -6   0 -12  488.37   49.78
   6   0  13  251.68   69.70
   6   0  13  294.52   67.55
  -6   0 -13  338.42   35.97
   6   0  14  139.36   58.49
  -6   0 -14  146.35   78.93
  -6   0 -15   22.43   27.88
  -6  -1  21  133.53  106.54
   6   1 -20  178.76   72.80
  -6  -1  20  173.95   51.90
  -6  -1  20   64.64   51.74
  -6  -1  19   29.46   11.23
  -6  -1  19   28.15   17.54
   6   1 -18   11.11   21.98
  -6  -1  18   17.38   20.05
  -6  -1  18   19.99   16.22
   6   1 -17   77.41   34.51
  -6  -1  17   62.41   21.07
  -6  -1  17   65.51   27.90
   6   1 -16  843.13   48.48
   6   1 -16  808.07   40.32
  -6  -1  16  925.28   52.91
  -6  -1  16  859.60   52.24
   6   1 -15  219.26   80.47
   6   1 -15  137.54   42.31
  -6  -1  15  172.89   43.18
  -6  -1  15  200.92   61.73
   6   1 -14  121.00   38.38
   6   1 -14   71.93   23.27
  -6  -1  14  126.66   36.40
  -6  -1  14  116.29   56.36
   6   1 -13  295.23   68.22
   6   1 -13  305.43   18.89
  -6  -1  13  337.37   49.55
  -6  -1  13  253.83   29.11
   6   1 -12  140.78   37.66
   6   1 -12  120.14   20.12
  -6  -1  12  114.36   32.18
  -6  -1  12  111.03   35.66
   6   1 -11  376.29   29.50
   6   1 -11  365.35   24.57
  -6  -1  11  450.31   38.54
  -6  -1  11  396.12   75.98
   6   1 -10   11.54    6.25
   6   1 -10   13.72    6.28
  -6  -1  10    5.00    4.37
  -6  -1  10   12.42   12.45
  -6  -1  10   13.39   13.04
   6   1  -9  543.24   45.34
   6   1  -9  529.21   35.41
  -6  -1   9  483.42   33.62
  -6  -1   9  587.65   52.54
  -6  -1   9  615.28   62.65
   6   1  -8 2787.66   97.64
  -6  -1   8 2672.97   70.82
  -6  -1   8 2733.74  106.43
  -6  -1   8 2965.79   99.43
   6   1  -7 4451.06  121.24
  -6  -1   7 4339.87  127.25
  -6  -1   7 4769.25  120.18
   6   1  -6 1996.76   87.32
  -6  -1   6 2136.85   96.89
  -6  -1   6 2097.78   95.18
   6   1  -5  839.50   74.97
  -6  -1   5  928.22   67.43
  -6  -1   5  991.63   57.47
   6   1  -4  531.70   41.22
   6   1  -4  573.52   66.00
  -6  -1   4  507.93   46.31
   6   1  -3 1871.26   89.94
   6   1  -3 1862.31  113.78
  -6  -1   3 1582.23   76.41
   6   1  -2  568.75   69.20
   6   1  -2  468.98   29.95
   6   1  -2  584.91   67.53
  -6  -1   2  468.49   29.26
  -6  -1   2  487.22   43.17
   6   1  -1 5521.49  136.14
   6   1  -1 5356.72  123.00
   6   1  -1 5644.70  187.33
  -6  -1   1 5525.09  126.82
  -6  -1   1 5725.28  153.93
   6   1   0 1370.61   64.03
   6   1   0 1345.29   90.68
   6   1   0 1287.67   61.57
  -6  -1   0 1440.38   66.24
  -6  -1   0 1356.47   67.90
  -6  -1   0 1526.59   68.39
   6   1   1  807.81   48.68
   6   1   1  786.76   49.25
   6   1   1  763.53   40.82
  -6  -1  -1  848.67   48.26
  -6  -1  -1  842.24   51.89
  -6  -1  -1  788.51   43.21
   6   1   2  835.77   19.45
   6   1   2  837.64   14.76
   6   1   2  834.85   33.55
  -6  -1  -2  787.75   44.70
  -6  -1  -2  844.88   21.37
   6   1   3 1622.09   63.74
   6   1   3 1715.57   83.20
  -6  -1  -3 1678.57   76.73
  -6  -1  -3 1654.92   69.60
   6   1   4  674.25   45.68
  -6  -1  -4  646.84   49.58
  -6  -1  -4  683.59   21.78
   6   1   5  153.03   30.34
  -6  -1  -5  184.17   55.32
  -6  -1  -5  123.09   28.56
   6   1   6  470.76   92.89
  -6  -1  -6  323.03   62.38
  -6  -1  -6  295.51   29.93
   6   1   7 1095.20   52.19
  -6  -1  -7 1009.71   75.04
  -6  -1  -7 1036.36   45.29
   6   1   8  598.22   62.12
  -6  -1  -8  593.09   59.60
   6   1   9   44.73   27.44
   6   1   9  129.65   34.77
  -6  -1  -9   86.97   30.83
   6   1  10   35.11   19.40
   6   1  10   77.79   43.59
  -6  -1 -10   60.17   19.07
   6   1  11  514.12  103.46
   6   1  11  431.30   68.21
   6   1  12  373.76   43.48
   6   1  12  442.11   69.96
  -6  -1 -12  366.21   48.28
   6   1  13  521.57   67.41
   6   1  13  682.49   77.01
  -6  -1 -13  741.71   50.88
   6   1  14  356.15   70.60
   6   1  14  332.85  112.77
  -6  -1 -14  350.50   66.44
  -6  -2  21  243.88   60.81
   6   2 -20  304.75   43.14
  -6  -2  20  208.43  107.90
  -6  -2  20  238.51   38.80
   6   2 -19   59.83   22.54
  -6  -2  19   15.74   20.00
  -6  -2  19   71.68   29.74
   6   2 -18  237.49   78.68
  -6  -2  18  225.94   72.18
  -6  -2  18  267.55   74.68
   6   2 -17  142.62   66.61
  -6  -2  17  158.61   55.51
  -6  -2  17  143.48   49.08
   6   2 -16 1343.95  100.88
   6   2 -16 1150.90   86.05
  -6  -2  16 1325.79   94.28
  -6  -2  16 1280.67   98.69
   6   2 -15  283.32   24.37
   6   2 -15  241.96   36.87
  -6  -2  15  180.10   62.15
  -6  -2  15  274.99   32.20
   6   2 -14    2.18   22.19
   6   2 -14    9.02    8.56
  -6  -2  14    8.78   10.25
  -6  -2  14    3.38   12.46
   6   2 -13   12.70   17.80
   6   2 -13    1.78    4.55
  -6  -2  13   13.87   11.59
  -6  -2  13    3.40   11.88
   6   2 -12   21.35   14.62
   6   2 -12   36.76   11.35
  -6  -2  12   20.23    8.20
  -6  -2  12   54.08   17.84
   6   2 -11  277.74   55.97
   6   2 -11  199.79   33.26
  -6  -2  11  272.41   70.30
  -6  -2  11  309.56   44.84
   6   2 -10  114.61   27.70
  -6  -2  10   99.47   41.88
  -6  -2  10  149.18   26.57
   6   2  -9  322.92   24.25
  -6  -2   9  323.75    9.50
  -6  -2   9  300.75   16.82
  -6  -2   9  284.99   28.59
  -6  -2   9  329.56   25.24
   6   2  -8 1852.63   91.89
  -6  -2   8 2025.09   79.33
  -6  -2   8 1983.43  108.36
  -6  -2   8 1972.29   90.93
   6   2  -7 3308.05  100.77
  -6  -2   7 3368.00   99.25
  -6  -2   7 3520.13  111.02
   6   2  -6 1581.21   95.71
   6   2  -6 1677.35   81.99
  -6  -2   6 1662.18   79.46
   6   2  -5  115.47   36.24
   6   2  -5  132.66   34.43
  -6  -2   5  148.33   41.34
   6   2  -4  299.72   26.47
   6   2  -4  302.65   71.18
  -6  -2   4  300.38   27.05
   6   2  -3  725.47   48.69
   6   2  -3  685.44   40.98
   6   2  -3  617.73   55.71
  -6  -2   3  709.56   36.43
  -6  -2   3  734.11   45.21
   6   2  -2  756.33   51.05
   6   2  -2  896.99   46.79
   6   2  -2  943.95   79.05
  -6  -2   2  878.44   45.46
  -6  -2   2  895.93   52.43
   6   2  -1 2184.74   94.66
   6   2  -1 2170.82   90.02
   6   2  -1 2409.11  111.48
  -6  -2   1 2253.53   93.00
  -6  -2   1 2245.96   99.74
   6   2   0 1246.68   52.91
   6   2   0 1245.55   69.65
   6   2   0 1138.36   53.62
  -6  -2   0 1296.21   58.03
  -6  -2   0 1227.82   63.49
  -6  -2   0 1209.01   51.51
   6   2   1 1333.24   63.14
   6   2   1 1465.48   57.37
  -6  -2  -1 1231.74   54.39
  -6  -2  -1 1239.25   58.68
  -6  -2  -1 1313.25   56.99
   6   2   2  728.01   40.14
   6   2   2  857.10   87.79
  -6  -2  -2  690.79   16.73
  -6  -2  -2  705.30   51.69
  -6  -2  -2  750.87   43.19
   6   2   3  370.80    9.23
   6   2   3  406.47   26.81
   6   2   3  411.07   61.77
  -6  -2  -3  418.10   38.17
  -6  -2  -3  423.26   45.97
   6   2   4 1015.18   65.20
  -6  -2  -4  916.65   47.83
  -6  -2  -4  924.63   43.89
   6   2   5  786.00   68.95
  -6  -2  -5  654.86   51.17
  -6  -2  -5  659.84   31.23
   6   2   6  132.33   36.98
  -6  -2  -6  100.63   26.38
  -6  -2  -6  108.33   23.11
   6   2   7 1608.62   74.52
  -6  -2  -7 1567.37   80.55
  -6  -2  -7 1618.49   72.10
   6   2   8 1240.32   63.67
  -6  -2  -8 1372.39  110.20
  -6  -2  -8 1404.00   63.80
   6   2   9   71.19   34.69
   6   2   9   75.57   38.73
  -6  -2  -9   75.85   16.39
   6   2  10  145.80   65.83
   6   2  10  178.83   55.01
  -6  -2 -10  151.30   50.31
   6   2  11  427.79   67.72
   6   2  11  428.87   62.48
  -6  -2 -11  530.60   53.72
   6   2  12  627.80   54.10
   6   2  12  624.20   72.71
  -6  -2 -12  548.42   52.30
   6   2  13 1033.88   93.91
   6   2  13  867.19  108.84
  -6  -2 -13  889.85  105.24
   6   2  14  581.01  100.40
  -6  -2 -14  709.88   80.04
  -6  -3  21  281.56  138.41
   6   3 -20  110.55   39.45
  -6  -3  20   52.75   28.54
   6   3 -19    3.43    9.49
  -6  -3  19   10.58    9.41
  -6  -3  19   11.00    9.52
   6   3 -18  360.66   50.30
  -6  -3  18  355.44   98.52
  -6  -3  18  309.50   42.59
   6   3 -17  570.27   64.34
  -6  -3  17  655.98   36.44
   6   3 -16 1440.99  106.66
  -6  -3  16 1369.60   98.61
  -6  -3  16 1506.39  108.49
   6   3 -15  393.96   40.10
   6   3 -15  291.27   53.27
  -6  -3  15  343.53   28.47
  -6  -3  15  366.85   32.40
   6   3 -14   22.53   10.71
   6   3 -14   24.08   17.80
  -6  -3  14   27.19   10.33
  -6  -3  14   26.45   24.64
   6   3 -13  932.86   87.57
   6   3 -13  972.05   42.66
  -6  -3  13 1038.13   45.06
  -6  -3  13 1127.43   81.78
   6   3 -12  812.59   59.49
   6   3 -12  788.74   49.66
  -6  -3  12  816.36   52.46
  -6  -3  12  778.52   59.68
   6   3 -11  328.18   20.23
  -6  -3  11  309.94   28.20
  -6  -3  11  319.72   29.76
  -6  -3  11  353.56   66.22
   6   3 -10  271.14   24.28
  -6  -3  10  215.37   31.14
  -6  -3  10  205.83   59.89
  -6  -3  10  264.02   27.50
   6   3  -9  163.04   30.55
  -6  -3   9  138.42   19.83
  -6  -3   9  182.69   25.34
  -6  -3   9  202.69   55.26
  -6  -3   9  198.06   46.86
   6   3  -8 1295.85   67.90
  -6  -3   8 1106.14   46.42
  -6  -3   8 1206.29   50.39
  -6  -3   8 1321.92   60.55
   6   3  -7 1036.77   55.65
   6   3  -7 1062.29   55.46
  -6  -3   7  967.50   40.15
  -6  -3   7 1024.68   50.90
  -6  -3   7 1063.75   43.36
   6   3  -6  272.69   30.86
   6   3  -6  227.19   53.54
  -6  -3   6  282.23   56.25
   6   3  -5    2.14   10.70
   6   3  -5   18.02   10.18
  -6  -3   5    3.52    2.26
  -6  -3   5   20.90   13.44
  -6  -3   5   -0.10    1.36
   6   3  -4  719.01   53.21
   6   3  -4  826.94   73.20
  -6  -3   4  686.08   32.07
  -6  -3   4  700.83   63.16
  -6  -3   4  707.97   32.11
   6   3  -3  805.43   39.98
   6   3  -3  845.42   22.09
   6   3  -3  826.21   43.75
  -6  -3   3  832.13   16.16
  -6  -3   3  775.15   53.90
   6   3  -2 1940.58   82.78
   6   3  -2 1957.11   79.55
   6   3  -2 1832.39   82.96
  -6  -3   2 1982.32   83.76
  -6  -3   2 1920.54   92.68
   6   3  -1 2096.79   85.37
   6   3  -1 1850.05   78.58
   6   3  -1 2090.96  120.22
  -6  -3   1 2025.37   83.70
  -6  -3   1 2042.24   98.15
   6   3   0   24.91   10.69
   6   3   0   23.97    5.73
   6   3   0   34.40   19.92
  -6  -3   0   30.47    9.67
  -6  -3   0   42.64   11.62
   6   3   1  320.83   19.69
   6   3   1  300.22   23.58
  -6  -3  -1  253.19   24.88
  -6  -3  -1  350.16   28.95
  -6  -3  -1  330.99   14.71
   6   3   2    3.70    2.65
   6   3   2   23.73   16.42
  -6  -3  -2   -1.69    2.54
  -6  -3  -2   11.08   13.25
  -6  -3  -2    5.53    5.48
   6   3   3  131.27   12.16
   6   3   3  187.23   23.23
  -6  -3  -3  181.84   35.49
  -6  -3  -3  187.24   40.78
   6   3   4   17.96   11.85
  -6  -3  -4   39.46   25.67
  -6  -3  -4   13.75    8.85
   6   3   5  112.95   38.51
  -6  -3  -5   49.03   26.86
  -6  -3  -5   69.66   39.65
   6   3   6   32.08   26.19
  -6  -3  -6   11.06   13.56
  -6  -3  -6   14.11   11.35
   6   3   7   46.90   20.92
  -6  -3  -7   60.73   21.51
  -6  -3  -7   70.63   30.31
   6   3   8 1023.43   79.71
  -6  -3  -8  995.28   90.27
  -6  -3  -8  953.18   59.88
   6   3   9   83.97   30.11
   6   3   9   27.59   25.43
  -6  -3  -9   21.47   10.54
   6   3  10   34.67   12.65
   6   3  10   65.85   36.87
  -6  -3 -10   52.93   18.80
   6   3  11  161.64   80.21
   6   3  11  181.54   92.32
  -6  -3 -11  224.66   59.42
   6   3  12  273.86  110.77
   6   3  12  362.87   53.02
  -6  -3 -12  357.31   56.45
  -6  -3 -13  708.21   61.79
   6   4 -20   -9.41   18.29
   6   4 -19  289.80   26.86
  -6  -4  19  152.08   79.10
  -6  -4  19  142.90   58.72
   6   4 -18  570.06   82.07
  -6  -4  18  536.76   49.73
  -6  -4  18  521.88   68.42
   6   4 -17  300.38   81.23
  -6  -4  17  300.11   79.22
  -6  -4  17  284.46   64.99
   6   4 -16 1731.12  147.90
  -6  -4  16 1595.96  154.15
  -6  -4  16 1780.84  138.52
   6   4 -15  463.13   90.63
   6   4 -15  314.62   53.50
  -6  -4  15  347.60   91.54
  -6  -4  15  362.66   92.38
   6   4 -14  187.48   57.91
   6   4 -14   87.63   36.76
  -6  -4  14  155.24   45.58
  -6  -4  14  163.21   36.11
   6   4 -13 1003.42   44.39
  -6  -4  13  858.15   32.02
  -6  -4  13  946.20   72.05
  -6  -4  13 1028.78   47.72
   6   4 -12 1727.15  106.71
  -6  -4  12 1730.57   70.35
  -6  -4  12 1730.60   77.98
  -6  -4  12 1670.57   84.19
   6   4 -11  716.38   50.00
  -6  -4  11  690.58   33.52
  -6  -4  11  682.60   49.07
  -6  -4  11  735.25   64.69
   6   4 -10  516.10   38.69
  -6  -4  10  492.30   37.39
  -6  -4  10  527.47   35.91
   6   4  -9  101.04   32.06
   6   4  -9  129.52   29.15
  -6  -4   9   90.04   32.89
  -6  -4   9   79.11   15.23
   6   4  -8 1120.40   85.25
   6   4  -8  939.59   53.11
  -6  -4   8  946.57   48.78
  -6  -4   8 1046.32   56.62
  -6  -4   8  928.53   46.97
   6   4  -7 1492.75   73.80
   6   4  -7 1483.31   85.18
  -6  -4   7 1394.22   56.87
  -6  -4   7 1475.25   95.68
  -6  -4   7 1385.27   59.14
   6   4  -6  311.81   28.84
   6   4  -6  337.27   43.84
  -6  -4   6  272.20   22.61
  -6  -4   6  355.01   54.94
  -6  -4   6  324.44   28.66
   6   4  -5  222.08   30.03
   6   4  -5  246.68   55.47
  -6  -4   5  162.16   15.93
  -6  -4   5  199.44   44.91
  -6  -4   5  196.37   17.38
   6   4  -4  450.81   42.67
   6   4  -4  413.53   31.11
   6   4  -4  558.74   38.10
  -6  -4   4  435.49   30.04
  -6  -4   4  439.53   38.28
   6   4  -3 2908.75   87.56
   6   4  -3 2749.37   79.06
   6   4  -3 2973.29  115.81
  -6  -4   3 2812.35   82.52
  -6  -4   3 3064.86   96.94
   6   4  -2 2163.50   91.39
   6   4  -2 2091.12   87.72
   6   4  -2 2182.31  120.78
  -6  -4   2 2152.32   89.08
  -6  -4   2 2235.29   97.82
   6   4  -1  665.82   23.56
   6   4  -1  491.23   53.65
  -6  -4   1  676.08   66.41
  -6  -4   1  745.11   48.98
   6   4   0  521.75   38.82
   6   4   0  541.50   63.58
  -6  -4   0  462.46   46.37
  -6  -4   0  496.89   37.04
   6   4   1   32.88    9.71
   6   4   1   48.20   21.68
  -6  -4  -1   33.87    7.71
  -6  -4  -1   40.86   15.63
  -6  -4  -1   40.07   17.48
   6   4   2  609.68   31.05
   6   4   2  692.74   51.49
  -6  -4  -2  718.66   60.99
  -6  -4  -2  633.67   36.45
   6   4   3  278.31   36.07
  -6  -4  -3  212.24   30.26
  -6  -4  -3  193.66   28.64
   6   4   4  664.28   89.65
  -6  -4  -4  637.35   60.02
  -6  -4  -4  548.56   26.54
   6   4   5   13.18   23.13
  -6  -4  -5    0.78   15.96
  -6  -4  -5   17.93   10.84
   6   4   6  100.12   36.88
  -6  -4  -6   69.55   27.41
  -6  -4  -6   94.68   48.50
   6   4   7   12.24   12.22
  -6  -4  -7   22.66   19.48
  -6  -4  -7    9.32   10.68
   6   4   8  192.96   62.70
  -6  -4  -8  271.88   51.88
  -6  -4  -8  308.02   32.72
   6   4   9   13.33   15.96
   6   4   9   -5.01   19.64
   6   4  10   52.60   26.30
   6   4  10   77.60   31.38
  -6  -4 -10   59.85   24.80
   6   4  11   34.73   30.25
   6   4  11   69.63   38.88
  -6  -4 -11   31.49   19.47
   6   4  12  158.39   68.37
   6   4  12  190.36   80.56
  -6  -4 -12  210.06   73.13
   6   4  13  338.91   70.56
   6   5 -20   83.00   31.48
  -6  -5  20   67.69   33.52
   6   5 -19  104.97   26.73
  -6  -5  19  121.82   38.56
   6   5 -18  586.68   84.65
  -6  -5  18  511.66   84.75
  -6  -5  18  662.33   41.34
   6   5 -17 1417.62   98.05
  -6  -5  17 1335.65   76.98
  -6  -5  17 1301.74   89.81
   6   5 -16  883.73   51.86
  -6  -5  16  899.38   51.48
  -6  -5  16  824.90   62.23
   6   5 -15  210.24   53.72
  -6  -5  15  150.89   31.59
  -6  -5  15  252.58   67.37
  -6  -5  15  172.12   53.12
   6   5 -14   19.98   24.70
  -6  -5  14   14.39    7.22
  -6  -5  14   32.41   12.64
  -6  -5  14   19.95   12.49
   6   5 -13  194.68   48.80
  -6  -5  13  118.01   32.59
  -6  -5  13  165.44   40.65
   6   5 -12  844.18   40.05
   6   5 -12  782.64   40.86
  -6  -5  12  888.76   62.17
  -6  -5  12  807.20   39.64
   6   5 -11 1369.34   77.45
   6   5 -11 1159.72   77.93
  -6  -5  11 1354.60   64.45
  -6  -5  11 1275.67   54.05
   6   5 -10  165.56   37.02
   6   5 -10  208.06   59.88
  -6  -5  10  162.91   56.68
  -6  -5  10  144.97   27.60
   6   5  -9  386.13   26.50
   6   5  -9  385.79   78.98
  -6  -5   9  325.17   26.32
   6   5  -8  148.63   35.78
   6   5  -8  110.07   30.19
  -6  -5   8  132.24   38.75
   6   5  -7  873.32   50.11
   6   5  -7  859.79   80.79
  -6  -5   7  750.83   41.15
  -6  -5   7  768.34   68.93
  -6  -5   7  832.29   44.23
   6   5  -6 1948.11   77.87
   6   5  -6 2160.55   89.60
  -6  -5   6 1982.08  109.33
  -6  -5   6 1821.76   76.41
   6   5  -5    4.52   13.16
   6   5  -5   -9.72   14.25
  -6  -5   5    3.95    3.52
  -6  -5   5   19.14    7.86
  -6  -5   5    2.52    5.21
   6   5  -4  533.64   55.95
   6   5  -4  419.37   39.06
   6   5  -4  568.10   55.26
  -6  -5   4  506.60   38.14
  -6  -5   4  470.59   46.93
   6   5  -3  835.98   61.62
   6   5  -3  992.14   58.44
  -6  -5   3 1025.36   81.30
  -6  -5   3  885.62   53.64
   6   5  -2 3563.58  136.33
   6   5  -2 3998.63  161.01
  -6  -5   2 3852.33  149.56
  -6  -5   2 3648.01  133.15
   6   5  -1 2411.35   89.26
   6   5  -1 2331.26  112.16
  -6  -5   1 2492.45  103.33
  -6  -5   1 2313.98   84.80
   6   5   0   46.69   15.61
   6   5   0   54.98   29.29
  -6  -5   0   50.50   14.17
  -6  -5   0   57.44   10.98
   6   5   1   24.24   10.25
   6   5   1   32.41   22.47
  -6  -5  -1   53.46   20.47
  -6  -5  -1   31.14    8.61
   6   5   2  942.64   50.07
   6   5   2  848.96   93.73
  -6  -5  -2  955.45   90.27
  -6  -5  -2 1014.13   57.73
   6   5   3  704.66   65.36
  -6  -5  -3  694.57   74.45
  -6  -5  -3  553.58   47.08
   6   5   4 1068.12  109.93
  -6  -5  -4 1063.58   61.34
  -6  -5  -4 1069.57   55.10
   6   5   5  106.80   52.81
  -6  -5  -5   97.67   49.02
   6   5   6   85.22   41.77
  -6  -5  -6  171.52   40.02
  -6  -5  -6   82.12   28.45
   6   5   7  232.73   64.12
  -6  -5  -7  294.96   79.86
  -6  -5  -7  294.49   49.27
   6   5   8  263.04   57.05
  -6  -5  -8  323.48   48.13
   6   5   9   18.64   18.82
   6   5   9   67.63   20.67
  -6  -5  -9   78.83   26.04
   6   5  10  120.75   53.69
   6   5  10  109.00   54.69
  -6  -5 -10  260.42   44.17
   6   5  11  183.50   98.97
  -6  -5 -11  220.20   85.68
   6   5  12  233.95  113.08
  -6  -6  20  151.75   61.41
   6   6 -19   44.20   30.09
  -6  -6  19   49.78   38.07
   6   6 -18  812.77   72.76
  -6  -6  18  737.64   64.68
  -6  -6  18  740.40   40.37
   6   6 -17 1718.56  149.81
  -6  -6  17 1696.11  130.30
   6   6 -16  601.00   59.77
   6   6 -16  619.01   79.96
  -6  -6  16  829.11   65.31
   6   6 -15  169.94   45.66
   6   6 -15  103.03   26.48
  -6  -6  15  112.40   48.63
   6   6 -14   17.63    8.84
   6   6 -14   13.58   10.08
  -6  -6  14   -0.71   14.45
  -6  -6  14    9.73    6.69
   6   6 -13  168.46   54.52
   6   6 -13  112.80   36.01
  -6  -6  13   92.20   28.87
  -6  -6  13  103.23   20.24
   6   6 -12  586.42   52.38
   6   6 -12  579.77   80.41
  -6  -6  12  551.90   46.87
  -6  -6  12  528.09   25.70
   6   6 -11  509.23   47.17
   6   6 -11  602.71   61.51
  -6  -6  11  578.11   34.66
  -6  -6  11  546.58   26.67
   6   6 -10   27.38   22.93
   6   6 -10   10.82   10.51
  -6  -6  10  -16.58   15.82
  -6  -6  10    5.70    4.33
   6   6  -9 1515.93  102.87
   6   6  -9 1472.92   63.98
  -6  -6   9 1485.96  102.25
  -6  -6   9 1366.28   52.03
   6   6  -8 2266.36  145.12
   6   6  -8 2249.64   95.85
  -6  -6   8 2549.57   98.74
  -6  -6   8 2231.78   92.49
   6   6  -7 1356.65   71.59
   6   6  -7 1359.16   70.33
  -6  -6   7 1163.45   94.37
  -6  -6   7 1443.10   67.59
   6   6  -6  267.54   24.77
   6   6  -6  262.27   46.85
  -6  -6   6  345.71   27.63
  -6  -6   6  254.64   17.99
   6   6  -5  104.65   28.23
   6   6  -5  120.61   34.68
  -6  -6   5  102.57   31.92
  -6  -6   5  101.77   23.78
   6   6  -4  112.03   34.46
   6   6  -4  126.25   29.15
  -6  -6   4  118.04   25.99
  -6  -6   4  110.56   19.86
   6   6  -3 2696.68  107.34
   6   6  -3 2918.40  122.71
  -6  -6   3 2481.29  105.34
  -6  -6   3 2592.78   93.44
   6   6  -2 2266.69   87.35
   6   6  -2 2111.85  115.68
  -6  -6   2 2474.67  114.40
  -6  -6   2 2468.48   90.52
   6   6  -1 1290.20   60.87
   6   6  -1 1451.15   62.86
  -6  -6   1 1308.90  102.63
  -6  -6   1 1479.82   64.34
   6   6   0   23.74   14.01
   6   6   0    2.03   14.78
  -6  -6   0   21.72   18.18
  -6  -6   0   15.21   11.98
   6   6   1  217.09   29.44
   6   6   1  266.80   80.83
  -6  -6  -1  246.99   66.89
  -6  -6  -1  277.80   19.93
   6   6   2 1977.63   94.78
  -6  -6  -2 1539.01  131.69
  -6  -6  -2 1592.46   69.53
   6   6   3  813.88   71.23
  -6  -6  -3  952.93   84.28
  -6  -6  -3  728.23   42.46
   6   6   4  587.23  121.29
  -6  -6  -4  646.53   68.71
  -6  -6  -4  581.66   35.14
   6   6   5   36.29   19.27
  -6  -6  -5   26.06   28.35
  -6  -6  -5   72.84   21.81
   6   6   6   13.86    9.32
  -6  -6  -6   35.05   15.19
  -6  -6  -6   12.45   16.55
   6   6   7   27.69   16.16
  -6  -6  -7   72.51   20.18
  -6  -6  -7   49.71   24.55
   6   6   8  188.76   54.90
  -6  -6  -8  162.23   71.86
  -6  -6  -8  129.96   65.76
   6   6   9   18.83   16.89
   6   6   9   18.76   20.40
  -6  -6  -9   18.42   13.38
   6   6  10  168.89   49.88
   6   6  10  194.95   70.98
  -6  -6 -10  170.75   42.64
  -6  -6 -11   47.95   28.09
  -6  -7  20   37.18   16.70
   6   7 -19   94.70   57.35
  -6  -7  19  180.57   65.91
   6   7 -18  334.48   47.11
  -6  -7  18  385.27   49.94
   6   7 -17 2181.03  116.91
   6   7 -17 2052.16  109.10
  -6  -7  17 2028.03  112.97
   6   7 -16  714.20   46.58
   6   7 -16  635.78   59.92
  -6  -7  16  693.05   69.88
   6   7 -15   87.20   34.65
   6   7 -15   56.55   16.55
  -6  -7  15  107.70   43.43
   6   7 -14    8.11   17.17
   6   7 -14   15.34   10.22
  -6  -7  14    0.01   14.59
   6   7 -13  640.83   76.04
   6   7 -13  432.40   29.01
  -6  -7  13  448.08   50.52
  -6  -7  13  491.16   39.00
   6   7 -12  874.87   75.22
   6   7 -12  840.22   54.27
  -6  -7  12  794.10   73.06
  -6  -7  12  849.07   36.71
   6   7 -11  986.75   70.36
   6   7 -11 1050.46   48.75
  -6  -7  11 1125.61   93.57
  -6  -7  11  973.18   43.27
   6   7 -10  439.95   45.10
   6   7 -10  429.05   42.94
  -6  -7  10  488.99   45.42
  -6  -7  10  431.76   17.66
   6   7  -9  692.45   53.94
   6   7  -9  726.03   75.01
  -6  -7   9  791.99   88.86
  -6  -7   9  685.20   30.57
   6   7  -8 1359.56  110.56
   6   7  -8 1265.49   62.17
  -6  -7   8 1463.96   66.32
  -6  -7   8 1322.08   55.28
   6   7  -7    8.67   15.84
   6   7  -7   22.45    8.63
  -6  -7   7   46.58   24.29
  -6  -7   7   29.85   14.73
   6   7  -6  288.32   62.37
   6   7  -6  346.86   30.82
  -6  -7   6  292.99   65.97
  -6  -7   6  259.13   21.71
   6   7  -5  292.31   37.06
   6   7  -5  327.32   29.89
  -6  -7   5  391.62   44.91
  -6  -7   5  360.73   28.66
   6   7  -4  894.94   54.34
   6   7  -4 1011.34  100.39
  -6  -7   4 1126.07   86.81
  -6  -7   4  973.70   54.58
   6   7  -3 1930.53   81.80
  -6  -7   3 1764.34   69.14
  -6  -7   3 1836.09   74.66
   6   7  -2 1184.65   55.77
   6   7  -2 1339.71   64.32
  -6  -7   2 1176.65   52.72
  -6  -7   2 1226.30   55.96
   6   7  -1  149.16   49.64
   6   7  -1  230.76   73.80
  -6  -7   1  197.33   44.90
  -6  -7   1  192.60   48.04
   6   7   0   23.17   14.34
   6   7   0    8.63   24.01
  -6  -7   0   15.98   22.02
  -6  -7   0   11.95   13.78
   6   7   1  555.34   53.75
  -6  -7  -1  469.14   66.16
  -6  -7  -1  409.36   49.05
   6   7   2 1220.32   96.34
  -6  -7  -2 1148.28   67.78
  -6  -7  -2 1201.72   56.42
   6   7   3 1173.07   72.03
  -6  -7  -3 1064.40   72.63
  -6  -7  -3 1101.34   80.32
   6   7   4  227.01   89.64
  -6  -7  -4  225.78   60.63
  -6  -7  -4  208.87   81.58
   6   7   5   -1.95   20.18
  -6  -7  -5    2.08    5.23
  -6  -7  -5   24.42   21.74
   6   7   6  196.34   76.92
  -6  -7  -6  221.09   72.05
  -6  -7  -6  174.10   52.71
   6   7   7  546.60   76.78
  -6  -7  -7  512.99   58.35
  -6  -7  -7  544.43   29.36
   6   7   8   26.31   21.84
  -6  -7  -8    4.53   19.25
  -6  -7  -8   20.21   25.52
   6   7   9   36.30   31.26
   6   7   9   10.41   23.83
  -6  -7  -9   15.75   21.21
  -6  -7 -10   10.08    8.33
  -6  -8  19  129.91   70.40
   6   8 -18  812.32   91.01
  -6  -8  18  977.41   67.52
   6   8 -17 1679.05   98.02
  -6  -8  17 1975.60  114.53
   6   8 -16  488.00   40.57
   6   8 -16  430.43   35.40
  -6  -8  16  372.20   54.47
   6   8 -15  167.64   49.00
   6   8 -15  193.85   52.30
  -6  -8  15  153.82   51.79
   6   8 -14   44.07   14.04
   6   8 -14   85.49   23.69
  -6  -8  14  100.57   28.88
   6   8 -13  986.12   79.10
   6   8 -13  906.03   66.13
  -6  -8  13  915.81   84.74
   6   8 -12 1502.31   68.54
   6   8 -12 1537.44   69.63
  -6  -8  12 1601.06   70.25
  -6  -8  12 1407.65   67.87
   6   8 -11  567.26   50.41
   6   8 -11  634.60   45.66
  -6  -8  11  551.89   40.24
  -6  -8  11  574.49   25.09
   6   8 -10   41.73   14.61
  -6  -8  10   14.84   15.12
  -6  -8  10    5.80    7.12
   6   8  -9   53.09   21.68
   6   8  -9   18.00   18.11
  -6  -8   9   23.01   16.74
  -6  -8   9   63.06   22.17
   6   8  -8   64.83   25.71
   6   8  -8  103.66   34.08
  -6  -8   8  113.24   24.66
  -6  -8   8   69.90   21.69
   6   8  -7  904.07   56.98
   6   8  -7  773.21   73.04
  -6  -8   7  834.22   53.13
  -6  -8   7  746.41   39.93
   6   8  -6   27.91    9.94
   6   8  -6   35.70   17.95
  -6  -8   6    5.32   19.68
  -6  -8   6   26.61    9.50
   6   8  -5  853.97   50.92
   6   8  -5  742.42   68.74
  -6  -8   5  760.87   71.50
  -6  -8   5  901.78   38.30
   6   8  -4  613.17   69.27
   6   8  -4  514.96   38.24
  -6  -8   4  535.97   57.68
  -6  -8   4  442.10   23.55
   6   8  -3 1670.98   91.05
   6   8  -3 1716.53   88.51
  -6  -8   3 1766.61   86.91
  -6  -8   3 1743.04   65.64
   6   8  -2 1155.13   70.52
   6   8  -2 1128.83   91.54
  -6  -8   2 1060.56   60.47
  -6  -8   2 1019.73   50.80
   6   8  -1   36.60   18.35
   6   8  -1   54.32   21.69
  -6  -8   1   38.16   32.28
  -6  -8   1   29.07   10.96
   6   8   0  148.72   42.54
   6   8   0  251.24   82.52
  -6  -8   0  216.15   60.12
  -6  -8   0  135.29   52.06
   6   8   1  674.04   68.81
  -6  -8  -1  536.47   60.44
  -6  -8  -1  695.73   32.23
   6   8   2  888.40   81.60
  -6  -8  -2  822.96   59.80
  -6  -8  -2  866.72   50.64
   6   8   3 2629.15  161.55
  -6  -8  -3 2547.23  168.22
  -6  -8  -3 2624.12  158.06
   6   8   4 1508.62  158.13
  -6  -8  -4 1686.45   97.81
  -6  -8  -4 1698.65   95.63
   6   8   5  133.34   52.67
  -6  -8  -5  120.93   33.26
  -6  -8  -5  130.68   47.75
   6   8   6  160.92   63.06
  -6  -8  -6  182.51   63.40
  -6  -8  -6  108.53   30.60
   6   8   7  316.14   47.36
  -6  -8  -7  359.73   59.21
  -6  -8  -8   93.99   44.08
  -6  -8  -9   76.29   50.29
  -6  -9  18  239.71   98.71
   6   9 -17  654.34   54.08
  -6  -9  17  680.64   79.19
   6   9 -16   99.14   67.39
  -6  -9  16  160.41   40.85
   6   9 -15   58.75   32.95
   6   9 -15   27.75   18.53
  -6  -9  15   31.25   15.30
   6   9 -14   28.62   13.42
   6   9 -14   40.67   16.49
   6   9 -13  742.76   45.55
   6   9 -13  844.52   54.50
  -6  -9  13  837.57   88.82
   6   9 -12  902.15   51.50
   6   9 -12  889.27   49.13
  -6  -9  12  980.49   59.11
   6   9 -11  109.06   43.66
   6   9 -11  100.13   37.46
  -6  -9  11  115.18   64.12
  -6  -9  11   55.28   18.09
   6   9 -10   23.44   15.88
  -6  -9  10   55.08   27.10
  -6  -9  10   32.84   16.15
   6   9  -9   11.74   14.41
   6   9  -9   16.45   11.49
  -6  -9   9   14.46   10.47
   6   9  -8  150.37   54.43
  -6  -9   8  183.00   53.63
  -6  -9   8  141.74   40.24
   6   9  -7  240.23   59.16
   6   9  -7  206.40   52.03
  -6  -9   7  221.03   59.85
  -6  -9   7  212.32   33.98
   6   9  -6   54.60   26.98
   6   9  -6   88.73   23.47
  -6  -9   6   51.58   32.28
  -6  -9   6   88.74   22.94
   6   9  -5  207.09   45.05
   6   9  -5  193.19   82.89
  -6  -9   5  249.43   68.13
  -6  -9   5  172.82   49.23
   6   9  -4  160.42   50.95
   6   9  -4  199.62   72.08
  -6  -9   4  170.19   46.43
  -6  -9   4  199.36   50.47
   6   9  -3  715.40   54.39
   6   9  -3  665.80  105.98
  -6  -9   3  635.37   82.00
  -6  -9   3  682.89   34.34
   6   9  -2  874.41   37.52
   6   9  -2  938.80   88.62
  -6  -9   2  821.43   85.50
  -6  -9   2  850.45   42.71
   6   9  -1    8.70    6.02
   6   9  -1   28.98   25.42
  -6  -9   1   13.13    9.31
  -6  -9   1   13.61   11.04
   6   9   0  309.68   75.61
  -6  -9   0  362.62   44.43
  -6  -9   0  287.24   48.16
   6   9   1  691.18   72.19
  -6  -9  -1  732.68   79.39
  -6  -9  -1  703.07   37.76
   6   9   2  589.68   67.00
  -6  -9  -2  660.10   69.79
   6   9   3 1858.17  111.66
  -6  -9  -3 1803.25  123.97
  -6  -9  -3 1790.95  103.96
   6   9   4  266.19   77.77
  -6  -9  -4  356.42   86.71
  -6  -9  -4  348.86   45.33
   6   9   5   23.49   20.93
  -6  -9  -5    1.00   19.09
  -6  -9  -5   23.10   13.78
   6   9   6   24.28   23.12
  -6  -9  -6   24.05   24.43
  -6  -9  -6    9.99   19.24
  -6  -9  -7   86.88   57.77
  -6  -9  -7   98.13   66.47
   6  10 -18  272.90  110.73
  -6 -10  18  423.47   55.05
   6  10 -17  421.52   54.65
  -6 -10  17  346.79  114.04
   6  10 -16  124.18   63.66
  -6 -10  16  105.63   58.27
   6  10 -15   25.05   14.15
  -6 -10  15   22.68   18.51
   6  10 -14  362.41   44.90
  -6 -10  14  477.99   42.77
   6  10 -13  194.77   68.48
   6  10 -13  217.93   72.05
  -6 -10  13  243.43   92.65
   6  10 -12 1784.11  109.58
   6  10 -12 1668.90   96.62
  -6 -10  12 1793.14  117.90
   6  10 -11  973.26   58.32
   6  10 -11 1088.76   61.76
  -6 -10  11  866.69   89.07
   6  10 -10   75.97   18.36
   6  10 -10   71.66   17.77
  -6 -10  10  100.63   25.18
  -6 -10  10   43.09   25.12
   6  10  -9    9.95   22.47
   6  10  -9    7.06    9.43
  -6 -10   9   11.30   13.95
   6  10  -8  289.36   38.74
   6  10  -8  288.88   69.06
  -6 -10   8  255.89   76.74
  -6 -10   8  204.90   28.38
   6  10  -7  428.84   69.08
  -6 -10   7  484.93   51.93
  -6 -10   7  448.44   20.00
   6  10  -6   52.26   28.50
   6  10  -6   62.36   24.92
  -6 -10   6   51.55   30.55
  -6 -10   6   62.55   16.32
   6  10  -5   48.40   27.02
   6  10  -5   42.13   24.08
  -6 -10   5   27.97   14.86
  -6 -10   5   61.54   16.07
   6  10  -4   29.74   16.44
   6  10  -4   23.77   31.14
  -6 -10   4   17.56   19.15
  -6 -10   4   17.30    7.68
   6  10  -3  155.28   50.73
   6  10  -3  235.29   83.26
  -6 -10   3  250.55   57.00
  -6 -10   3  224.36   58.78
   6  10  -2  339.73   58.62
   6  10  -2  323.97   51.12
  -6 -10   2  215.97   69.35
  -6 -10   2  248.99   58.66
   6  10  -1   24.19   15.43
  -6 -10   1    3.35   15.07
  -6 -10   1    2.87    9.71
   6  10   0   11.33   16.06
  -6 -10   0   20.48    9.72
   6  10   1  450.14   60.70
  -6 -10  -1  510.08   43.33
  -6 -10  -1  318.24   59.43
   6  10   2   81.57   38.25
  -6 -10  -2   89.46   37.11
  -6 -10  -2   89.10   30.88
   6  10   3  359.33   60.92
  -6 -10  -3  268.51   80.18
  -6 -10  -3  323.52   48.51
   6  10   4   24.00   24.39
  -6 -10  -4    2.56   11.49
  -6 -10  -4   25.59   23.01
  -6 -10  -5  117.40   44.36
  -6 -10  -5  141.97   52.68
  -6 -10  -6   21.84   17.94
  -6 -10  -6   48.60   27.65
   6  11 -17  339.71   40.66
  -6 -11  17  197.08   91.44
   6  11 -16  285.25  107.11
  -6 -11  16  248.21   96.56
   6  11 -15   54.59   30.97
  -6 -11  15   43.45   20.03
   6  11 -14 1098.78   69.76
  -6 -11  14 1174.50   74.89
   6  11 -13  701.85   88.71
   6  11 -13  698.74   51.54
  -6 -11  13  643.56   58.30
   6  11 -12 2033.88  116.18
   6  11 -12 1769.11  118.51
  -6 -11  12 1917.95  104.20
   6  11 -11  545.23   61.58
   6  11 -11  570.58   88.16
  -6 -11  11  456.79   59.36
   6  11 -10   48.28   33.13
   6  11 -10   18.53   20.06
  -6 -11  10   61.72   22.36
   6  11  -9   95.61   28.22
  -6 -11   9   83.69   24.87
  -6 -11   9   61.29   17.70
   6  11  -8  193.10   71.62
   6  11  -8  182.01   93.64
  -6 -11   8  235.88   78.89
  -6 -11   8  248.54   53.83
   6  11  -7  898.70   69.58
   6  11  -7  962.60   67.25
  -6 -11   7  887.69  107.45
  -6 -11   7  919.57   65.86
   6  11  -6  286.15   58.78
   6  11  -6  293.01   92.80
  -6 -11   6  326.54   42.16
  -6 -11   6  292.81   46.25
   6  11  -5   15.30   17.66
   6  11  -5   39.97   31.38
  -6 -11   5   39.54   11.84
  -6 -11   5   21.48    8.11
   6  11  -4  253.75   55.54
   6  11  -4  297.82   68.83
  -6 -11   4  157.91   61.10
  -6 -11   4  243.38   52.62
   6  11  -3   46.58   25.76
   6  11  -3   68.68   33.91
  -6 -11   3   49.83   31.70
  -6 -11   2  152.11   54.92
  -6 -11   2  321.13   35.75
   6  11  -1   42.74   31.73
  -6 -11   1   18.77   13.95
  -6 -11   1   49.33   14.74
   6  11   0   97.22   43.35
  -6 -11   0   73.90   38.10
   6  11   1  118.89   50.86
  -6 -11  -1  156.69   37.26
  -6 -11  -1  164.69   61.19
   6  11   2  335.18   52.90
  -6 -11  -2  331.05   51.23
  -6 -11  -2  201.53   64.38
   6  11   3  173.70  114.50
  -6 -11  -3  156.28   66.10
  -6 -11  -3  208.24   70.04
  -6 -11  -4   46.46   28.01
  -6 -12  16   99.18   52.91
   6  12 -15    7.16   26.33
  -6 -12  15   11.48   15.54
   6  12 -14  225.23   69.92
  -6 -12  14  286.40   60.21
   6  12 -13 1546.69   72.19
  -6 -12  13 1597.89   79.00
   6  12 -12 2228.98  102.91
   6  12 -12 2123.30   97.68
  -6 -12  12 2282.30   78.37
   6  12 -11  100.27   35.08
   6  12 -11  117.17   44.85
  -6 -12  11  137.86   43.20
   6  12 -10   26.48   20.80
   6  12 -10   41.63   25.18
  -6 -12  10   28.33   16.01
   6  12  -9  106.84   35.60
   6  12  -9   72.43   27.26
  -6 -12   9   97.71   38.44
   6  12  -8  245.76   80.87
   6  12  -8  290.87   98.59
  -6 -12   8  205.87   69.34
   6  12  -7  464.46   52.37
   6  12  -7  487.19   96.76
  -6 -12   7  428.17   67.08
  -6 -12   7  348.77   55.43
   6  12  -6  240.51   86.44
   6  12  -6  240.64   80.07
  -6 -12   6  301.63   40.03
  -6 -12   6  229.76   50.09
   6  12  -5   21.76    9.18
   6  12  -5   16.97   22.88
  -6 -12   5   24.35   14.10
  -6 -12   5   18.77   18.21
   6  12  -4  356.26   66.22
   6  12  -4  424.13   77.09
  -6 -12   4  288.60   91.80
  -6 -12   4  458.47   27.13
   6  12  -3   22.09   19.57
  -6 -12   3   -5.29   12.16
  -6 -12   3   29.48   13.04
   6  12  -2   91.25   28.29
  -6 -12   2   62.37   30.32
  -6 -12   2   83.54   26.67
   6  12  -1   12.87   15.94
  -6 -12   1   35.29   27.79
  -6 -12   1   16.97   11.55
   6  12   0  130.34   53.33
  -6 -12   0   64.09   30.52
  -6 -12   0   86.15   35.20
   6  12   1  104.49   53.60
  -6 -12  -1   98.93   31.84
  -6 -12  -1   90.13   26.66
  -6 -12  -3  295.85   82.34
  -6 -12  -3  299.50   55.52
  -6 -12  -4    6.10   10.29
   6  13 -14  139.49   83.63
  -6 -13  14  121.83   49.70
   6  13 -13  300.52  127.05
  -6 -13  13  489.29   77.95
   6  13 -12  441.59   62.99
  -6 -13  12  334.32  109.47
   6  13 -11  325.41   55.50
  -6 -13  11  362.81   40.78
   6  13 -10   58.90   34.11
   6  13 -10   25.89   13.54
  -6 -13  10   46.98   34.80
   6  13  -9  184.60   89.09
   6  13  -9  181.09   98.16
  -6 -13   9  176.24   64.35
   6  13  -8  422.01   62.08
   6  13  -8  429.46   70.98
  -6 -13   8  444.69   69.68
   6  13  -7  496.44   35.99
   6  13  -7  455.04   41.83
  -6 -13   7  512.23   98.24
   6  13  -6  187.26   69.92
   6  13  -6  307.44   49.07
  -6 -13   6  234.12   40.35
   6  13  -5   15.27   14.62
   6  13  -5   12.30   17.32
  -6 -13   5   27.35   12.44
   6  13  -4   38.64   25.85
  -6 -13   4   12.14   16.41
  -6 -13   4   43.31   23.76
  -6 -13   3    7.83   13.76
   6  13  -2   12.61   10.56
  -6 -13   2    6.59   14.78
  -6 -13   0   10.20    8.32
  -6 -13   0    7.61    8.51
  -6 -13  -1  247.73   42.84
   6  14 -12   85.73   78.29
   6  14 -11  152.51   75.06
  -6 -14  11  111.54   83.15
   6  14 -10    4.92   14.80
   6  14 -10    4.67   13.80
   6  14  -9   80.13   37.17
   6  14  -8  480.14   85.13
   6  14  -8  492.18   66.84
  -6 -14   8  607.20  104.51
   6  14  -7  595.51   93.99
   6  14  -7  602.97   94.11
  -6 -14   7  599.53   88.28
   6  14  -6   35.96   30.72
   6  14  -6   35.76   13.76
  -6 -14   6   44.35   30.29
   6  14  -5   70.67   36.64
  -6 -14   5   89.67   31.06
  -6 -14   4  108.71   69.51
   6  14  -3  117.42   60.11
  -6 -14   3  112.75   57.48
  -6 -14   2  122.97   49.95
   6  15  -9   76.08   55.13
   6  15  -8  606.60   66.53
   6  15  -7  621.70   82.90
   6  15  -6   19.99   23.35
   7 -17  -2   61.89   33.59
   7 -17  -1    1.29   12.38
   7 -17   0   12.94   13.17
   7 -17   2  760.57   63.65
   7 -17   3 1220.84  101.68
  -7  17  -3 1074.85   82.46
   7 -17   4  360.67   56.81
  -7  17  -4  247.30  112.62
   7 -17   5   37.22   21.19
  -7  17  -5   26.17   20.27
   7 -17   6  331.91   45.76
  -7  17  -6  170.07   97.86
   7 -17   7  985.85  109.62
  -7  17  -7  937.00  122.21
  -7  17  -8 1525.30  108.11
   7 -17   9  138.23   78.44
  -7  17  -9   90.37   45.76
  -7  17 -10   17.56   13.43
  -7  17 -11  123.16   67.09
   7 -16  -5   30.16   22.36
  -7  16   5   22.55   17.24
   7 -16  -4  126.36   68.06
  -7  16   4  110.81   63.30
   7 -16  -2   35.14   21.85
   7 -16  -2   30.31   16.94
  -7  16   2   24.42   16.30
   7 -16  -1   41.63   27.91
   7 -16  -1   26.61   24.69
  -7  16   1   37.26   19.55
   7 -16   0   38.08   22.75
   7 -16   0    6.44   16.65
   7 -16   1  291.50   78.88
  -7  16  -1  376.27  121.22
   7 -16   2  867.98   49.47
  -7  16  -2  892.80   77.27
   7 -16   3  741.24   49.16
  -7  16  -3  818.23   84.41
   7 -16   4   -4.26   16.78
  -7  16  -4   14.31   15.66
   7 -16   5   21.69   23.15
  -7  16  -5    2.07   11.19
   7 -16   6   83.28   49.18
  -7  16  -6   97.86   44.19
   7 -16   7  389.39   64.86
  -7  16  -7  277.91   27.56
   7 -16   8  762.19   45.07
  -7  16  -8  814.91   39.93
   7 -16   9   74.23   42.79
  -7  16  -9   72.41   47.09
   7 -16  10   22.53   24.07
  -7  16 -10   19.83   12.18
  -7  16 -11   25.98   28.33
  -7  16 -12  237.57  126.28
   7 -15  -7 2591.61  168.93
   7 -15  -6   78.94   27.23
   7 -15  -5   30.95   24.59
   7 -15  -5   29.86   21.64
   7 -15  -4   20.52   14.48
   7 -15  -3  490.15   75.57
   7 -15  -3  585.79   39.28
  -7  15   3  425.46   59.55
   7 -15  -2  617.36   87.84
   7 -15  -2  659.81   44.41
  -7  15   2  725.68   51.01
   7 -15  -1  224.17   49.77
   7 -15  -1  161.09   51.38
  -7  15   1  162.21   46.23
   7 -15   0   13.49   12.67
   7 -15   0    3.05   10.81
  -7  15   0    6.38    5.63
   7 -15   1  424.94   54.85
  -7  15  -1  387.73   95.90
  -7  15  -1  301.62   55.65
   7 -15   2  172.90   65.25
  -7  15  -2  227.42   65.12
   7 -15   3  353.76  106.79
  -7  15  -3  392.41  115.99
   7 -15   4   22.74   17.80
  -7  15  -4    7.87   13.95
   7 -15   5  115.10   55.02
  -7  15  -5  122.92   46.27
   7 -15   6  999.29   66.41
  -7  15  -6  921.44   86.30
   7 -15   7  284.82  103.20
  -7  15  -7  393.57   46.47
   7 -15   8  929.03   58.01
  -7  15  -8  796.31   88.51
  -7  15  -9  394.82   73.64
   7 -15  10   34.18   27.48
   7 -15  11   16.83   16.63
  -7  15 -11   25.41   17.00
   7 -15  12   64.09   52.67
  -7  15 -12   43.08   36.32
   7 -14  -9  627.94   64.48
   7 -14  -8 2454.57  160.24
  -7  14   8 2430.20  181.43
   7 -14  -7  866.03  126.45
   7 -14  -7  899.13   69.99
  -7  14   7  802.55   61.07
   7 -14  -6  867.91   58.77
   7 -14  -6 1073.81   71.62
  -7  14   6  945.67   62.67
   7 -14  -5   31.15   30.02
   7 -14  -5   49.30   32.92
  -7  14   5   23.52   24.22
   7 -14  -4  348.10   89.04
   7 -14  -4  294.29   58.22
  -7  14   4  220.31   85.58
   7 -14  -3  544.44   74.27
   7 -14  -3  512.92   53.10
  -7  14   3  600.44   32.32
   7 -14  -2 1224.99   75.57
   7 -14  -2 1138.06   35.87
  -7  14   2 1193.18   78.34
   7 -14  -1  132.96   61.39
   7 -14  -1  221.28   50.59
  -7  14   1  171.85   60.78
   7 -14   0   17.04   18.42
   7 -14   0   19.37   18.04
  -7  14   0   15.21   13.40
   7 -14   1  256.17   88.57
  -7  14  -1  302.02   83.53
  -7  14  -1  248.17   58.80
   7 -14   2  164.24   58.18
  -7  14  -2  167.84   56.01
  -7  14  -2  121.90   31.86
   7 -14   3  338.12  105.32
  -7  14  -3  289.90   83.24
   7 -14   4    4.85   16.87
  -7  14  -4   17.06   27.04
   7 -14   5   89.71   35.48
  -7  14  -5   53.24   39.85
   7 -14   6  501.81   36.44
  -7  14  -6  427.98   87.75
   7 -14   7 1901.03  109.12
  -7  14  -7 1823.77  153.59
   7 -14   8  840.01   95.18
  -7  14  -8 1058.55   54.19
   7 -14   9  161.72   42.00
  -7  14  -9  169.05   57.12
   7 -14  10   46.10   24.19
  -7  14 -10   83.13   32.10
   7 -14  11  450.46   53.25
  -7  14 -11  377.11   54.44
   7 -14  12  789.22   73.72
  -7  14 -12  720.98   42.99
   7 -14  13  207.92   84.75
   7 -13 -10   14.69    6.68
   7 -13  -9  442.64   74.00
   7 -13  -9  369.33   48.22
  -7  13   9  379.78   53.51
   7 -13  -8  218.12   79.86
   7 -13  -8  207.17   34.15
  -7  13   8  168.17   51.75
   7 -13  -7  242.81   75.90
   7 -13  -7  315.06   68.14
  -7  13   7  312.65   40.44
   7 -13  -6  756.64   44.97
   7 -13  -6  767.41   33.63
  -7  13   6  710.77   32.95
   7 -13  -5   33.08   16.93
   7 -13  -5   19.79    8.55
  -7  13   5   47.14   29.10
   7 -13  -4   55.99   22.84
   7 -13  -4   11.37   19.59
  -7  13   4   22.68   16.64
   7 -13  -3  493.81   54.67
   7 -13  -3  392.78   59.16
  -7  13   3  513.16   40.15
   7 -13  -2  449.77  100.70
   7 -13  -2  437.53   49.06
  -7  13   2  531.03   59.61
   7 -13  -1  560.75   67.38
   7 -13  -1  463.80   52.27
  -7  13   1  423.91   72.37
   7 -13   0   54.37   22.21
   7 -13   0   26.59   20.65
  -7  13   0   35.37   11.50
   7 -13   1  223.56   64.91
  -7  13  -1  257.97   71.92
  -7  13  -1  239.80   52.81
   7 -13   2  370.04   56.42
  -7  13  -2  412.98   91.63
  -7  13  -2  377.77   52.40
   7 -13   3   17.64   26.31
  -7  13  -3   21.62   16.83
  -7  13  -3   17.11    9.53
   7 -13   4  107.97   43.06
  -7  13  -4   82.55   28.72
   7 -13   5  420.52   88.10
  -7  13  -5  326.48   67.30
   7 -13   6 1069.20   95.34
  -7  13  -6  921.00   96.46
   7 -13   7 1345.82   82.21
  -7  13  -7 1334.98   85.70
   7 -13   8  435.00   77.62
  -7  13  -8  574.69   70.13
   7 -13   9  219.97   61.88
   7 -13  10  224.37   74.84
  -7  13 -10  266.53   29.03
   7 -13  11  926.30   60.80
  -7  13 -11  865.33   47.80
   7 -13  12  924.35   50.58
   7 -13  13  224.19   75.99
   7 -12 -11   25.58   12.36
   7 -12 -10   31.05   18.62
   7 -12 -10   16.81   14.37
  -7  12  10   30.54   20.74
   7 -12  -9  382.01   66.07
   7 -12  -9  315.71   30.88
  -7  12   9  379.73   50.10
   7 -12  -8 1305.73   88.21
   7 -12  -8 1306.01   81.07
  -7  12   8 1333.30   80.17
   7 -12  -7  189.98   69.65
   7 -12  -7  168.73   45.74
  -7  12   7  126.79   43.49
   7 -12  -6  575.93   62.47
   7 -12  -6  486.59   21.79
  -7  12   6  512.16   56.50
   7 -12  -5  145.04   30.83
  -7  12   5   92.57   37.89
   7 -12  -4   87.35   41.09
   7 -12  -4   69.26   19.54
  -7  12   4   91.01   27.48
   7 -12  -3  861.38   56.68
   7 -12  -3  754.33   37.60
  -7  12   3  803.08   77.53
   7 -12  -2 1022.83   69.73
   7 -12  -2 1059.01   91.31
  -7  12   2 1066.43   76.23
   7 -12  -1  462.50   44.19
   7 -12  -1  529.07   53.44
  -7  12   1  484.54   29.38
   7 -12   0  420.08   40.51
   7 -12   0  287.88   77.53
  -7  12   0  357.27   46.82
   7 -12   1  128.81   43.71
  -7  12  -1  119.29   32.35
  -7  12  -1   67.45   22.15
   7 -12   2 1861.02   88.49
  -7  12  -2 1885.46   85.02
  -7  12  -2 1913.64   74.77
  -7  12  -3  825.63   43.77
  -7  12  -3  773.93   34.52
   7 -12   4  275.61   33.36
  -7  12  -4  233.96   63.89
  -7  12  -4  235.98   18.94
   7 -12   5   47.47   45.35
  -7  12  -5   95.11   32.81
   7 -12   6  506.88   72.89
  -7  12  -6  457.74   56.28
   7 -12   7  651.08   31.72
  -7  12  -7  632.08   44.66
   7 -12   8  222.83   31.23
  -7  12  -8  211.50   56.30
   7 -12   9  108.07   52.94
  -7  12  -9   97.11   38.16
   7 -12  10  246.93   34.51
   7 -12  10  255.10   80.95
  -7  12 -10  233.76   71.61
   7 -12  11  620.05   57.55
   7 -12  11  537.10   59.92
  -7  12 -11  666.70   40.92
   7 -12  12  786.80   52.52
   7 -12  12  755.94   63.90
   7 -12  13  289.46   43.97
   7 -12  13  245.10   47.88
   7 -12  14   10.98    7.73
   7 -12  14   10.20   15.17
   7 -11 -11   12.02   19.26
   7 -11 -11    9.63   14.70
   7 -11 -10   78.30   24.46
   7 -11 -10   48.01   15.59
  -7  11  10   23.71   28.16
   7 -11  -9  706.54   97.72
   7 -11  -9  601.65   74.87
  -7  11   9  768.49   46.01
   7 -11  -8 1131.16   60.40
   7 -11  -8 1063.32   59.65
  -7  11   8 1121.54   56.97
   7 -11  -7  466.38   86.64
   7 -11  -7  357.28   34.15
  -7  11   7  400.64   93.59
   7 -11  -6  163.90   28.75
   7 -11  -6  100.66   37.47
  -7  11   6   93.67   43.02
   7 -11  -5  503.27   64.95
   7 -11  -5  464.04   48.82
  -7  11   5  475.97   25.29
   7 -11  -4  743.34   74.42
   7 -11  -4  669.41   32.79
  -7  11   4  687.17   31.95
   7 -11  -3 1900.24   88.83
   7 -11  -3 1864.59   78.43
  -7  11   3 1889.18   79.51
   7 -11  -2 1043.12   54.18
   7 -11  -2 1018.36   52.26
  -7  11   2 1007.12   51.20
   7 -11  -1  162.23   29.66
   7 -11  -1  166.57   36.31
  -7  11   1  115.13   26.92
   7 -11   0  154.54   43.61
   7 -11   0  126.81   48.93
  -7  11   0  182.64   47.89
   7 -11   1  356.51   34.01
  -7  11  -1  369.37   38.80
   7 -11   2 1117.33   96.58
  -7  11  -2 1130.24   72.86
  -7  11  -2 1120.38   71.48
   7 -11   3  126.86   33.92
  -7  11  -3  143.51   35.56
  -7  11  -3  137.13   33.30
   7 -11   4  421.65   39.15
  -7  11  -4  367.54   47.04
  -7  11  -4  377.06   36.61
   7 -11   5   26.36   15.77
  -7  11  -5   31.43   16.20
  -7  11  -5    3.77    6.16
   7 -11   6  627.92   38.76
   7 -11   6  580.83   56.10
  -7  11  -6  680.07   34.09
   7 -11   7 1796.54   95.80
   7 -11   7 1778.63  109.73
  -7  11  -7 1778.55  105.06
   7 -11   8  241.53   44.67
   7 -11   8  362.00   90.11
  -7  11  -8  301.26   49.11
   7 -11   9  -11.04    9.55
   7 -11   9   13.22   14.13
  -7  11  -9   12.06   13.44
   7 -11  10   41.43   22.07
   7 -11  10   43.78   21.86
  -7  11 -10   26.06   14.21
   7 -11  11 1232.23  130.34
   7 -11  11 1333.25   76.47
   7 -11  12 1967.93  113.60
   7 -11  12 1918.42  115.90
   7 -11  13  608.24   62.32
   7 -11  13  625.31   46.64
   7 -11  14    9.97   19.86
   7 -11  15   28.56   26.62
  -7  11 -15   52.39   24.77
   7 -10 -12   86.75   48.83
   7 -10 -12   65.41   40.50
   7 -10 -11   22.09    7.28
   7 -10 -11   13.91    8.84
  -7  10  11   17.86   18.47
   7 -10 -10   97.25   33.42
   7 -10 -10   41.04   28.19
  -7  10  10   34.41   29.45
   7 -10  -9  675.00   62.26
   7 -10  -9  838.38   58.74
  -7  10   9  871.50   61.92
   7 -10  -8  942.60   55.49
   7 -10  -8  736.52   63.62
  -7  10   8  824.91   51.16
   7 -10  -7  625.28   50.62
   7 -10  -7  572.00   44.86
  -7  10   7  527.81   59.07
   7 -10  -6  104.80   14.32
   7 -10  -6   90.77   20.72
  -7  10   6  118.23   70.79
   7 -10  -5   16.55   20.33
   7 -10  -5   31.87   14.44
  -7  10   5   33.22   19.56
   7 -10  -4  491.52   61.11
   7 -10  -4  450.83   41.41
  -7  10   4  425.85   41.98
   7 -10  -3  867.73   41.48
   7 -10  -3  785.75   41.05
  -7  10   3  723.42   42.99
   7 -10  -2  663.72   63.89
   7 -10  -2  750.31   42.56
  -7  10   2  708.73   31.88
   7 -10  -1  436.41   42.53
   7 -10  -1  458.33   40.48
  -7  10   1  530.78   26.69
   7 -10   0  113.84   29.88
   7 -10   0   72.74   14.74
  -7  10   0   78.75   18.61
   7 -10   1  269.75   31.23
   7 -10   1  321.25   31.85
  -7  10  -1  253.42   36.18
   7 -10   2  305.28   33.03
  -7  10  -2  352.95   39.83
  -7  10  -2  291.68   47.36
   7 -10   3    4.95    6.00
   7 -10   3    9.16   12.55
  -7  10  -3   10.94   10.29
  -7  10  -3    9.46    7.55
   7 -10   4  174.49   30.82
  -7  10  -4  169.87   42.21
  -7  10  -4  177.49   47.30
   7 -10   5    6.17   12.84
  -7  10  -5    9.76   12.83
   7 -10   6  432.10   31.90
   7 -10   6  534.56   40.35
   7 -10   6  434.12   22.05
  -7  10  -6  518.68   55.83
   7 -10   7  832.82   76.51
   7 -10   7  975.48   57.52
  -7  10  -7  968.89   51.46
   7 -10   8  142.40   42.58
   7 -10   8  143.40   61.36
  -7  10  -8  167.38   52.94
   7 -10   9  170.68   66.63
   7 -10   9  178.19   57.32
  -7  10  -9  148.92   50.45
   7 -10  10   63.21   27.52
   7 -10  10   64.94   31.46
  -7  10 -10   43.38   25.44
   7 -10  11  333.80   53.76
   7 -10  11  418.35   80.75
   7 -10  12 1832.99  101.95
  -7  10 -12 1495.95  161.95
   7 -10  13 1447.62   85.15
  -7  10 -13 1652.51  106.90
  -7  10 -14   49.83   24.55
   7 -10  15   23.87   22.62
  -7  10 -15   17.94   20.59
   7 -10  16  207.99  106.19
   7  -9 -14  115.91   67.66
  -7   9  13   66.39   33.38
   7  -9 -12  273.34   73.19
   7  -9 -12  202.37   51.00
  -7   9  12  146.42   85.12
   7  -9 -11   12.10   12.85
  -7   9  11   15.07   16.27
   7  -9 -10  177.38   68.13
   7  -9 -10  133.16   43.86
  -7   9  10  158.09   63.39
   7  -9  -9  243.25   85.43
   7  -9  -9  307.82   37.25
  -7   9   9  335.62   46.40
   7  -9  -8 1609.65   95.98
   7  -9  -8 1484.24   86.27
  -7   9   8 1595.44   99.79
   7  -9  -7  478.15   50.18
   7  -9  -7  507.40   36.73
  -7   9   7  471.16   96.04
   7  -9  -6   96.02   16.57
   7  -9  -6   70.63   15.97
  -7   9   6  114.62   40.03
   7  -9  -5   14.26   14.84
   7  -9  -5   15.52   11.94
  -7   9   5   48.57   19.05
   7  -9  -4 1244.11   57.94
   7  -9  -4 1116.92   50.70
  -7   9   4 1117.63   50.16
   7  -9  -3 1872.72   91.34
   7  -9  -3 1893.32   68.59
  -7   9   3 1874.79   67.21
   7  -9  -2 1947.17   78.10
   7  -9  -2 1944.90   89.99
  -7   9   2 1998.63   58.96
   7  -9  -1  675.32   51.24
   7  -9  -1  672.32   39.59
  -7   9   1  605.75   34.12
   7  -9   0    0.59   17.31
   7  -9   0   20.06   14.58
  -7   9   0   20.58   11.13
   7  -9   1  626.06   68.88
   7  -9   1  518.81   52.92
   7  -9   1  511.06   20.85
  -7   9  -1  518.10   24.71
   7  -9   2  331.77   71.44
   7  -9   2  313.96   39.71
   7  -9   2  279.37   12.10
  -7   9  -2  312.49   23.25
   7  -9   3 1283.84   49.55
   7  -9   3 1200.98   63.13
  -7   9  -3 1199.58   51.93
  -7   9  -3 1280.91   53.07
   7  -9   4  964.07   62.03
   7  -9   4  945.42   59.40
  -7   9  -4 1028.89   57.28
  -7   9  -4  942.60   50.81
   7  -9   5   13.97    8.31
   7  -9   5    3.43   12.70
   7  -9   5    4.02    4.90
  -7   9  -5   -0.81    8.46
   7  -9   6  277.88   26.87
   7  -9   6  269.66   46.96
   7  -9   6  249.56   23.57
  -7   9  -6  284.39   41.71
   7  -9   7 1139.91   80.87
   7  -9   7 1195.64   94.79
  -7   9  -7 1159.69   77.75
   7  -9   8  212.16   56.02
   7  -9   8  239.98   42.04
  -7   9  -8  277.86   31.78
   7  -9   9   20.42    8.26
  -7   9  -9    1.94    7.48
   7  -9  10   11.92   10.46
  -7   9 -10   18.90   19.56
  -7   9 -10   12.37   10.15
   7  -9  11  424.61   61.85
  -7   9 -11  463.96   54.56
   7  -9  12  344.70   45.27
  -7   9 -12  372.44   63.50
   7  -9  13  416.30   45.39
  -7   9 -13  355.55  119.31
   7  -9  14   90.75   29.42
  -7   9 -14   80.33   28.96
   7  -9  15   22.39   21.32
  -7   9 -15    7.01   22.05
   7  -9  16   53.78   39.94
  -7   9 -16  106.55   39.94
   7  -8 -15   21.51   26.91
   7  -8 -14  650.77   91.07
  -7   8  14  668.98   59.69
   7  -8 -13  876.36   92.12
  -7   8  13  983.99   59.45
   7  -8 -12  222.47   74.69
   7  -8 -12  171.04   41.63
  -7   8  12  171.93   59.85
   7  -8 -11  160.61   79.19
   7  -8 -11  125.21   37.50
  -7   8  11  135.14   59.17
   7  -8 -10    8.04   15.29
   7  -8 -10    9.75   11.49
  -7   8  10   10.51   16.73
   7  -8  -9  511.31   67.40
   7  -8  -9  359.05   37.63
  -7   8   9  545.05   94.93
   7  -8  -8 1043.35   82.00
   7  -8  -8  848.30   72.01
  -7   8   8 1040.69  116.90
   7  -8  -7  666.37   39.94
   7  -8  -7  667.60   55.33
  -7   8   7  685.55   39.99
   7  -8  -6  231.12   73.45
   7  -8  -6  177.21   17.06
  -7   8   6  197.16   54.06
   7  -8  -5   50.33   17.81
   7  -8  -5   65.78   21.80
  -7   8   5   88.39   23.01
   7  -8  -4 4969.10  155.51
   7  -8  -4 4526.47  139.28
  -7   8   4 4360.53  154.51
   7  -8  -3 3719.66  138.57
   7  -8  -3 3849.04  116.60
  -7   8   3 3501.86  120.11
   7  -8  -2 3950.16  141.71
   7  -8  -2 4097.12  146.60
   7  -8  -2 3607.28  118.18
  -7   8   2 4150.91  152.65
   7  -8  -1  571.40   32.57
   7  -8  -1  614.62   35.92
   7  -8  -1  509.57   25.41
  -7   8   1  607.66   32.63
   7  -8   0  192.49   21.48
   7  -8   0  180.01   34.13
   7  -8   0  150.55   16.72
  -7   8   0  158.25   41.68
   7  -8   1  201.13   21.14
   7  -8   1  198.85   48.01
   7  -8   1  159.82   19.77
  -7   8  -1  194.00   28.86
   7  -8   2 1883.06   80.35
   7  -8   2 1893.19   96.54
   7  -8   2 1872.28   80.38
  -7   8  -2 1884.34   91.44
   7  -8   3 1386.98   90.32
   7  -8   3 1423.84   85.00
   7  -8   3 1445.60   64.07
  -7   8  -3 1469.22   65.55
   7  -8   4   -1.21    8.70
   7  -8   4    5.45    7.78
   7  -8   4    7.71    3.89
   7  -8   5    9.21    4.99
   7  -8   5   10.68   11.24
  -7   8  -5    5.92   12.19
   7  -8   6  701.56   56.54
   7  -8   6  709.55   38.36
   7  -8   6  717.18   27.45
  -7   8  -6  712.34   57.97
   7  -8   7  964.68   80.06
   7  -8   7  865.17   79.59
   7  -8   7  960.45   39.12
  -7   8  -7 1031.60   44.29
   7  -8   8  155.73   53.13
  -7   8  -8  151.99   27.16
  -7   8  -8  165.62   42.29
   7  -8   9   11.41   11.23
  -7   8  -9   20.79    9.88
  -7   8  -9    7.72    5.64
   7  -8  10  177.77   60.99
  -7   8 -10  209.71   60.61
   7  -8  11 1145.24  128.87
  -7   8 -11 1237.95   94.33
   7  -8  12  264.34   21.89
  -7   8 -12  273.62   47.31
   7  -8  13   47.17   22.47
  -7   8 -13   63.28   29.92
   7  -8  14   25.26   32.52
  -7   8 -14   34.58   25.49
   7  -8  15  244.73   97.66
  -7   8 -15  264.25  115.47
  -7   8 -16  451.61   63.86
   7  -7 -16  174.37   73.35
   7  -7 -15    1.24   16.39
  -7   7  15   -1.02    8.68
   7  -7 -14  137.65   40.30
  -7   7  14  179.42   75.67
   7  -7 -13  525.27   30.66
   7  -7 -13  464.59   43.66
  -7   7  13  435.94   85.90
   7  -7 -12  482.22   74.36
   7  -7 -12  411.59   40.70
  -7   7  12  482.17   44.13
   7  -7 -11  159.95   56.44
   7  -7 -11  195.89   36.44
  -7   7  11  201.36   64.05
   7  -7 -10   10.85   10.22
   7  -7 -10   -0.03    9.20
  -7   7  10   18.24   16.57
   7  -7  -9  693.85   91.24
   7  -7  -9  551.31   42.98
  -7   7   9  552.43   41.89
   7  -7  -8  677.69   42.72
   7  -7  -8  601.42   43.99
  -7   7   8  697.05   52.84
   7  -7  -7  389.87   34.73
   7  -7  -7  366.23   37.09
  -7   7   7  400.55   65.35
   7  -7  -6   16.64   17.42
   7  -7  -6    8.04    5.42
  -7   7   6   10.38   14.88
   7  -7  -5   28.49   14.02
   7  -7  -5    6.95    6.15
  -7   7   5   17.14    8.55
  -7   7   5   27.74   14.03
   7  -7  -4 4861.60  177.26
   7  -7  -4 4598.87  156.72
  -7   7   4 4640.58  153.78
  -7   7   4 4792.49  173.89
   7  -7  -3 2723.28   99.50
   7  -7  -3 2482.51   88.97
  -7   7   3 2458.12   87.58
  -7   7   3 2412.41   95.98
   7  -7  -2 1233.75   56.04
   7  -7  -2 1190.39   49.81
  -7   7   2 1218.94   53.11
  -7   7   2 1195.61   63.40
   7  -7  -1 1110.69   88.44
   7  -7  -1 1186.02   54.12
   7  -7  -1 1059.99   23.68
  -7   7   1 1054.47   23.43
  -7   7   1 1114.07   53.24
   7  -7   0  256.20   32.56
   7  -7   0  285.18   16.50
   7  -7   0  227.75   14.43
  -7   7   0  283.24   18.40
   7  -7   1 3563.85  129.30
   7  -7   1 3684.70  141.93
   7  -7   1 3483.21  129.77
  -7   7  -1 3802.99  140.10
   7  -7   2 2897.79  110.95
   7  -7   2 2999.25  112.26
   7  -7   2 2772.55  114.52
  -7   7  -2 3006.09  108.20
   7  -7   3 1126.29   49.18
   7  -7   3 1167.50   54.27
   7  -7   3 1158.77   56.82
   7  -7   4   83.72   32.32
   7  -7   4   74.86   21.67
   7  -7   4   94.32   25.93
   7  -7   4   72.03   18.45
   7  -7   5   21.05    8.14
   7  -7   5   41.23   15.45
   7  -7   5   35.30   14.98
   7  -7   5   32.56    9.00
   7  -7   6  632.83   47.61
   7  -7   6  716.95   41.25
   7  -7   6  747.11   63.35
  -7   7  -6  650.08   41.58
   7  -7   7  568.43   24.82
   7  -7   7  610.87   48.50
  -7   7  -7  501.59   52.45
   7  -7   8   10.37   13.61
   7  -7   8   24.19   12.28
  -7   7  -8    0.70   16.29
   7  -7   9  128.32   78.99
  -7   7  -9   71.32   25.60
   7  -7  10  685.48   60.35
  -7   7 -10  682.09   80.39
   7  -7  11  836.04   92.13
  -7   7 -11  947.23   62.22
   7  -7  12  522.10   62.17
  -7   7 -12  570.94   37.58
   7  -7  13   29.45   17.22
  -7   7 -13   16.66   14.49
   7  -7  14  109.09   41.95
  -7   7 -14   88.52   38.74
   7  -7  15  387.82   82.68
  -7   7 -15  203.75  108.45
  -7   7 -16  398.37   63.88
   7  -6 -16   47.11   21.25
  -7   6  16   49.41   21.11
   7  -6 -15   38.27   20.62
  -7   6  15   12.09   10.85
   7  -6 -14   77.95   42.06
  -7   6  14   73.10   27.35
   7  -6 -13  683.53   45.70
   7  -6 -13  620.12   36.51
  -7   6  13  624.24   91.82
   7  -6 -12  577.49   57.29
   7  -6 -12  542.51   38.21
  -7   6  12  599.01   44.05
   7  -6 -11  405.84   42.31
   7  -6 -11  332.91   30.53
  -7   6  11  345.95   84.24
   7  -6 -10  181.79   53.67
   7  -6 -10  138.31   21.14
  -7   6  10  152.29   51.50
   7  -6  -9 1212.15   68.02
   7  -6  -9 1108.65   57.68
  -7   6   9 1035.54   38.87
  -7   6   9 1145.99   67.99
   7  -6  -8  691.61   63.78
   7  -6  -8  604.45   51.11
  -7   6   8  569.31   46.16
  -7   6   8  672.97   40.70
   7  -6  -7  527.40   57.32
   7  -6  -7  401.78   26.53
  -7   6   7  387.77   27.78
  -7   6   7  340.91   27.53
   7  -6  -6   13.85    5.49
   7  -6  -6   10.76    6.49
  -7   6   6    4.14    7.30
  -7   6   6   26.79    8.26
   7  -6  -5  288.98   63.33
   7  -6  -5  239.63   25.35
  -7   6   5  266.65   29.21
  -7   6   5  251.67   54.97
   7  -6  -4  449.05   41.47
   7  -6  -4  495.22   37.76
  -7   6   4  487.02   37.53
  -7   6   4  514.03   71.86
   7  -6  -3 1787.14   85.81
   7  -6  -3 1786.35   78.51
   7  -6  -3 1818.40   79.24
  -7   6   3 1899.65   82.08
  -7   6   3 2000.57   89.01
   7  -6  -2  993.08   54.71
   7  -6  -2  907.37   47.98
   7  -6  -2  975.34   52.15
   7  -6  -2  880.35   47.99
  -7   6   2  866.18   47.75
  -7   6   2  915.29   75.11
   7  -6  -1   21.03   12.87
   7  -6  -1    1.72    5.47
   7  -6  -1    8.69    6.50
   7  -6  -1   -0.85    2.91
  -7   6   1    0.01    5.59
  -7   6   1    8.79   13.03
   7  -6   0   14.88    8.30
   7  -6   0    3.86    6.33
  -7   6   0    7.72    5.73
  -7   6   0   -2.31   10.24
   7  -6   1  843.80   51.07
   7  -6   1  841.67   56.72
  -7   6  -1  884.99   53.44
  -7   6  -1  943.94   56.53
   7  -6   2 2413.45   96.56
   7  -6   2 2524.07  100.00
  -7   6  -2 2593.99   93.86
  -7   6  -2 2551.09   98.48
   7  -6   3 1508.06   84.96
   7  -6   3 1415.99   69.95
   7  -6   3 1458.67   67.29
   7  -6   3 1548.61   69.41
   7  -6   4  205.92   31.74
   7  -6   4  157.41   47.89
   7  -6   4  166.05   34.26
   7  -6   5   34.83   13.96
   7  -6   5   35.60   16.01
   7  -6   5   22.04   10.69
  -7   6  -5    4.80    6.33
   7  -6   6  444.66   22.36
   7  -6   6  479.85   41.64
   7  -6   6  381.48   45.90
  -7   6  -6  439.34   45.57
   7  -6   7  560.08   32.98
   7  -6   7  646.66   43.67
   7  -6   7  583.04   32.74
  -7   6  -7  553.90   49.27
   7  -6   8   98.15   25.23
   7  -6   8   82.06   23.83
   7  -6   8  125.51   30.99
  -7   6  -8   87.71   22.81
   7  -6   9   14.18   11.45
   7  -6   9   40.18   21.85
  -7   6  -9   22.93   13.99
   7  -6  10  857.79   85.24
  -7   6 -10  755.94   38.34
   7  -6  11  496.48   64.95
  -7   6 -11  573.33   53.52
   7  -6  12  180.08   67.68
  -7   6 -12  238.73   79.20
   7  -6  13   23.22   20.22
  -7   6 -13    2.19   12.45
   7  -6  14   92.11   33.07
   7  -6  15  492.90   74.71
  -7   6 -15  482.75  103.94
   7  -5 -17  318.80   52.66
  -7   5  17  214.75   95.93
   7  -5 -16   32.77   16.85
  -7   5  16   77.52   19.79
   7  -5 -15    9.44   17.85
  -7   5  15   35.02   23.27
   7  -5 -14  354.01   60.17
  -7   5  14  337.92   48.03
   7  -5 -13 1283.53  101.07
  -7   5  13 1422.17  108.08
   7  -5 -12  377.72   88.64
   7  -5 -12  392.20   20.00
  -7   5  12  276.06   55.13
  -7   5  12  329.39   45.42
   7  -5 -11   66.62   21.64
   7  -5 -11   59.74   20.00
  -7   5  11   25.61    9.83
  -7   5  11   35.61   12.39
   7  -5 -10  247.49   32.18
   7  -5 -10  194.91   29.02
  -7   5  10  215.65   26.91
  -7   5  10  247.90   57.24
   7  -5  -9 1186.49   88.40
   7  -5  -9 1243.61   57.29
  -7   5   9 1193.13   45.28
  -7   5   9 1098.66   48.97
   7  -5  -8 1978.35   72.32
   7  -5  -8 1921.80   79.18
  -7   5   8 2165.42   68.51
  -7   5   8 2038.00  111.44
   7  -5  -7  334.96   34.31
   7  -5  -7  308.09   21.05
  -7   5   7  272.15   30.33
  -7   5   7  309.64   33.46
   7  -5  -6   36.10   19.32
   7  -5  -6    0.94    5.18
  -7   5   6    2.36    4.81
  -7   5   6   -8.67   14.20
   7  -5  -5  103.88   37.39
   7  -5  -5   89.92   12.13
  -7   5   5   45.20   14.43
  -7   5   5   97.53   24.66
  -7   5   5  132.62   25.33
   7  -5  -4 1441.81   68.26
   7  -5  -4 1327.78   58.00
   7  -5  -4 1474.17   61.06
  -7   5   4 1453.70   76.17
  -7   5   4 1460.78   66.76
   7  -5  -3 3364.72  132.34
   7  -5  -3 3064.39  107.26
   7  -5  -3 3253.63  113.49
  -7   5   3 3431.82  123.23
  -7   5   3 3601.62  134.09
   7  -5  -2    5.34    6.11
   7  -5  -2    2.05    3.93
   7  -5  -2   16.81    5.96
  -7   5   2    5.13    7.31
  -7   5   2   10.17   12.37
   7  -5  -1  129.02   29.28
   7  -5  -1   86.74   18.54
   7  -5  -1  139.24   26.75
  -7   5   1  139.63   35.00
  -7   5   1  130.71   30.34
   7  -5   0  402.34   39.58
   7  -5   0  309.74   23.30
   7  -5   0  356.06   28.06
  -7   5   0  338.11   48.74
  -7   5   0  374.69   52.55
   7  -5   1  853.85   40.44
   7  -5   1  707.76   37.06
   7  -5   1  875.16   43.08
  -7   5  -1  816.74   43.79
  -7   5  -1  864.04   65.33
   7  -5   2 3069.68  110.34
   7  -5   2 2694.98   97.37
   7  -5   2 2787.95  114.62
  -7   5  -2 2754.56  100.55
   7  -5   3 1233.07   63.22
   7  -5   3 1101.66   26.65
  -7   5  -3 1147.51   56.38
   7  -5   4   51.92    9.72
   7  -5   4   73.61   15.26
  -7   5  -4   74.01   25.89
  -7   5  -4   69.82   13.54
   7  -5   5   64.52   14.64
   7  -5   5   49.73   28.01
   7  -5   5   70.92   20.41
  -7   5  -5   15.83    8.61
   7  -5   6  193.17   16.47
   7  -5   6  154.60   38.61
   7  -5   6  160.50   36.43
  -7   5  -6  197.26   13.94
   7  -5   7  398.97   28.92
   7  -5   7  326.81   30.58
   7  -5   7  370.35   39.52
  -7   5  -7  424.20   26.70
   7  -5   8  444.72   31.87
   7  -5   8  446.53   69.90
  -7   5  -8  404.46   25.03
   7  -5   9   54.17   17.21
   7  -5   9   51.66   27.97
  -7   5  -9   35.85   25.13
   7  -5  10  160.41   45.72
   7  -5  10  202.35   52.08
  -7   5 -10  183.33   45.60
   7  -5  11  984.31   79.05
  -7   5 -11  633.85   62.71
   7  -5  12 1206.99   76.71
  -7   5 -12 1273.88   88.64
  -7   5 -13    3.84   11.42
   7  -5  14   58.87   41.65
  -7   5 -14  101.56   36.99
   7  -5  15  543.35  116.23
  -7   5 -15  667.01   76.11
   7  -4 -18  760.74   61.19
  -7   4  18  480.80   52.47
   7  -4 -17  375.73   43.94
  -7   4  17  349.60  116.91
   7  -4 -16   59.65   23.87
  -7   4  16   36.52   17.70
   7  -4 -15    1.23   13.16
  -7   4  15   15.98   12.08
   7  -4 -14  135.96   46.36
  -7   4  14  127.32   33.61
  -7   4  14  135.94   42.73
   7  -4 -13 1262.93   42.62
  -7   4  13 1207.69   67.85
  -7   4  13 1106.36   65.85
   7  -4 -12  757.39   85.20
   7  -4 -12  725.52   38.31
  -7   4  12  753.68   40.22
  -7   4  12  715.78   41.78
   7  -4 -11  124.18   47.24
   7  -4 -11  110.93   18.80
  -7   4  11   96.95   25.76
  -7   4  11  170.00   42.79
   7  -4 -10   50.49   22.76
   7  -4 -10   46.37   13.95
  -7   4  10   70.91   26.76
  -7   4  10   48.71   48.47
   7  -4  -9   30.19   12.96
   7  -4  -9    4.80    7.01
  -7   4   9   16.29    7.18
  -7   4   9   20.42   13.24
   7  -4  -8  140.60   30.51
   7  -4  -8  107.33   25.99
  -7   4   8  131.41   27.61
  -7   4   8  142.31   32.31
   7  -4  -7    3.86   12.48
   7  -4  -7    6.96    6.52
  -7   4   7   11.24    6.38
  -7   4   7   27.09   12.39
   7  -4  -6  344.49   57.31
   7  -4  -6  309.20   14.27
  -7   4   6  361.86   20.27
  -7   4   6  312.39   44.44
   7  -4  -5 4120.42  162.44
   7  -4  -5 3734.12  127.38
   7  -4  -5 4130.71  140.55
  -7   4   5 4036.77  148.58
  -7   4   5 4330.46  164.00
   7  -4  -4  547.80   35.21
   7  -4  -4  518.46   36.21
   7  -4  -4  539.11   25.22
  -7   4   4  612.75   38.43
  -7   4   4  510.85   38.09
   7  -4  -3 1406.07   65.54
   7  -4  -3 1254.29   52.54
   7  -4  -3 1279.56   52.80
  -7   4   3 1363.27   66.45
  -7   4   3 1407.09   67.05
   7  -4  -2  217.49   26.67
   7  -4  -2  170.98   14.39
   7  -4  -2  169.67   13.57
  -7   4   2  186.99   15.68
  -7   4   2  222.43   52.32
   7  -4  -1  109.02   25.74
   7  -4  -1   91.76   13.16
   7  -4  -1   89.19   16.33
  -7   4   1  149.67   36.98
  -7   4   1   97.05   22.06
   7  -4   0  663.02   34.16
   7  -4   0  632.41   31.48
   7  -4   0  666.27   33.80
  -7   4   0  755.83   43.54
  -7   4   0  740.27   39.68
   7  -4   1 2660.66   86.70
   7  -4   1 2721.83   75.74
   7  -4   1 2792.19   87.73
   7  -4   1 2908.79   88.46
  -7   4  -1 3062.82   92.02
   7  -4   2 1667.88   76.45
   7  -4   2 1771.81   87.15
  -7   4  -2 1813.10   80.81
  -7   4  -2 1842.21   78.22
   7  -4   3 1053.34   21.42
   7  -4   3 1064.03   28.75
  -7   4  -3 1040.87   58.84
  -7   4  -3  932.01   51.51
   7  -4   4    8.98    5.54
   7  -4   4   14.89    4.51
  -7   4  -4   29.03   12.48
  -7   4  -4    1.92    4.04
   7  -4   5 1766.88   78.20
   7  -4   5 1933.31  107.95
  -7   4  -5 2003.59   99.37
  -7   4  -5 1837.64   81.96
   7  -4   6 2561.39   78.42
   7  -4   6 2558.15   88.57
   7  -4   6 2353.79   98.17
  -7   4  -6 2265.58   84.93
   7  -4   7  160.34   49.31
   7  -4   7  225.01   59.34
  -7   4  -7  204.96   23.83
   7  -4   8  110.82   26.37
   7  -4   8  135.46   51.56
  -7   4  -8  133.84   41.88
   7  -4   9   20.95   11.32
   7  -4   9   21.66   24.03
  -7   4  -9   10.95    6.62
   7  -4  10   73.05   25.46
   7  -4  10   57.08   18.84
  -7   4 -10   60.43   16.95
   7  -4  11  493.44   73.64
   7  -4  11  596.14   50.25
  -7   4 -11  785.98   51.65
   7  -4  12  749.47   60.32
  -7   4 -12  495.34   74.33
   7  -4  13   28.22   18.39
  -7   4 -13    0.32   11.77
   7  -4  14  201.87   71.58
  -7   4 -14  197.46   74.84
   7  -4  15  549.13   84.58
  -7   4 -15  501.93   91.19
   7  -3 -18  279.19   40.29
  -7   3  18  193.58   87.60
   7  -3 -17  377.12  108.55
  -7   3  17  259.93  100.63
   7  -3 -16   59.27   18.46
  -7   3  16   25.75   14.65
  -7   3  16   53.02   35.08
   7  -3 -15   93.38   43.41
  -7   3  15   76.58   27.68
  -7   3  15   90.85   31.05
   7  -3 -14  300.67   64.18
  -7   3  14  216.98   67.82
  -7   3  14  284.75   77.66
   7  -3 -13 1128.12  100.66
  -7   3  13 1136.39   72.37
  -7   3  13 1167.48   74.85
   7  -3 -12 1297.34   60.08
   7  -3 -12 1265.04   51.11
  -7   3  12 1247.10   58.60
  -7   3  12 1249.66   63.54
   7  -3 -11   78.67   26.31
   7  -3 -11   69.16   14.11
  -7   3  11   90.79   25.50
  -7   3  11   50.64   29.41
   7  -3 -10   65.82   34.92
   7  -3 -10   45.00   14.48
  -7   3  10   77.00   14.73
  -7   3  10   94.40   34.86
   7  -3  -9   56.09   21.73
   7  -3  -9   58.08   14.45
  -7   3   9   62.17   26.22
  -7   3   9   36.17   28.10
   7  -3  -8  436.72   47.60
   7  -3  -8  393.01   13.44
  -7   3   8  385.12   17.43
  -7   3   8  446.86   26.39
   7  -3  -7  244.37   21.77
   7  -3  -7  207.18    8.66
  -7   3   7  175.99   16.02
  -7   3   7  195.83   38.45
  -7   3   7  207.94   56.72
   7  -3  -6  105.70   25.62
   7  -3  -6   62.75    9.44
  -7   3   6   98.14   21.06
  -7   3   6   76.12   20.23
   7  -3  -5  820.04   85.10
  -7   3   5  824.19   40.86
  -7   3   5  751.04   68.63
   7  -3  -4  230.76   28.43
  -7   3   4  274.77   48.29
  -7   3   4  242.40   27.84
   7  -3  -3 1369.72   77.55
  -7   3   3 1476.57   62.41
  -7   3   3 1408.78   64.55
   7  -3  -2  124.69   35.29
   7  -3  -2   83.73    7.74
   7  -3  -2   94.01   14.67
  -7   3   2  104.70   21.32
  -7   3   2   99.29   22.07
   7  -3  -1   -5.25    8.51
   7  -3  -1    1.90    1.96
   7  -3  -1    1.17    4.07
  -7   3   1   19.55    7.76
  -7   3   1   -3.16   12.31
   7  -3   0  868.38   42.22
   7  -3   0  816.10   36.91
   7  -3   0  808.26   40.17
   7  -3   0  830.93   30.74
  -7   3   0  813.28   42.59
   7  -3   1 1035.03   47.19
   7  -3   1 1049.41   44.94
   7  -3   1 1117.13   73.01
  -7   3  -1 1076.30   47.06
  -7   3  -1 1092.55   49.98
   7  -3   2 1443.20   62.38
   7  -3   2 1427.04   59.54
   7  -3   2 1471.96   75.62
  -7   3  -2 1385.16   64.65
  -7   3  -2 1351.88   82.04
   7  -3   3 2070.89   83.67
   7  -3   3 2022.60   76.76
  -7   3  -3 2204.30   89.44
  -7   3  -3 2133.45   80.49
   7  -3   4  682.67   32.62
   7  -3   4  785.73   39.39
  -7   3  -4  733.00   54.57
  -7   3  -4  783.80   36.58
   7  -3   5  300.82   11.47
   7  -3   5  344.91   30.57
  -7   3  -5  333.13   31.39
  -7   3  -5  342.84   43.80
   7  -3   6  587.98   66.66
  -7   3  -6  701.75   41.36
  -7   3  -6  616.77   37.44
   7  -3   7   52.18   34.23
   7  -3   7   23.96   21.91
  -7   3  -7   32.94   15.93
   7  -3   8  392.33   71.73
   7  -3   8  356.38   94.19
  -7   3  -8  409.49   70.87
   7  -3   9   20.00   13.22
   7  -3   9   28.90   10.64
  -7   3  -9   30.37   14.83
   7  -3  10   10.24   19.01
   7  -3  10   14.09   29.75
  -7   3 -10   18.86   12.69
   7  -3  11   60.42   32.61
   7  -3  11  119.42   38.02
  -7   3 -11  108.51   29.81
   7  -3  12   36.64   15.94
  -7   3 -12    8.04   16.41
   7  -3  13    9.67   17.95
   7  -3  14  129.77   54.72
  -7   3 -15  307.48   44.55
   7  -2 -19  286.78  108.96
  -7   2  19  243.14   81.45
   7  -2 -18  156.51   52.65
  -7   2  18  114.19   46.41
  -7   2  18  125.23   54.37
   7  -2 -17   92.11   33.79
  -7   2  17   73.21   33.39
  -7   2  17   87.94   30.18
   7  -2 -16   23.22   18.41
  -7   2  16   17.72   16.09
  -7   2  16   15.72   19.32
   7  -2 -15  535.60   54.87
  -7   2  15  496.19   56.61
  -7   2  15  575.45   75.27
   7  -2 -14 2077.86  118.32
  -7   2  14 1974.38  111.05
  -7   2  14 1917.26  110.21
   7  -2 -13 1287.89   59.50
  -7   2  13 1050.94   51.66
  -7   2  13 1075.37   55.38
   7  -2 -12  274.62   64.15
   7  -2 -12  252.62   30.49
  -7   2  12  282.49   35.90
  -7   2  12  339.55   87.87
   7  -2 -11  216.36   54.91
   7  -2 -11  162.57   25.30
  -7   2  11  174.62   53.66
  -7   2  11  247.37   67.59
   7  -2 -10  147.36   30.30
   7  -2 -10  123.78   28.58
  -7   2  10  127.15   31.92
  -7   2  10  160.38   46.49
   7  -2  -9 3156.78  133.07
   7  -2  -9 2753.22   92.83
  -7   2   9 3038.87  114.74
  -7   2   9 3038.15  124.07
   7  -2  -8  612.22   34.80
   7  -2  -8  569.48   22.69
  -7   2   8  663.29   53.28
  -7   2   8  605.59   62.53
   7  -2  -7  359.67   23.72
  -7   2   7  308.63   21.02
  -7   2   7  391.57   35.85
   7  -2  -6  373.22   20.31
  -7   2   6  337.78   21.98
  -7   2   6  297.01   22.14
   7  -2  -5  625.81   42.25
  -7   2   5  611.11   33.79
  -7   2   5  574.15   44.51
   7  -2  -4  669.90   41.06
  -7   2   4  701.24   37.35
  -7   2   4  685.37   64.28
   7  -2  -3 1448.07   83.51
  -7   2   3 1440.86   66.49
  -7   2   3 1395.78   87.83
   7  -2  -2  690.62   35.96
  -7   2   2  711.35   41.87
  -7   2   2  715.34   42.37
   7  -2  -1  780.33   45.43
   7  -2  -1  757.75   33.99
   7  -2  -1  764.89   36.21
   7  -2  -1  907.83   62.25
  -7   2   1  849.03   25.56
   7  -2   0 1627.11   68.82
   7  -2   0 1695.31   99.10
  -7   2   0 1675.89   87.48
   7  -2   1 2077.25   86.25
   7  -2   1 1886.77   78.74
   7  -2   1 2042.74   86.90
  -7   2  -1 2097.00   89.79
  -7   2  -1 2120.30   93.11
   7  -2   2 1571.49   66.01
   7  -2   2 1688.92   73.43
   7  -2   2 1635.12   67.56
   7  -2   2 1663.56   88.98
  -7   2  -2 1609.57   70.23
  -7   2  -2 1806.55   85.10
   7  -2   3  104.17   15.46
   7  -2   3  126.42   14.66
   7  -2   3  167.72   45.13
  -7   2  -3  179.06   55.82
  -7   2  -3  111.73   28.26
   7  -2   4   75.26   10.34
   7  -2   4   64.51   15.09
  -7   2  -4  114.58   29.68
  -7   2  -4   54.82   13.90
   7  -2   5  193.26   33.96
  -7   2  -5  162.74   38.25
  -7   2  -5  128.85   32.12
   7  -2   6  905.28   73.99
  -7   2  -6 1027.01   60.38
  -7   2  -6  823.96   50.94
   7  -2   7  685.53   50.37
  -7   2  -7  637.30   35.61
   7  -2   8 1075.14   76.52
   7  -2   8  924.91   49.83
  -7   2  -8  913.48   47.42
   7  -2   9   19.15    9.53
   7  -2   9   47.84   49.62
  -7   2  -9   45.22   16.87
   7  -2  10  125.05   40.69
  -7   2 -10  111.69   61.54
   7  -2  11   80.88   30.34
   7  -2  11   85.26   25.54
  -7   2 -11   71.31   31.97
   7  -2  12   15.81   16.98
   7  -2  12   16.53   12.33
  -7   2 -12   15.86   19.49
   7  -2  13   30.83   19.11
  -7   2 -13    5.42   12.40
   7  -2  14   22.79   13.47
  -7   2 -15   36.95   15.84
  -7   1  20   59.39   37.53
   7  -1 -19  320.43   42.13
  -7   1  19  333.92   53.49
  -7   1  19  176.17   70.79
   7  -1 -18  303.01   63.30
  -7   1  18  281.14   44.71
  -7   1  18  295.67   42.81
   7  -1 -17   89.06   29.29
  -7   1  17   91.76   30.73
  -7   1  17   69.52   50.72
   7  -1 -16   38.82   12.34
  -7   1  16   22.58   21.56
  -7   1  16   65.80   21.93
   7  -1 -15  401.53   38.45
  -7   1  15  372.18   46.95
  -7   1  15  307.74   58.91
   7  -1 -14 2342.35  141.26
  -7   1  14 2091.04  120.36
  -7   1  14 2038.02  118.04
   7  -1 -13 1176.46  108.91
  -7   1  13 1104.10   50.80
  -7   1  13 1112.55   87.66
   7  -1 -12 1190.92   68.03
  -7   1  12 1116.90   96.93
  -7   1  12 1072.56   90.76
   7  -1 -11   52.76   14.49
   7  -1 -11   13.76    7.22
  -7   1  11   17.53   11.45
  -7   1  11   26.55   14.27
   7  -1 -10  234.50   46.34
   7  -1 -10  202.06   17.89
  -7   1  10  266.29   47.01
  -7   1  10  309.53   65.35
   7  -1  -9  996.18   55.28
   7  -1  -9  946.20   33.16
  -7   1   9 1062.89   73.77
  -7   1   9  958.39   59.52
   7  -1  -8 1066.09   44.09
  -7   1   8 1023.32   57.66
  -7   1   8  992.06   59.07
   7  -1  -7  224.55   52.79
  -7   1   7  183.36   48.47
  -7   1   7  182.67   45.50
   7  -1  -6   42.08   18.14
  -7   1   6    9.97   10.55
  -7   1   6   32.64   14.87
   7  -1  -5  112.59   19.64
  -7   1   5  105.50   21.10
  -7   1   5  102.28   20.04
   7  -1  -4  479.71   37.02
  -7   1   4  497.39   54.73
  -7   1   4  488.24   36.64
   7  -1  -3  101.81   28.81
  -7   1   3  106.37   24.35
  -7   1   3   87.22   17.56
   7  -1  -2   72.83   13.48
   7  -1  -2   71.01   19.25
  -7   1   2   40.82   16.22
   7  -1  -1   17.57    8.63
   7  -1  -1    0.42    2.58
   7  -1  -1   12.30    9.27
  -7   1   1    9.61   12.20
   7  -1   0 1408.72   64.47
   7  -1   0 1350.89   56.78
   7  -1   0 1510.94   84.88
  -7   1   0 1422.15   58.57
  -7   1   0 1420.14   73.85
   7  -1   1 3476.01  122.35
   7  -1   1 3741.88  132.55
   7  -1   1 3557.67  125.44
   7  -1   1 3620.83  158.62
  -7   1  -1 3517.50  126.26
  -7   1  -1 3340.32  128.97
   7  -1   2  424.90   32.45
   7  -1   2  438.91   45.87
  -7   1  -2  486.83   45.23
  -7   1  -2  419.75   38.70
   7  -1   3    9.04    6.24
   7  -1   3   22.80   15.17
  -7   1  -3   28.13   17.96
  -7   1  -3   36.01   12.98
   7  -1   4  252.92    6.48
   7  -1   4  341.57   26.84
  -7   1  -4  264.32   26.31
  -7   1  -4  279.35   29.32
   7  -1   5 2449.12   94.67
  -7   1  -5 2207.00   82.60
  -7   1  -5 2050.82   66.93
   7  -1   6 2205.32   96.56
  -7   1  -6 2181.52   86.66
  -7   1  -6 2181.94   83.65
   7  -1   7 1508.50  115.51
  -7   1  -7 1578.50   77.87
  -7   1  -7 1435.50   78.06
   7  -1   8  455.26   62.31
   7  -1   8  474.91   52.85
  -7   1  -8  502.27   45.26
   7  -1   9   43.53   42.01
   7  -1   9   60.55   17.62
   7  -1  10  370.45   44.68
   7  -1  10  395.70   45.26
  -7   1 -10  371.54   35.01
   7  -1  11  377.87   48.87
   7  -1  11  308.05   41.07
   7  -1  12   45.16   19.15
   7  -1  12   57.36   25.32
  -7   1 -12   47.92   29.78
   7  -1  13   32.24   22.07
  -7   1 -13   32.00   18.64
  -7   1 -14   28.58   19.42
  -7   0  20   66.35   32.00
  -7   0  20   40.10   34.45
   7   0 -19  188.23   90.99
  -7   0  19  153.88   84.73
  -7   0  19  181.93   60.08
   7   0 -18  118.69   45.27
  -7   0  18   90.72   33.48
  -7   0  18  152.23   53.31
   7   0 -17  326.52   24.97
  -7   0  17  250.23   40.33
  -7   0  17  216.06   75.36
   7   0 -16   12.35   13.02
  -7   0  16   19.25   19.00
  -7   0  16   20.78   15.30
   7   0 -15  193.92   50.30
  -7   0  15  201.64   42.35
  -7   0  15  196.23   70.45
   7   0 -14 1495.46  121.95
  -7   0  14 1529.15   85.56
  -7   0  14 1425.46  122.32
   7   0 -13  857.67   92.05
  -7   0  13  680.19   60.46
  -7   0  13  806.89   68.56
   7   0 -12 1081.85   67.50
  -7   0  12 1180.98   72.07
  -7   0  12 1148.40   75.74
   7   0 -11   66.54   19.37
  -7   0  11   35.86   22.38
  -7   0  11   51.65   24.65
   7   0 -10  565.55   37.50
  -7   0  10  489.12   52.51
  -7   0  10  504.41   31.52
   7   0  -9  528.94   34.15
  -7   0   9  543.00   31.73
  -7   0   9  523.41   66.57
   7   0  -8 2016.77   81.02
  -7   0   8 1901.10   84.33
  -7   0   8 1899.57   86.05
   7   0  -7 2679.32  110.05
  -7   0   7 2668.35  101.37
  -7   0   7 2452.71  126.26
   7   0  -6   17.83    8.51
  -7   0   6   25.14   11.58
   7   0  -5   30.05    6.74
  -7   0   5   56.72   16.00
  -7   0   5   33.65   15.29
   7   0  -4 1753.58   75.22
   7   0  -4 1681.71   75.65
  -7   0   4 1823.12   81.89
   7   0  -3   17.43    7.87
   7   0  -3   26.20   10.40
  -7   0   3   17.90   19.05
   7   0  -2  117.47   14.57
   7   0  -2  119.27   30.29
  -7   0   2   72.78   22.66
   7   0  -1  119.11   14.90
   7   0  -1   88.58   13.48
   7   0  -1  109.86   37.37
  -7   0   1  100.17   15.33
  -7   0   1  141.23   35.68
   7   0   0  375.56   20.04
   7   0   0  385.13   10.69
   7   0   0  412.61   40.20
  -7   0   0  369.56   27.23
  -7   0   0  429.31   54.77
   7   0   1 1692.49   70.74
   7   0   1 1640.52   74.00
   7   0   1 1654.59   69.20
   7   0   1 1649.44   80.74
  -7   0  -1 1666.74   69.44
  -7   0  -1 1744.09   79.56
   7   0   2 1843.39   76.65
   7   0   2 1908.78  100.78
  -7   0  -2 2059.79   87.03
  -7   0  -2 1855.17   80.38
   7   0   3  343.69    9.34
   7   0   3  388.59   41.04
  -7   0  -3  413.74   31.27
  -7   0  -3  364.61   22.24
   7   0   4   16.36   15.12
  -7   0  -4   40.35   16.99
  -7   0  -4   35.78   12.33
   7   0   5  665.12   54.10
  -7   0  -5  630.15   35.23
  -7   0  -5  549.48   47.20
   7   0   6 1098.85   77.16
  -7   0  -6 1181.00   58.66
  -7   0  -6 1044.19   50.32
   7   0   7 1496.13  122.49
  -7   0  -7 1153.70   67.18
  -7   0  -7 1213.44   76.26
   7   0   8  206.51   67.54
   7   0   8  228.92   79.51
  -7   0  -8  225.89   47.78
   7   0   9   73.18   28.12
   7   0   9   52.06   32.55
  -7   0  -9   53.33   19.25
   7   0  10  440.03   76.17
   7   0  10  576.87   72.36
  -7   0 -10  614.10   40.23
   7   0  11  389.47   83.01
   7   0  11  494.40   62.05
  -7   0 -11  384.42   64.09
   7   0  12  117.61   46.92
   7   0  12  183.48   57.94
  -7   0 -12  192.85   61.03
   7   0  13   18.63   15.92
   7   0  13    7.17    7.20
  -7   0 -14   55.99   23.18
  -7  -1  21   24.56   10.07
  -7  -1  20   23.20   18.02
   7   1 -19   41.98   18.96
  -7  -1  19   37.46   28.47
  -7  -1  19   68.07   35.43
   7   1 -18   77.64   30.78
  -7  -1  18   53.32   12.56
  -7  -1  18   84.26   18.58
   7   1 -17   86.73   45.67
  -7  -1  17   70.76   50.17
  -7  -1  16   14.61   12.70
  -7  -1  16   -1.06   14.81
   7   1 -15  464.53   90.21
  -7  -1  15  469.01   40.36
  -7  -1  15  459.73   82.44
   7   1 -14 1136.72  114.20
  -7  -1  14 1050.71  106.94
  -7  -1  14 1171.70   80.77
   7   1 -13  849.67   71.14
  -7  -1  13  660.89   47.19
  -7  -1  13  796.69   51.72
   7   1 -12  730.31   34.93
  -7  -1  12  650.58   63.54
  -7  -1  12  570.09   37.12
   7   1 -11  102.20   31.47
  -7  -1  11  107.81   27.48
  -7  -1  11   42.01   23.70
   7   1 -10  229.00   51.42
  -7  -1  10  176.62   43.59
  -7  -1  10  224.66   41.33
   7   1  -9  812.83   50.10
  -7  -1   9  835.66   63.11
  -7  -1   9  900.30   44.67
   7   1  -8 2203.43   84.84
  -7  -1   8 2182.86   89.05
  -7  -1   8 2199.27   88.20
   7   1  -7 2299.52   90.44
  -7  -1   7 2340.06  103.44
  -7  -1   7 2341.04   89.23
   7   1  -6  291.84   18.16
  -7  -1   6  313.05   58.04
  -7  -1   6  268.82   65.44
   7   1  -5  209.94   40.86
   7   1  -5  206.92   22.48
  -7  -1   5  270.44   62.20
   7   1  -4 2342.81   79.24
   7   1  -4 2327.23   48.71
  -7  -1   4 2449.03   84.16
   7   1  -3  120.92   39.12
   7   1  -3  109.60   38.29
  -7  -1   3  153.45   40.18
   7   1  -2  347.70   24.43
   7   1  -2  294.36    6.17
   7   1  -2  292.58   31.89
  -7  -1   2  292.43   12.76
  -7  -1   2  321.86   78.18
   7   1  -1   15.66   17.40
   7   1  -1   12.24    5.97
   7   1  -1    8.84   10.86
  -7  -1   1   14.96    6.00
  -7  -1   1   10.11   13.07
   7   1   0 1118.61   55.22
   7   1   0 1051.96   27.77
   7   1   0 1191.02   58.03
  -7  -1   0 1288.98   63.17
   7   1   1 1606.73   67.33
   7   1   1 1639.48   96.73
  -7  -1  -1 1512.16   63.93
  -7  -1  -1 1563.23   74.26
  -7  -1  -1 1683.78   76.95
   7   1   2 1039.96   39.59
   7   1   2 1134.53   64.53
  -7  -1  -2 1125.86   48.88
  -7  -1  -2 1250.11   54.44
   7   1   3  124.01   55.02
  -7  -1  -3  168.78   50.28
  -7  -1  -3  159.14   37.99
   7   1   4 1094.57   68.75
  -7  -1  -4 1157.38   68.72
  -7  -1  -4 1173.75   60.70
   7   1   5  365.39   36.31
  -7  -1  -5  339.71   36.64
  -7  -1  -5  357.59   22.69
   7   1   6  429.94   43.28
  -7  -1  -6  479.04   77.82
  -7  -1  -6  412.90   40.73
   7   1   7 1671.16   61.03
  -7  -1  -7 1488.46   76.04
  -7  -1  -7 1546.80   70.82
   7   1   8    6.37   14.42
  -7  -1  -8   -1.89   14.07
  -7  -1  -8   17.00   18.26
   7   1   9   17.75   17.79
   7   1   9   20.77   21.78
  -7  -1  -9   12.40   16.38
   7   1  10  943.80   74.45
   7   1  10  785.85  101.50
  -7  -1 -10  929.40   51.03
   7   1  11  576.02   44.31
   7   1  11  543.02   61.94
  -7  -1 -11  534.73   28.35
   7   1  12  183.10   82.28
   7   1  12  101.40   46.23
   7   1  13   -0.40    9.37
  -7  -1 -13   21.00   19.05
  -7  -2  20   53.65   40.37
   7   2 -19  149.50   66.46
  -7  -2  19  159.67   57.54
  -7  -2  19   99.52   61.98
   7   2 -18   24.20   17.75
  -7  -2  18   34.91   18.63
  -7  -2  18   55.70   18.68
   7   2 -17   85.54   46.59
  -7  -2  17   75.33   36.68
  -7  -2  17  121.42   27.17
   7   2 -16   28.69   11.60
  -7  -2  16   32.33   25.37
  -7  -2  16   37.80   26.83
   7   2 -15  402.42  109.26
  -7  -2  15  544.16   69.75
  -7  -2  15  461.25   55.21
   7   2 -14  572.60   43.93
  -7  -2  14  633.70   37.81
  -7  -2  14  605.51   65.14
   7   2 -13  417.53   45.72
  -7  -2  13  577.72   62.49
  -7  -2  13  434.88   46.21
   7   2 -12  303.86   85.41
  -7  -2  12  308.41   68.59
  -7  -2  12  283.81   63.29
   7   2 -11   21.00   16.43
  -7  -2  11   24.76   13.26
  -7  -2  11   30.24   14.40
   7   2 -10  778.91   46.29
  -7  -2  10  745.45   75.70
  -7  -2  10  793.54   60.89
   7   2  -9 1198.16  101.46
  -7  -2   9 1356.56   65.06
  -7  -2   9 1291.88   91.34
   7   2  -8 2185.04   96.91
  -7  -2   8 2273.76   90.97
  -7  -2   8 2296.88  137.94
   7   2  -7  872.82   53.33
   7   2  -7  882.14   50.29
  -7  -2   7  907.33   58.31
   7   2  -6  110.30   28.63
   7   2  -6   85.53   26.20
  -7  -2   6  114.64   27.19
   7   2  -5   71.92   19.29
   7   2  -5   96.19   19.25
  -7  -2   5  104.20   15.95
   7   2  -4 1062.95   33.22
   7   2  -4 1240.66   60.95
  -7  -2   4 1080.80   63.96
   7   2  -3   68.58   18.71
   7   2  -3   32.08   29.99
  -7  -2   3   81.03   16.45
   7   2  -2  171.21   22.83
   7   2  -2  133.61   16.58
   7   2  -2  202.85   42.39
  -7  -2   2  174.13   13.14
  -7  -2   2  218.82   46.27
   7   2  -1    3.85    6.91
   7   2  -1    3.15    4.25
   7   2  -1   17.96   15.00
  -7  -2   1    9.93    7.22
  -7  -2   1   -1.45   12.25
   7   2   0 2225.97   80.70
   7   2   0 2141.45   88.24
  -7  -2   0 2386.80  104.63
  -7  -2   0 2194.28   83.14
   7   2   1 2434.38   81.78
   7   2   1 2578.52  108.08
  -7  -2  -1 2489.82   96.59
  -7  -2  -1 2266.19   78.49
   7   2   2  135.46   12.84
   7   2   2  241.52   29.13
  -7  -2  -2  184.55   57.23
  -7  -2  -2  160.24   21.91
   7   2   3   46.50   34.28
  -7  -2  -3   80.69   28.06
   7   2   4  702.93   47.55
  -7  -2  -4  625.27   72.25
  -7  -2  -4  581.23   20.77
   7   2   5 2199.00   98.99
  -7  -2  -5 2189.45  116.82
  -7  -2  -5 2041.71   89.65
   7   2   6 2331.00  108.06
  -7  -2  -6 1792.56   91.54
  -7  -2  -6 1932.78   83.96
   7   2   7  227.60   84.13
  -7  -2  -7  309.75   23.49
  -7  -2  -7  348.98   51.20
   7   2   8   41.61   38.50
  -7  -2  -8   25.16   16.13
  -7  -2  -8   19.15   13.22
   7   2   9   45.19   15.81
   7   2   9   69.17   35.83
   7   2  10 1164.39   72.76
   7   2  10 1228.79   95.52
  -7  -2 -10 1171.90   77.30
   7   2  11  499.61   46.51
  -7  -2 -11  340.24   94.67
   7   2  12   52.92   33.35
   7   2  12   32.87   23.26
  -7  -2 -12   18.31   18.39
   7   2  13    6.25   15.55
  -7  -2 -13   12.27   12.39
  -7  -3  20   20.31   10.73
  -7  -3  20   12.01    8.93
   7   3 -19   94.02   44.86
  -7  -3  19   74.33   39.58
  -7  -3  19   53.85   27.02
   7   3 -18  105.43   34.85
  -7  -3  18   86.25   32.56
  -7  -3  18   69.63   50.93
   7   3 -17   45.17   24.16
  -7  -3  17   61.68   43.95
  -7  -3  17   42.18   27.87
   7   3 -16   10.69   10.27
  -7  -3  16   10.83   18.68
  -7  -3  16    4.04   13.36
   7   3 -15  548.79   44.47
  -7  -3  15  587.16   74.07
  -7  -3  15  659.48   65.20
   7   3 -14  385.87   81.07
  -7  -3  14  350.32   50.57
  -7  -3  14  330.25   32.19
   7   3 -13  934.19   51.28
  -7  -3  13  901.91   47.54
  -7  -3  13 1066.22   56.10
   7   3 -12  119.79   43.70
  -7  -3  12  105.49   29.53
  -7  -3  12  118.14   36.90
   7   3 -11   13.17   13.90
  -7  -3  11   21.00   11.20
  -7  -3  11   17.11   18.95
   7   3 -10  465.41   60.61
  -7  -3  10  594.02   34.90
  -7  -3  10  673.58   36.23
   7   3  -9  930.75   67.17
   7   3  -9  941.88   55.80
  -7  -3   9 1009.25   81.38
   7   3  -8  997.59   57.92
   7   3  -8  972.69   45.77
  -7  -3   8 1007.47   69.83
   7   3  -7  511.11   32.73
   7   3  -7  506.47   39.21
  -7  -3   7  488.42   41.10
   7   3  -6   10.95    6.20
   7   3  -6   -1.95   13.63
  -7  -3   6   18.83   18.76
   7   3  -5 1025.61   51.41
   7   3  -5  903.45   61.58
  -7  -3   5  859.39   40.38
   7   3  -4  522.44   38.37
   7   3  -4  461.72   35.44
  -7  -3   4  434.23    7.57
  -7  -3   4  522.01   46.76
  -7  -3   4  450.21    7.02
   7   3  -3  182.51   33.53
   7   3  -3  190.92   41.69
  -7  -3   3  192.59   57.37
  -7  -3   3  190.08   18.37
   7   3  -2  945.52   38.96
   7   3  -2  914.36   75.57
  -7  -3   2  955.23   61.71
  -7  -3   2  941.11   36.83
   7   3  -1   62.36   12.53
   7   3  -1   36.64   17.04
  -7  -3   1   57.35   21.36
  -7  -3   1   48.37   13.58
   7   3   0  551.66   33.29
   7   3   0  583.97   47.83
  -7  -3   0  503.77   44.09
  -7  -3   0  595.89   29.93
   7   3   1    2.80    5.65
   7   3   1   17.86   14.12
  -7  -3  -1   17.90    6.21
  -7  -3  -1    8.71    7.08
   7   3   2   28.25   20.33
  -7  -3  -2   25.55   11.90
  -7  -3  -2    1.15    6.71
   7   3   3   18.86   21.23
  -7  -3  -3   19.10   26.12
  -7  -3  -3   14.09    9.46
   7   3   4  818.62   67.12
  -7  -3  -4  956.49   51.36
  -7  -3  -4  710.28   43.06
   7   3   5 2828.34  137.94
  -7  -3  -5 2197.54  179.47
  -7  -3  -5 2417.70   96.58
   7   3   6 2712.07  151.91
  -7  -3  -6 2672.34  201.70
  -7  -3  -6 2418.06  137.82
   7   3   7  485.08   70.36
  -7  -3  -7  592.94   50.63
  -7  -3  -7  467.23   39.45
   7   3   8   -1.48   15.02
  -7  -3  -8   32.40   17.39
   7   3   9   33.34   17.62
   7   3   9   21.25   16.54
  -7  -3  -9   36.95   22.85
   7   3  10  341.08   98.89
   7   3  10  458.75   50.68
  -7  -3 -10  384.24   73.93
   7   3  11  462.37  110.64
   7   3  11  712.20   65.53
   7   3  12    5.49    9.25
  -7  -3 -12   12.70   11.92
  -7  -4  20  164.81   68.32
   7   4 -19  410.30   52.15
  -7  -4  19  336.89   98.45
  -7  -4  19  289.60   48.52
   7   4 -18  432.10   64.93
  -7  -4  18  433.28   51.15
  -7  -4  18  418.87   50.46
   7   4 -17   19.02    8.94
  -7  -4  17   24.74   14.28
  -7  -4  17   46.87   20.40
   7   4 -16   18.24   15.05
  -7  -4  16   18.34   21.39
  -7  -4  16   22.16   16.79
   7   4 -15  854.81   94.03
  -7  -4  15  808.96   97.38
  -7  -4  15  690.28   57.32
   7   4 -14 1561.65  109.39
  -7  -4  14 1521.01   97.80
  -7  -4  14 1483.37   92.47
   7   4 -13  242.12   64.53
  -7  -4  13  248.53   83.77
  -7  -4  13  309.26   33.59
   7   4 -12   37.67   13.25
  -7  -4  12   36.13   22.21
   7   4 -11    3.66   15.47
   7   4 -11   11.20    9.20
  -7  -4  11   48.02   21.43
   7   4 -10 1210.49   72.35
   7   4 -10 1297.47   64.43
  -7  -4  10 1264.88   62.73
   7   4  -9 1867.40   85.71
   7   4  -9 2162.34   87.15
  -7  -4   9 1859.80   79.92
   7   4  -8  435.41   43.52
   7   4  -8  372.64   31.43
  -7  -4   8  396.37   25.73
   7   4  -7  361.70   23.43
   7   4  -7  377.44   46.87
  -7  -4   7  342.76   71.15
   7   4  -6  178.32   21.28
   7   4  -6  173.90   46.47
  -7  -4   6  214.30   50.36
  -7  -4   6  156.13    7.55
   7   4  -5  202.41   45.50
   7   4  -5  172.33   44.97
  -7  -4   5  187.44   39.99
  -7  -4   5  171.20   10.20
   7   4  -4  474.32   51.64
   7   4  -4  591.01   44.02
  -7  -4   4  453.10   41.60
  -7  -4   4  435.33   19.32
   7   4  -3 2293.35   88.47
   7   4  -3 2219.89  116.61
  -7  -4   3 2260.46   91.67
  -7  -4   3 2229.07   80.38
   7   4  -2   36.69   14.30
   7   4  -2   35.49   18.55
  -7  -4   2   27.97   14.33
  -7  -4   2   10.42    4.12
   7   4  -1   54.28   15.44
   7   4  -1   59.98   15.65
  -7  -4   1   90.03   23.63
  -7  -4   1   84.54   20.36
   7   4   0    8.15    6.12
   7   4   0   22.93   11.12
  -7  -4   0   17.28   10.54
  -7  -4   0    7.46    8.00
   7   4   1  727.98   89.76
  -7  -4  -1  627.86   75.90
  -7  -4  -1  639.68   32.04
   7   4   2   22.87   24.86
  -7  -4  -2   28.84   20.31
  -7  -4  -2   40.07   13.08
   7   4   3   39.92   20.14
  -7  -4  -3   89.85   37.19
  -7  -4  -3   45.10   20.88
   7   4   4  137.53   42.29
  -7  -4  -4  205.19   63.32
  -7  -4  -4   73.40   37.53
   7   4   5  830.36   65.89
  -7  -4  -5  840.11   80.71
  -7  -4  -5  782.59   36.72
   7   4   6 1163.79  132.87
  -7  -4  -6 1199.75  126.24
  -7  -4  -6 1112.58   61.88
   7   4   7  129.19   40.65
  -7  -4  -7  199.18   59.32
  -7  -4  -7  140.43   41.78
   7   4   8   28.70   14.51
  -7  -4  -8   28.19   17.82
  -7  -4  -8   15.78    8.44
   7   4   9  416.87   76.61
   7   4   9  450.19  102.26
  -7  -4  -9  383.07   52.61
   7   4  10  128.09   64.07
   7   4  10  206.27   73.36
  -7  -4 -10  204.60   80.29
  -7  -4 -11  459.96   75.83
  -7  -5  19  172.33   88.51
   7   5 -18  331.14   82.79
  -7  -5  18  221.98   78.26
  -7  -5  18  228.60   72.08
   7   5 -17   52.89   21.65
  -7  -5  17   48.54   26.38
  -7  -5  17   70.52   23.39
   7   5 -16   26.17   13.15
  -7  -5  16   10.98   21.56
  -7  -5  16    6.09    9.71
   7   5 -15  610.72   59.22
  -7  -5  15  547.60   82.82
   7   5 -14  256.71   44.13
   7   5 -14  155.23   58.76
  -7  -5  14  192.29   30.99
   7   5 -13   34.54   26.66
   7   5 -13   41.60   15.62
  -7  -5  13   42.34   23.25
   7   5 -12   84.23   30.28
   7   5 -12  104.14   23.45
  -7  -5  12   84.11   39.28
   7   5 -11  396.73   47.69
   7   5 -11  463.44   29.10
  -7  -5  11  453.68   61.74
   7   5 -10 1721.09   85.23
   7   5 -10 1709.53   80.84
  -7  -5  10 1599.57  104.00
   7   5  -9 2324.77   99.93
   7   5  -9 2399.55   94.63
  -7  -5   9 2599.25   95.62
   7   5  -8  291.77   38.55
   7   5  -8  245.57   66.71
  -7  -5   8  225.86   60.29
   7   5  -7  228.33   59.34
   7   5  -7  237.59   46.15
  -7  -5   7  224.75   40.39
  -7  -5   7  155.96   14.07
   7   5  -6  151.46   33.10
   7   5  -6  152.25   37.37
  -7  -5   6  220.89   50.65
  -7  -5   6  124.13   20.61
   7   5  -5  589.14   50.20
   7   5  -5  617.66   63.93
  -7  -5   5  633.58   59.77
  -7  -5   5  540.47   28.89
   7   5  -4 1191.22   58.20
   7   5  -4 1185.10   39.92
  -7  -5   4 1242.16   78.42
  -7  -5   4 1053.12   57.92
   7   5  -3  453.85   29.64
   7   5  -3  489.88   40.03
  -7  -5   3  484.09   60.37
  -7  -5   3  391.75   22.07
   7   5  -2    4.46    9.10
   7   5  -2    4.43   18.49
  -7  -5   2   29.90   17.16
  -7  -5   2    5.94    4.06
   7   5  -1  165.34   20.56
   7   5  -1  283.18   73.08
  -7  -5   1  236.84   35.00
  -7  -5   1  172.61   28.74
   7   5   0 1601.07   64.01
   7   5   0 1679.31   87.52
  -7  -5   0 1814.59  141.29
  -7  -5   0 1582.40   71.81
   7   5   1 1312.80  121.69
  -7  -5  -1 1513.74   95.42
  -7  -5  -1 1401.63   75.86
   7   5   2  151.13   46.48
  -7  -5  -2  281.08   61.74
  -7  -5  -2  144.65   32.91
   7   5   3   17.41   20.68
  -7  -5  -3   19.34   21.54
  -7  -5  -3   10.77    5.83
   7   5   4  119.60   49.05
  -7  -5  -4  124.00   55.60
  -7  -5  -4   93.98   41.54
   7   5   5 1020.35  103.00
  -7  -5  -5 1046.04  116.04
  -7  -5  -5  891.94   60.66
   7   5   6  787.54  115.38
  -7  -5  -6  705.04   69.14
  -7  -5  -6  624.40   70.96
   7   5   7   94.17   39.19
  -7  -5  -7   95.33   39.70
  -7  -5  -7  130.08   43.07
   7   5   8   16.16   13.44
  -7  -5  -8   12.02   16.28
  -7  -5  -8   11.91   12.76
   7   5   9 1235.40  101.51
   7   5   9 1004.86   78.18
   7   5  10  178.80   77.81
  -7  -5 -10  165.41   71.66
   7   6 -19  163.60   50.78
  -7  -6  19  131.35   65.64
   7   6 -18  341.91   68.13
   7   6 -18  203.61   97.44
  -7  -6  18  280.67   87.42
   7   6 -17   -0.87   16.76
   7   6 -17   -4.29    9.28
  -7  -6  17   37.84   29.79
   7   6 -16   15.79   13.56
   7   6 -16    8.62   16.36
  -7  -6  16    6.86    9.51
   7   6 -15  144.44   44.67
   7   6 -15  109.27   33.79
  -7  -6  15  111.88   46.30
   7   6 -14   32.77   30.60
   7   6 -14   77.52   27.93
  -7  -6  14   79.46   32.47
   7   6 -13   54.83   23.55
   7   6 -13   80.07   25.52
  -7  -6  13   39.68   23.14
   7   6 -12   14.45   19.14
   7   6 -12   62.37   26.23
  -7  -6  12   48.78   18.58
   7   6 -11  155.06   48.79
   7   6 -11  151.38   39.13
  -7  -6  11  154.25   33.76
   7   6 -10  981.62   95.88
   7   6 -10  998.12   91.15
  -7  -6  10 1094.34   93.55
   7   6  -9 2478.84   97.14
   7   6  -9 2676.40  106.68
  -7  -6   9 2425.61  112.57
   7   6  -8 1435.57   87.18
   7   6  -8 1427.07  100.51
  -7  -6   8 1473.45   71.62
   7   6  -7   41.69   12.75
   7   6  -7   36.15   24.55
  -7  -6   7   37.10   19.14
   7   6  -6 1475.98   67.60
   7   6  -6 1349.32   95.58
  -7  -6   6 1436.63  111.42
  -7  -6   6 1487.72   59.11
   7   6  -5  929.67   49.46
   7   6  -5  841.74   48.08
  -7  -6   5  923.32   88.11
  -7  -6   5  865.55   35.66
   7   6  -4  412.14   47.07
   7   6  -4  363.87   36.31
  -7  -6   4  434.20   63.00
  -7  -6   4  324.31   20.96
   7   6  -3 1731.42   71.84
   7   6  -3 1869.87  124.66
  -7  -6   3 1900.50   76.02
  -7  -6   3 1839.74   69.05
   7   6  -2   57.19   15.43
   7   6  -2   51.68   25.78
  -7  -6   2   10.88   20.55
  -7  -6   2   56.15   16.64
   7   6  -1  368.42  100.44
  -7  -6   1  317.21   46.42
  -7  -6   1  302.50   46.29
   7   6   0  435.10   43.63
  -7  -6   0  550.66   56.18
  -7  -6   0  580.02   29.93
   7   6   1  505.25   52.96
  -7  -6  -1  549.09  103.27
  -7  -6  -1  465.50   22.45
   7   6   2   43.74   32.50
  -7  -6  -2   37.71   22.55
  -7  -6  -2   17.70   13.09
   7   6   3   75.89   53.89
  -7  -6  -3   49.08   36.87
  -7  -6  -3   96.03   47.49
   7   6   4  233.45   54.58
  -7  -6  -4  200.75   72.21
  -7  -6  -4  136.23   43.43
   7   6   5  443.30   64.54
  -7  -6  -5  327.91   38.56
  -7  -6  -5  201.79   78.67
   7   6   6  183.24   63.47
  -7  -6  -6  193.89   67.14
  -7  -6  -6  110.29   45.44
   7   6   7   46.33   34.20
  -7  -6  -7   42.88   17.10
  -7  -6  -7   25.75   22.11
   7   6   8   27.74   22.86
  -7  -6  -8   21.73   15.20
  -7  -6  -8    7.20   11.41
  -7  -6  -9  874.05   66.19
   7   7 -18  165.77   89.42
  -7  -7  18  112.72   67.60
   7   7 -17   58.82   26.59
   7   7 -17   24.60   12.63
   7   7 -16  151.21   63.84
   7   7 -16  144.80   63.51
  -7  -7  16  212.86   70.99
   7   7 -15  213.24   70.08
   7   7 -15  235.19   52.94
  -7  -7  15  210.28   72.80
   7   7 -14  120.18   47.94
   7   7 -14  143.94   51.36
  -7  -7  14   95.85   52.39
   7   7 -13   98.80   51.25
   7   7 -13   85.99   38.46
  -7  -7  13  125.29   35.15
   7   7 -12   52.66   28.42
   7   7 -12   87.78   19.75
  -7  -7  12   65.34   22.13
   7   7 -11  455.79   39.65
   7   7 -11  357.93   39.83
  -7  -7  11  402.37   83.44
   7   7 -10  904.65   71.63
   7   7 -10  833.84   44.99
  -7  -7  10  939.01   53.11
   7   7  -9 2022.91  116.61
   7   7  -9 2016.86   99.24
  -7  -7   9 1965.31  101.05
   7   7  -8 1025.23  101.54
   7   7  -8 1126.09   63.25
  -7  -7   8 1194.89   97.15
   7   7  -7  402.00   50.40
   7   7  -7  381.79   64.58
  -7  -7   7  369.62   41.81
   7   7  -6   70.57   23.23
   7   7  -6   60.11   32.92
  -7  -7   6   72.10   31.65
   7   7  -5 1215.21   79.73
   7   7  -5 1425.82   88.54
  -7  -7   5 1348.57   85.93
  -7  -7   5 1194.11   65.81
   7   7  -4 1606.86   80.62
   7   7  -4 1694.33  114.49
  -7  -7   4 1729.47   83.07
  -7  -7   4 1795.61   66.88
   7   7  -3 1093.18   48.51
  -7  -7   3 1024.17   52.30
  -7  -7   3  951.31   64.98
   7   7  -2  350.32   36.25
   7   7  -2  390.66   75.30
  -7  -7   2  392.55   48.68
  -7  -7   2  404.21   18.09
   7   7  -1   -0.39    7.33
  -7  -7   1   13.52    9.94
  -7  -7   1   24.95   17.72
   7   7   0  663.95   60.11
  -7  -7   0  569.71   57.16
  -7  -7   0  566.47   24.81
   7   7   1  234.24   59.03
  -7  -7  -1  294.39   55.93
  -7  -7  -1  205.19   58.75
   7   7   2   70.11   38.40
  -7  -7  -2  161.75   42.44
  -7  -7  -2   84.23   38.33
   7   7   3  103.27   46.08
  -7  -7  -3   85.12   35.78
  -7  -7  -3   98.01   31.06
   7   7   4  466.69   44.82
  -7  -7  -4  524.32   54.22
  -7  -7  -4  541.83   24.79
   7   7   5  257.89   99.78
  -7  -7  -5  368.35   49.98
  -7  -7  -5  289.35   42.19
  -7  -7  -6  109.56   51.38
  -7  -7  -6  104.97   42.69
   7   7   7   23.35   16.31
  -7  -7  -7   28.54   19.06
  -7  -7  -7   33.20   21.14
  -7  -7  -9  123.43   75.39
   7   8 -18   61.07   21.53
  -7  -8  18  141.20   43.91
   7   8 -17   68.47   31.14
   7   8 -16  131.82   36.39
   7   8 -16   94.22   37.96
  -7  -8  16  155.59   49.98
   7   8 -15   39.72   17.22
   7   8 -15   23.50   20.97
  -7  -8  15   29.22   27.33
   7   8 -14  170.56   35.44
  -7  -8  14  166.14   55.12
   7   8 -13  161.21   44.11
   7   8 -13  196.96   57.62
  -7  -8  13  171.57   80.36
   7   8 -12   26.44   19.81
   7   8 -12   41.71   28.39
  -7  -8  12   15.42   20.17
   7   8 -11  384.70   88.12
   7   8 -11  599.04   79.14
  -7  -8  11  522.45   61.47
   7   8 -10  260.81   33.93
   7   8 -10  244.99   26.05
  -7  -8  10  206.59   67.40
   7   8  -9  137.80   40.44
   7   8  -9  128.34   51.70
  -7  -8   9  145.33   51.43
   7   8  -8    1.77   17.07
   7   8  -8   44.44   24.10
  -7  -8   8   23.62   25.94
   7   8  -7   -9.73   17.60
   7   8  -7   14.08   16.01
  -7  -8   7   14.59   18.58
   7   8  -6  322.85   52.81
   7   8  -6  344.42   39.75
  -7  -8   6  362.97   45.31
   7   8  -5 1236.48   78.26
   7   8  -5 1374.69  136.97
  -7  -8   5 1473.07   90.15
   7   8  -4 1253.69   66.12
   7   8  -4 1331.13   81.54
  -7  -8   4 1203.38   79.12
  -7  -8   4 1189.23   67.99
   7   8  -3  299.92   50.38
   7   8  -3  382.94   40.96
  -7  -8   3  355.12   50.36
  -7  -8   3  297.66   34.94
   7   8  -2   46.97   22.05
   7   8  -2   66.03   25.99
  -7  -8   2   96.45   39.40
  -7  -8   2   64.11   17.55
   7   8  -1   50.38   24.30
  -7  -8   1   13.56   22.36
  -7  -8   1    4.28    6.90
   7   8   0  401.33   94.41
  -7  -8   0  309.97   46.27
  -7  -8   0  284.84   30.89
   7   8   1  184.70   75.04
  -7  -8  -1   97.56   37.59
  -7  -8  -1   89.91   41.47
   7   8   2  273.51   90.95
  -7  -8  -2  304.44   74.82
  -7  -8  -2  347.91   35.35
   7   8   3   -2.18   19.84
  -7  -8  -3   10.76    5.79
   7   8   4  549.43   95.73
  -7  -8  -4  383.86   80.66
  -7  -8  -4  422.37   58.56
   7   8   5 1128.62  130.11
  -7  -8  -5 1161.70   93.46
  -7  -8  -5 1200.53   74.13
  -7  -8  -6  270.64   40.00
  -7  -8  -6  232.00  105.83
  -7  -8  -7   13.35   11.67
   7   9 -17  122.67   41.52
  -7  -9  17  153.55   59.79
   7   9 -16   -1.07   17.53
   7   9 -16    8.05   14.34
  -7  -9  16   34.01   24.67
   7   9 -15    0.92   14.44
   7   9 -15   36.84   17.93
  -7  -9  15   -9.51   18.29
   7   9 -14  229.40   81.83
   7   9 -14  212.65   74.96
  -7  -9  14  227.67   77.46
   7   9 -13   15.50   19.33
   7   9 -13   19.01   12.69
  -7  -9  13   23.50   19.77
   7   9 -12   11.69   19.91
   7   9 -12   22.19   18.19
  -7  -9  12   12.56   17.51
   7   9 -11  126.76   52.60
   7   9 -11  108.46   48.97
  -7  -9  11  109.31   33.69
   7   9 -10  345.05   47.60
   7   9 -10  273.31   38.68
  -7  -9  10  321.91   42.47
   7   9  -9   93.34   42.14
   7   9  -9   83.68   33.93
  -7  -9   9   98.89   30.11
   7   9  -8  100.33   30.57
   7   9  -8  102.95   30.76
  -7  -9   8   68.91   21.80
   7   9  -7   36.19   19.12
   7   9  -7   16.49   12.37
  -7  -9   7    5.51   17.23
   7   9  -6  459.40   44.10
   7   9  -6  587.08   69.45
  -7  -9   6  394.58  121.04
   7   9  -5 1342.30  110.28
   7   9  -5 1190.65  101.76
  -7  -9   5 1265.96  101.94
   7   9  -4  600.36   36.14
   7   9  -4  570.85   64.67
  -7  -9   4  577.90   50.85
   7   9  -3  847.07   60.53
   7   9  -3  773.01   91.75
  -7  -9   3  861.37   56.87
   7   9  -2   54.62   30.78
  -7  -9   2   30.88   18.10
  -7  -9   2   29.54   15.51
   7   9  -1  180.99  111.07
  -7  -9   1  275.97   50.21
  -7  -9   1  198.47   27.67
   7   9   0  295.97   48.72
  -7  -9   0  245.59   55.93
   7   9   1  149.49   47.70
  -7  -9  -1  203.37   49.69
  -7  -9  -1  140.03   52.20
   7   9   2  533.95   45.69
  -7  -9  -2  409.56   89.92
  -7  -9  -2  509.48   25.55
   7   9   3  158.58   57.20
  -7  -9  -3  134.09   38.67
  -7  -9  -3   95.61   40.89
   7   9   4   42.30   37.85
  -7  -9  -4   77.45   33.00
  -7  -9  -4   67.90   25.14
  -7  -9  -5  151.11   66.58
  -7  -9  -5  121.67   60.09
   7  10 -16   35.27   25.88
  -7 -10  16   39.62   16.18
   7  10 -15   26.14   17.80
   7  10 -15    7.34    8.83
  -7 -10  15   45.49   27.26
   7  10 -14  212.12   74.63
   7  10 -14  213.76   67.62
  -7 -10  14  264.09   94.40
   7  10 -13  278.81   32.48
   7  10 -13  186.94   74.92
  -7 -10  13  378.16   57.68
   7  10 -12   47.60   27.31
   7  10 -12   46.21   29.85
  -7 -10  12   74.70   23.58
   7  10 -11   51.46   23.70
   7  10 -11   49.90   30.43
  -7 -10  11   24.43   14.09
   7  10 -10  141.91   37.65
   7  10 -10  113.99   67.23
  -7 -10  10  150.75   44.64
   7  10  -9    9.72   17.31
  -7 -10   9   91.17   37.80
   7  10  -8  131.37   44.84
  -7 -10   8  153.51   55.65
   7  10  -7   62.95   32.94
  -7 -10   7   75.51   42.75
   7  10  -6  178.92   25.63
   7  10  -6  156.07   64.17
  -7 -10   6  143.03   58.87
   7  10  -5  504.00   73.38
   7  10  -5  543.67   93.34
  -7 -10   5  438.95  118.32
   7  10  -4 1320.94   76.32
   7  10  -4 1300.10   86.14
  -7 -10   4 1198.41   89.12
   7  10  -3 1053.71   61.37
  -7 -10   3  747.12   88.67
   7  10  -2   34.57   15.84
  -7 -10   2   44.90   27.76
   7  10  -1  143.93   64.90
  -7 -10   1   95.59   54.79
   7  10   0  526.27   61.43
  -7 -10   0  586.45   79.29
   7  10   1  389.18   70.47
  -7 -10  -1  355.87   90.04
   7  10   2  244.44  108.39
  -7 -10  -2  292.42   49.31
  -7 -10  -3    2.90   11.21
   7  11 -15  118.18   59.13
  -7 -11  15   98.05   42.13
   7  11 -14  106.63   43.22
  -7 -11  14  155.18   42.03
   7  11 -13  139.93   62.71
   7  11 -13  154.21   54.62
  -7 -11  13  138.21   57.58
   7  11 -12   30.31   21.19
   7  11 -12   42.33   24.18
  -7 -11  12   92.00   32.04
   7  11 -11  275.13   59.03
   7  11 -11  360.35   49.19
  -7 -11  11  202.08   72.24
   7  11 -10  838.79  107.69
   7  11 -10  853.89   47.28
  -7 -11  10  905.72  106.59
   7  11  -9  235.15   48.53
   7  11  -9  195.03   69.11
  -7 -11   9  247.16   83.75
   7  11  -8   11.46    9.68
   7  11  -8   16.96   13.87
  -7 -11   8   10.79   20.38
   7  11  -7   99.22   37.35
   7  11  -7  107.14   49.95
  -7 -11   7  152.84   35.09
   7  11  -6  186.94   52.68
   7  11  -6  154.72   61.99
  -7 -11   6  172.65   60.65
   7  11  -5  687.43   62.10
   7  11  -5  643.32   84.32
  -7 -11   5  680.57   97.30
   7  11  -4  636.28   47.54
  -7 -11   4  588.16   53.73
   7  11  -3   20.30   12.98
  -7 -11   3   33.18   20.87
   7  11  -2   53.50   52.03
  -7 -11   2  116.41   40.40
   7  11  -1  526.22   81.20
  -7 -11   1  518.52   65.75
   7  11   0  449.68   88.24
  -7 -11   0  457.60   58.67
  -7 -11  -1  505.25   89.05
   7  12 -14   69.84   26.63
   7  12 -13   83.53   45.51
  -7 -12  13  136.89   47.77
   7  12 -12   28.64   30.87
   7  12 -12   21.19   17.65
  -7 -12  12   39.22   26.62
   7  12 -11  584.40   89.52
   7  12 -11  725.93   35.68
  -7 -12  11  725.06   42.01
   7  12 -10  377.90   44.31
   7  12 -10  395.02   73.38
  -7 -12  10  461.96   49.52
   7  12  -9   51.83   26.76
   7  12  -9   58.03   38.64
  -7 -12   9   62.24   30.10
   7  12  -8   63.74   47.21
   7  12  -8   85.46   45.39
  -7 -12   8  121.83   58.90
   7  12  -7   76.10   37.95
   7  12  -7  109.30   48.04
  -7 -12   7  140.39   54.48
   7  12  -6  844.60   65.62
   7  12  -6  857.39  106.90
  -7 -12   6  865.69   57.17
   7  12  -5  944.87   90.51
  -7 -12   5 1160.69   83.39
   7  12  -4  576.35   49.26
  -7 -12   4  465.05   72.92
   7  12  -3   30.47   36.55
  -7 -12   3   18.04   29.17
   7  12  -2  158.66   54.98
  -7 -12   1 1329.64  100.05
   7  13 -12   13.84   16.51
   7  13 -11   39.70   12.34
   7  13 -10   36.45   28.30
  -7 -13  10   64.97   33.11
   7  13  -9   74.74   35.58
  -7 -13   9   78.42   38.17
   7  13  -8   38.12   24.23
   7  13  -8   11.92    9.43
  -7 -13   8    3.07   22.93
   7  13  -7   22.82   12.97
   7  13  -6  387.29   57.77
  -7 -13   6  412.63   47.20
   7  13  -5  543.99  130.41
   7  14 -10   74.49   30.94
   7  14  -9   24.35   14.03
   7  14  -9   13.31   22.18
   7  14  -8    4.26   11.25
   7  14  -7   11.26   11.99
   8 -17  -1  291.43   36.22
   8 -17   2  472.33   55.52
   8 -17   3    8.37   18.84
   8 -17   4   82.13   61.67
   8 -17   5   77.91   57.65
   8 -17   6   31.63   20.49
   8 -17   7   15.83   15.99
  -8  16   4  786.32   89.22
   8 -16  -3   10.74    4.47
  -8  16   3   56.81   20.02
   8 -16  -2   25.94   18.06
   8 -16   0  587.88   62.71
   8 -16   0  557.05   59.71
   8 -16   1  501.82   55.76
   8 -16   1  450.55   56.06
   8 -16   2  375.20   77.98
   8 -16   2  400.90   65.76
   8 -16   3    6.78   14.20
  -8  16  -3   -8.71   14.80
   8 -16   4   76.04   54.62
  -8  16  -4   66.71   20.18
   8 -16   5   86.69   45.51
  -8  16  -5  128.45   41.49
   8 -16   6   90.85   56.21
  -8  16  -6  125.89   41.27
  -8  16  -7   -3.05   12.58
   8 -16   8   19.68   11.92
  -8  16  -8   18.42    8.57
   8 -16   9   38.87   29.36
  -8  16  -9   49.25   27.16
  -8  16 -10   15.32   11.29
  -8  15   6  314.29  114.96
   8 -15  -5  969.16  109.15
  -8  15   5 1333.90   93.41
   8 -15  -4  171.84   87.05
  -8  15   4  169.17   64.01
   8 -15  -3  389.47   46.69
   8 -15  -3  434.69   31.48
  -8  15   3  377.24   58.81
   8 -15  -2   24.70   17.79
   8 -15  -2    4.13   11.70
  -8  15   2   14.04   11.29
   8 -15  -1  435.90   62.63
   8 -15  -1  303.15   43.08
  -8  15   1  436.33   32.53
   8 -15   0 1057.95   54.22
   8 -15   0  972.29   53.45
   8 -15   1 1032.34   61.23
   8 -15   1 1000.65   62.62
   8 -15   2  267.96   39.99
   8 -15   2  153.60   72.10
   8 -15   3   -1.78   13.17
  -8  15  -3   23.73   10.84
   8 -15   4  114.83   55.81
  -8  15  -4  141.07   64.07
   8 -15   5  634.92   84.99
  -8  15  -5  813.79   75.92
  -8  15  -6  545.46   92.56
   8 -15   7   49.53   20.53
  -8  15  -7   49.80   32.26
   8 -15   8   43.46   32.85
  -8  15  -8  120.11   48.24
   8 -15   9   -2.35   14.73
  -8  15  -9   29.76   17.19
   8 -15  10   11.34   11.04
  -8  14   7  210.95   82.00
   8 -14  -6   16.44   15.59
  -8  14   6   45.81   34.99
   8 -14  -5   13.97   21.51
   8 -14  -5   19.60   17.00
   8 -14  -4  192.35   79.99
   8 -14  -4  267.13   30.22
  -8  14   4  166.95   68.90
   8 -14  -3   15.05   10.71
   8 -14  -3   25.09   15.10
  -8  14   3   37.51   14.82
   8 -14  -2  180.12   68.80
   8 -14  -2  180.31   24.66
  -8  14   2  118.53   42.22
   8 -14  -1  810.08  117.78
   8 -14  -1  951.60   60.83
  -8  14   1  780.22   41.78
   8 -14   0  838.33   84.44
   8 -14   0  898.10   62.49
  -8  14   0  835.13   47.31
   8 -14   1  549.15   52.21
   8 -14   1  538.57   28.84
  -8  14  -1  406.29   61.47
   8 -14   2  156.40   73.68
   8 -14   2  176.68   35.17
   8 -14   3   10.20   10.08
  -8  14  -3   14.95   12.55
   8 -14   4  137.32   55.53
  -8  14  -4  141.41   51.77
   8 -14   5  350.80   51.01
  -8  14  -5  313.39   69.02
   8 -14   6  446.55   68.14
  -8  14  -6  502.69   58.41
   8 -14   7  120.49   46.90
  -8  14  -7  118.52   35.32
   8 -14   8    8.62    9.83
  -8  14  -8   19.73   17.34
  -8  14  -9  368.03   46.43
   8 -14  10  115.17   27.85
  -8  14 -10  120.21   36.47
   8 -14  11    7.76   16.45
   8 -14  12   10.82    9.43
   8 -13  -8  274.81   93.22
  -8  13   8  305.70   40.88
   8 -13  -7  160.20   34.37
  -8  13   7  143.72   48.86
   8 -13  -6   33.92   23.80
   8 -13  -6   24.93   18.38
  -8  13   6   63.39   25.02
   8 -13  -5   92.48   32.17
   8 -13  -5   86.24   40.53
  -8  13   5  123.63   35.89
   8 -13  -4   40.49   30.77
   8 -13  -4   62.43   44.66
  -8  13   4   82.62   48.65
   8 -13  -3   66.55   17.31
   8 -13  -3   54.75   22.26
  -8  13   3   66.16   30.22
   8 -13  -2  163.67   60.27
   8 -13  -2  147.34   44.99
  -8  13   2  154.50   51.45
   8 -13  -1 1319.23   78.49
   8 -13  -1 1361.54   80.45
  -8  13   1 1199.82   78.90
   8 -13   0 1254.36   79.16
   8 -13   0 1067.81   67.67
  -8  13   0 1081.87   80.58
   8 -13   1 1336.30   85.75
   8 -13   1 1319.67   79.71
  -8  13  -1 1299.41   92.37
   8 -13   2   54.28   31.75
   8 -13   2   35.69   21.93
  -8  13  -2   27.40   14.76
   8 -13   3  178.01   29.19
   8 -13   4  493.80   62.07
  -8  13  -4  470.45   65.25
   8 -13   5 1110.78   64.79
   8 -13   6 2213.06  121.93
  -8  13  -6 2149.95  129.87
   8 -13   7  409.36   81.33
  -8  13  -7  358.75   92.85
   8 -13   8   16.61   18.78
  -8  13  -8   39.84   19.46
   8 -13   9  266.71   37.62
   8 -13  10  389.36   54.90
   8 -13  11  203.37   81.16
   8 -13  12   18.34   11.70
   8 -13  13   18.85   20.32
   8 -12  -9  497.41  129.60
  -8  12   9  377.60  120.05
   8 -12  -8  365.40   97.22
  -8  12   8  338.84   91.22
   8 -12  -7   68.19   36.67
  -8  12   7  112.51   44.81
   8 -12  -6   30.00   11.35
   8 -12  -6    8.35    8.82
  -8  12   6   16.65   16.64
   8 -12  -5  478.73   24.22
  -8  12   5  587.44  100.19
   8 -12  -4  112.90   32.02
   8 -12  -4   34.27   23.45
  -8  12   4   99.58   39.10
   8 -12  -3   25.74   17.47
   8 -12  -3   30.50   19.29
  -8  12   3   33.41   25.82
   8 -12  -2   20.00    8.27
   8 -12  -2   42.38   16.62
  -8  12   2    3.89    8.96
   8 -12  -1  564.17   73.11
   8 -12  -1  577.59   38.38
  -8  12   1  552.06   30.38
   8 -12   0 1445.61  101.34
   8 -12   0 1423.63  111.98
  -8  12   0 1445.15  116.66
   8 -12   1 1759.61  128.67
   8 -12   1 1568.56  127.34
  -8  12  -1 1839.92  125.04
   8 -12   2    4.30   10.48
   8 -12   2    9.33   14.94
  -8  12  -2   -0.08    8.44
   8 -12   3  305.27   83.62
   8 -12   3  265.62   71.30
  -8  12  -3  246.83   48.00
   8 -12   4 2300.54  156.42
  -8  12  -4 2150.04  158.04
   8 -12   5 1928.31  132.63
  -8  12  -5 1720.31  122.69
   8 -12   6 1425.66   91.09
  -8  12  -6 1389.85   94.65
   8 -12   7  711.75   49.08
  -8  12  -7  661.94   77.16
   8 -12   8    3.10   20.76
  -8  12  -8    4.44   11.58
   8 -12   9  266.53   43.37
  -8  12  -9  151.81   59.65
   8 -12  10  585.69   45.53
   8 -12  11  379.46   34.20
   8 -12  12  103.03   41.07
   8 -12  13   58.92   23.10
   8 -11 -11   12.80   11.56
  -8  11  11   -4.91   18.74
   8 -11 -10  802.18  116.07
  -8  11  10  944.77   64.05
   8 -11  -9 1049.11   58.88
  -8  11   9 1102.88   55.79
   8 -11  -8  667.80   62.26
  -8  11   8  815.41   40.84
   8 -11  -7   75.30   22.02
   8 -11  -7   34.98   25.17
  -8  11   7   80.61   37.14
   8 -11  -6  296.82   42.18
   8 -11  -6  176.07   44.71
  -8  11   6  333.77   43.68
   8 -11  -5  588.21   38.79
   8 -11  -5  483.52   39.65
  -8  11   5  508.55  109.84
   8 -11  -4  445.54   44.44
   8 -11  -4  485.15   26.28
  -8  11   4  474.12   37.96
   8 -11  -3   43.59   15.54
   8 -11  -3   77.10   30.91
  -8  11   3   61.19   14.14
   8 -11  -2   42.94   20.99
   8 -11  -2   30.49   19.92
  -8  11   2   96.83   23.10
   8 -11  -1  174.94   44.58
  -8  11   1  210.55   57.22
   8 -11   0  477.11   47.99
   8 -11   0  411.75   39.68
  -8  11   0  462.14   24.90
   8 -11   1  997.84   96.51
   8 -11   1 1094.06   66.15
  -8  11  -1  878.75   48.45
   8 -11   2   16.88   26.83
   8 -11   2   16.46   14.14
  -8  11  -2   -8.94    7.31
   8 -11   3  296.60   41.18
   8 -11   3  416.93   25.12
  -8  11  -3  351.04   27.10
   8 -11   4  608.49   53.40
   8 -11   4  576.44   26.06
  -8  11  -4  622.96   23.09
   8 -11   5  911.51   86.48
  -8  11  -5  956.68   62.86
   8 -11   6  137.53   41.47
  -8  11  -6  173.36   56.20
   8 -11   7   15.92   12.22
  -8  11  -7   26.95   17.83
   8 -11   8  236.06   81.74
  -8  11  -8  228.79   39.88
   8 -11   9  394.33   54.47
   8 -11   9  406.81   55.13
  -8  11  -9  369.62   65.71
   8 -11  10  412.98   68.96
   8 -11  10  413.25   48.51
   8 -11  11   70.37   31.74
   8 -11  11   40.82   28.61
   8 -11  12   41.65   28.06
   8 -11  12   19.00   18.38
   8 -11  14   57.32   49.30
   8 -10 -12   10.51   10.46
  -8  10  12   21.98   18.20
   8 -10 -11  134.45   31.56
  -8  10  11  152.03   57.28
   8 -10 -10 1070.86   60.55
  -8  10  10  993.49   95.27
   8 -10  -9 1457.06  102.15
  -8  10   9 1396.94  133.03
   8 -10  -8  528.66   76.88
  -8  10   8  435.53   87.98
   8 -10  -7   22.71   15.31
   8 -10  -7   15.77    9.26
  -8  10   7   27.78   13.83
   8 -10  -6   19.01   19.71
   8 -10  -6    9.76    8.83
  -8  10   6   11.82   16.79
   8 -10  -5 1131.83   96.58
   8 -10  -5  806.67   44.18
  -8  10   5  801.35   85.51
   8 -10  -4  512.04   50.91
   8 -10  -4  486.04   55.37
  -8  10   4  500.69   43.07
   8 -10  -3  182.67   57.93
   8 -10  -3  127.98   37.78
  -8  10   3  202.76   44.19
   8 -10  -2   41.65   20.95
   8 -10  -2   74.94   21.42
  -8  10   2   82.63   27.08
   8 -10  -1  271.34   47.02
   8 -10  -1  177.28   39.77
  -8  10   1  208.21   67.99
   8 -10   0  509.79   40.73
   8 -10   0  488.23   30.38
  -8  10   0  502.20   24.55
   8 -10   1  134.27   34.08
   8 -10   1  103.01   52.65
  -8  10  -1   97.54   16.32
   8 -10   2  375.95   41.15
   8 -10   2  329.00   38.56
  -8  10  -2  246.67   53.99
   8 -10   3  763.84   62.17
   8 -10   3  776.07   46.60
  -8  10  -3  709.61   57.94
   8 -10   4  678.58   35.86
   8 -10   4  642.35   39.54
   8 -10   5  856.04   39.11
   8 -10   5  742.52   29.57
   8 -10   5  696.46   40.69
   8 -10   5  795.33   35.79
   8 -10   6  576.27   35.78
   8 -10   6  626.48   33.64
   8 -10   7   12.90   10.17
   8 -10   7   -0.11   12.32
  -8  10  -7   13.20    6.62
   8 -10   8 1484.13  107.74
   8 -10   8 1403.26  104.63
  -8  10  -8 1404.86   97.39
   8 -10   9  327.02   39.96
   8 -10   9  378.93   47.31
   8 -10  10  697.49   73.92
   8 -10  10  621.06   78.67
   8 -10  11  102.49   53.59
   8 -10  11  123.77   52.89
   8 -10  12   21.69   13.74
   8 -10  13   39.59   24.73
  -8  10 -13   50.86   20.33
   8 -10  14   62.08   28.74
  -8  10 -14   85.93   42.69
   8 -10  15  253.36   50.35
   8  -9 -13   13.11   15.51
  -8   9  13   66.00   29.89
   8  -9 -12   70.24   39.67
  -8   9  12   53.08   25.62
   8  -9 -11 1306.24  116.59
  -8   9  11 1411.67   89.61
   8  -9 -10 1519.59   86.53
  -8   9  10 1687.01   99.36
   8  -9  -9 1162.53  135.62
  -8   9   9 1190.03   99.71
   8  -9  -8  449.42   65.13
  -8   9   8  467.26  118.02
   8  -9  -7   15.20   18.99
   8  -9  -7   19.63    8.75
  -8   9   7    8.63   18.61
   8  -9  -6   14.94   14.32
   8  -9  -6   15.75   10.07
  -8   9   6   44.48   26.83
   8  -9  -5  645.80  110.63
   8  -9  -5  548.15   26.98
  -8   9   5  538.23   30.47
   8  -9  -4  815.48   47.29
   8  -9  -4  847.85   41.13
  -8   9   4  832.91   42.57
   8  -9  -3   89.05   28.90
   8  -9  -3   72.12   16.16
  -8   9   3   29.30   21.44
   8  -9  -2   -3.17   16.93
   8  -9  -2    4.75   10.24
  -8   9   2   -3.55   12.62
   8  -9  -1   28.60   16.69
   8  -9  -1   41.63   18.54
  -8   9   1   54.56   15.21
   8  -9   0 1047.23   82.20
   8  -9   0 1105.00   61.31
  -8   9   0 1266.19   70.03
   8  -9   1   25.00   10.13
   8  -9   1   14.56   14.74
  -8   9  -1    9.51   11.26
   8  -9   2  143.69   36.28
   8  -9   2  176.24   26.84
   8  -9   2  108.37   32.45
  -8   9  -2  179.52   47.86
   8  -9   3  238.84   61.08
   8  -9   3  220.30   46.43
   8  -9   3  189.50   25.52
  -8   9  -3  197.25   63.52
   8  -9   4  426.47   56.36
   8  -9   4  492.32   27.48
   8  -9   4  400.01   46.52
   8  -9   4  439.75   30.56
   8  -9   5 1747.04   67.72
   8  -9   5 1762.17   80.93
   8  -9   5 1700.67   75.43
   8  -9   5 1591.37   50.22
   8  -9   6  608.17   38.97
   8  -9   6  604.66   67.53
   8  -9   6  642.20   33.38
   8  -9   6  732.31   30.64
   8  -9   7   -1.56    5.53
   8  -9   7   21.92   13.19
   8  -9   7   10.92   13.20
   8  -9   8  632.58   35.11
   8  -9   8  723.15   33.56
   8  -9   9  134.45   47.62
   8  -9   9  136.49   42.13
   8  -9  10  428.68   54.10
  -8   9 -10  465.88   61.65
   8  -9  11  443.91   61.83
  -8   9 -11  439.62   26.78
   8  -9  12   38.94   16.96
  -8   9 -12   30.02   18.33
   8  -9  13  181.70   73.42
  -8   9 -13  192.07   78.03
   8  -9  14  132.12   46.66
  -8   9 -14  116.04   55.85
   8  -8 -14  373.53   67.32
  -8   8  14  242.88  108.42
   8  -8 -13   12.43   20.45
   8  -8 -12  271.57   84.37
  -8   8  12  256.01   87.12
   8  -8 -11  829.44   52.14
  -8   8  11  855.98   53.07
   8  -8 -10 1027.92   70.77
  -8   8  10 1096.96   91.59
   8  -8  -9 1317.00   95.48
  -8   8   9 1219.66   88.95
   8  -8  -8   39.07   27.99
   8  -8  -8   35.70   11.44
  -8   8   8   55.39   17.92
   8  -8  -7  727.59   61.24
   8  -8  -7  717.78   30.44
  -8   8   7  851.59   49.96
   8  -8  -6  434.65   37.83
   8  -8  -6  373.65   39.53
  -8   8   6  457.35   64.33
   8  -8  -5 1013.04   79.18
   8  -8  -5 1029.60   41.90
  -8   8   5 1215.60   70.08
   8  -8  -4 1581.21   65.27
   8  -8  -4 1522.16   80.71
  -8   8   4 1650.27   73.26
   8  -8  -3  134.79   38.62
   8  -8  -3   70.32   19.75
  -8   8   3   80.30   24.89
   8  -8  -2   71.65   21.98
   8  -8  -2   84.98   19.89
  -8   8   2   80.47   19.79
   8  -8  -1  746.66   77.71
   8  -8  -1  553.23   28.83
   8  -8  -1  529.50   30.07
  -8   8   1  534.70   30.91
   8  -8   0   16.12    8.19
   8  -8   0   11.21    8.46
   8  -8   0    5.56    8.30
  -8   8   0   -2.15    9.50
   8  -8   1   15.41   10.94
   8  -8   1    9.75    5.21
   8  -8   1    1.35    4.16
  -8   8  -1    3.02    8.56
   8  -8   2  178.74   49.26
   8  -8   2  232.64   18.90
   8  -8   2  238.23   21.53
  -8   8  -2  233.03   47.40
   8  -8   3 1622.09   74.68
   8  -8   3 1639.58   85.60
   8  -8   3 1565.38   79.76
   8  -8   3 1686.57   76.84
   8  -8   4 1351.19   75.57
   8  -8   4 1295.36   69.49
   8  -8   4 1243.75   67.32
   8  -8   4 1190.25   63.68
   8  -8   5  979.44   74.53
   8  -8   5 1032.15   41.36
   8  -8   5  878.80   39.44
   8  -8   5  910.65   36.48
   8  -8   6  726.24   37.73
   8  -8   6  740.12   43.11
   8  -8   6  678.88   53.94
   8  -8   6  629.12   37.62
   8  -8   7   11.19    7.53
   8  -8   7   -3.10    8.49
   8  -8   7    9.74   11.09
   8  -8   8  174.44   40.31
  -8   8  -8  156.78   44.83
   8  -8   9  118.23   62.53
  -8   8  -9  172.92   51.54
   8  -8  10  418.99   39.91
  -8   8 -10  403.09   75.66
   8  -8  11  104.25   83.38
  -8   8 -11  183.22   47.15
   8  -8  12   10.69   18.49
  -8   8 -12    7.99   12.58
   8  -8  13   18.05   14.77
  -8   8 -13   27.94   23.40
  -8   8 -14  177.35   84.00
  -8   8 -15   32.53   27.76
   8  -7 -15  125.05   67.61
  -8   7  15  125.92   53.96
  -8   7  14   49.27   40.91
   8  -7 -13   42.51   26.35
  -8   7  13   28.68   19.88
   8  -7 -12   14.39   16.96
  -8   7  12    4.78   14.65
   8  -7 -11  488.55   50.30
  -8   7  11  528.70   90.18
   8  -7 -10 1157.87   89.76
  -8   7  10 1236.11  103.24
   8  -7  -9 1455.12   96.40
  -8   7   9 1276.24   99.24
   8  -7  -8   31.82   19.00
  -8   7   8   36.41   24.71
   8  -7  -7  241.25   91.11
   8  -7  -7  290.30   23.01
  -8   7   7  269.04   76.03
   8  -7  -6  503.97   44.14
   8  -7  -6  517.71   36.51
  -8   7   6  575.27   44.38
   8  -7  -5  746.96   62.78
   8  -7  -5  668.12   27.84
  -8   7   5  712.05   67.83
   8  -7  -4 2218.27   86.40
   8  -7  -4 2082.03   71.04
  -8   7   4 2131.70   75.48
   8  -7  -3   31.88   21.29
   8  -7  -3   11.13    9.82
  -8   7   3   21.97    7.73
  -8   7   3   14.91   11.90
   8  -7  -2 1572.81  106.31
   8  -7  -2 1599.03   59.66
  -8   7   2 1673.22   65.82
  -8   7   2 1632.46   72.35
   8  -7  -1 1149.18   87.66
   8  -7  -1 1043.85   59.62
  -8   7   1  999.27   53.31
  -8   7   1 1089.85   65.36
   8  -7   0  650.29   40.27
   8  -7   0  556.21   34.74
  -8   7   0  599.85   34.49
  -8   7   0  694.90   38.28
   8  -7   1  345.43   47.19
   8  -7   1  287.68   24.51
  -8   7  -1  276.78   13.40
  -8   7  -1  246.45   29.72
   8  -7   2  132.77   28.38
   8  -7   2   73.62   23.11
   8  -7   2   83.65   31.33
   8  -7   3 1175.25   50.14
   8  -7   3 1168.30   59.64
   8  -7   3 1246.25   57.87
   8  -7   3 1194.41   59.26
   8  -7   4  919.08   43.25
   8  -7   4  857.55   50.88
   8  -7   4  843.95   62.23
   8  -7   4  864.51   46.41
   8  -7   5  429.73   50.74
   8  -7   5  474.33   35.74
   8  -7   5  474.06   42.29
   8  -7   5  406.65   46.08
   8  -7   6   55.32   13.51
   8  -7   6   72.02   26.49
   8  -7   6   51.00   20.32
   8  -7   7  400.12   21.60
   8  -7   7  416.50   33.00
  -8   7  -7  367.58   51.34
   8  -7   8  800.76   82.91
  -8   7  -8  787.43   38.28
   8  -7   9 1726.42  125.99
  -8   7  -9 1643.25  113.57
   8  -7  10  796.82  100.03
  -8   7 -10  767.45   54.11
   8  -7  11  462.52   74.80
  -8   7 -11  480.56   33.11
   8  -7  12   34.82   17.09
  -8   7 -12   35.26   17.33
  -8   7 -13   27.79   19.61
   8  -7  14   50.25   47.08
  -8   7 -14   52.07   37.87
   8  -6 -15   21.31   25.96
  -8   6  15    6.36   13.24
   8  -6 -14   18.19    6.18
  -8   6  14   34.52   13.26
   8  -6 -13   19.81   12.44
  -8   6  13    5.50   12.60
   8  -6 -12  100.23   50.19
  -8   6  12   60.11   40.61
   8  -6 -11  724.76   88.19
  -8   6  11  634.35   67.76
   8  -6 -10 1622.47   91.75
  -8   6  10 1687.87   99.89
   8  -6  -9  501.55   93.09
  -8   6   9  503.13   43.05
   8  -6  -8   35.86   22.31
  -8   6   8   15.45   15.75
   8  -6  -7  279.39   30.13
  -8   6   7  350.80   21.71
  -8   6   7  343.03   26.22
   8  -6  -6 1852.97   86.48
   8  -6  -6 1709.20   73.40
  -8   6   6 1892.34   67.06
  -8   6   6 1729.56  101.09
   8  -6  -5 1367.63   65.70
   8  -6  -5 1124.17   56.33
  -8   6   5 1271.49   55.24
  -8   6   5 1281.30   57.45
   8  -6  -4 1115.74   62.46
   8  -6  -4 1214.56   46.13
  -8   6   4 1237.06   55.26
  -8   6   4 1139.20   88.80
   8  -6  -3   24.25   16.17
   8  -6  -3   12.97    4.86
  -8   6   3   16.08    8.35
  -8   6   3   25.81   12.06
   8  -6  -2    7.92    9.62
   8  -6  -2    0.25    3.74
  -8   6   2   12.67    6.41
  -8   6   2   14.00   20.38
   8  -6  -1 3715.77  127.11
   8  -6  -1 3712.53  113.86
  -8   6   1 3804.98  115.17
  -8   6   1 3810.76  144.19
   8  -6   0 2220.78   75.90
   8  -6   0 2338.46   73.52
  -8   6   0 2393.09   82.50
  -8   6   0 2361.38   76.49
   8  -6   1  189.64   38.31
   8  -6   1  135.79   32.02
  -8   6  -1  131.50   38.36
  -8   6  -1  166.43   37.49
   8  -6   2    8.60    7.73
   8  -6   2    8.53    5.00
   8  -6   2   10.44    7.61
  -8   6  -2   17.08   11.32
   8  -6   3  622.43   27.64
   8  -6   3  687.72   33.02
   8  -6   3  640.00   48.83
  -8   6  -3  643.80   32.06
   8  -6   4  904.45   35.02
   8  -6   4  752.08   48.98
   8  -6   4  874.23   44.89
   8  -6   4  823.63   42.58
   8  -6   5  853.13   32.89
   8  -6   5  791.82   39.68
   8  -6   5  726.60   65.99
  -8   6  -5  840.19   35.95
   8  -6   6   73.56   27.14
   8  -6   6   78.14   26.72
   8  -6   6   65.47   34.05
  -8   6  -6   96.62   22.47
   8  -6   7  296.90   22.22
   8  -6   7  253.51   35.17
  -8   6  -7  282.24   61.71
   8  -6   8  493.02   37.65
   8  -6   8  517.02   63.92
  -8   6  -8  489.67   95.45
   8  -6   9 1614.68  122.82
  -8   6  -9 1703.65  123.67
   8  -6  10  795.12   88.62
  -8   6 -10  968.51   60.31
   8  -6  11  664.97   37.78
  -8   6 -11  608.05   40.08
   8  -6  12   37.33   15.08
  -8   6 -12   18.65   15.79
   8  -6  14  100.76   78.58
  -8   6 -14  133.62   53.46
  -8   6 -15   95.34   40.84
   8  -5 -16   36.81   19.83
  -8   5  16   11.70   13.62
   8  -5 -15  273.03   37.86
  -8   5  15  284.20   40.34
   8  -5 -14   27.96   19.65
  -8   5  14   11.14   11.95
   8  -5 -13    9.81   12.73
  -8   5  13   21.39   14.29
  -8   5  12   15.18   20.76
   8  -5 -11  367.42   89.66
  -8   5  11  440.68   41.59
   8  -5 -10  834.29   80.84
  -8   5  10  815.89   47.25
  -8   5  10  843.36   56.23
   8  -5  -9  363.95   39.43
  -8   5   9  293.09   36.29
  -8   5   9  424.69   93.48
   8  -5  -8   25.21   19.31
  -8   5   8   11.56    6.03
  -8   5   8   24.97   14.99
   8  -5  -7  264.47   45.75
  -8   5   7  248.10   27.65
  -8   5   7  197.82   56.07
   8  -5  -6 2037.51   73.71
  -8   5   6 1966.61   42.07
  -8   5   6 1931.49   96.39
   8  -5  -5  264.74   83.50
   8  -5  -5  256.21   14.16
  -8   5   5  280.54   20.96
  -8   5   5  327.79   70.92
   8  -5  -4 1935.29   77.04
   8  -5  -4 1891.38   66.02
  -8   5   4 1935.17   78.58
  -8   5   4 2060.38   75.01
   8  -5  -3   63.91   21.94
   8  -5  -3   40.29    9.60
  -8   5   3   59.65   19.73
  -8   5   3   17.93   12.10
   8  -5  -2  344.05   27.11
   8  -5  -2  291.84   19.25
  -8   5   2  356.71   22.83
  -8   5   2  350.13   45.24
   8  -5  -1   30.88   13.25
   8  -5  -1   27.93    8.34
  -8   5   1   51.92   14.94
  -8   5   1   58.84   20.61
   8  -5   0  453.48   39.48
   8  -5   0  359.35   25.02
  -8   5   0  385.47   22.92
  -8   5   0  378.78   26.33
   8  -5   1  715.96   40.23
   8  -5   1  763.01   34.51
   8  -5   1  744.46   41.12
  -8   5  -1  698.91   36.51
   8  -5   2  322.26   18.55
   8  -5   2  315.94   30.48
   8  -5   2  344.12   28.33
  -8   5  -2  363.40   55.72
   8  -5   3  269.06   15.51
   8  -5   3  278.49   37.93
   8  -5   3  306.47   37.96
  -8   5  -3  310.28   20.57
   8  -5   4 1145.89   43.54
   8  -5   4 1291.98  101.92
  -8   5  -4 1242.56   70.87
  -8   5  -4 1216.27   33.85
   8  -5   5  995.74   40.97
   8  -5   5 1066.17   44.64
   8  -5   5 1142.82  101.61
  -8   5  -5 1024.18   56.72
   8  -5   6  117.13   32.16
   8  -5   6  167.17   60.00
  -8   5  -6  137.04   27.54
   8  -5   7  105.06   40.41
   8  -5   7  101.49   32.06
  -8   5  -7   99.27   51.51
   8  -5   8  310.97   53.35
   8  -5   8  427.35   40.28
  -8   5  -8  423.26   24.21
   8  -5   9 1434.77  103.10
   8  -5   9 1527.82  121.92
  -8   5  -9 1529.70  114.61
   8  -5  10  539.55   55.46
  -8   5 -10  464.24   55.96
   8  -5  11  275.18  103.78
  -8   5 -11  336.71   60.11
  -8   5 -12   44.71   28.13
   8  -5  13  139.42   68.07
  -8   5 -14  553.10   61.37
   8  -4 -17   18.64   13.60
  -8   4  17   16.14   12.14
  -8   4  16  175.41   72.19
   8  -4 -15  507.53  108.91
  -8   4  15  512.55   78.80
   8  -4 -14  249.31   66.92
  -8   4  14  152.13   50.49
   8  -4 -13    0.50   20.51
  -8   4  13    1.13    3.83
  -8   4  13  -15.54   18.61
   8  -4 -12  298.37   73.15
  -8   4  12  334.57   38.99
  -8   4  12  395.95  100.27
   8  -4 -11  243.61   72.56
  -8   4  11  187.47   46.16
  -8   4  11  262.54   69.39
   8  -4 -10  329.67   37.54
  -8   4  10  351.02   40.74
  -8   4  10  356.27   79.12
   8  -4  -9  250.41   65.52
  -8   4   9  224.10   28.74
  -8   4   9  185.09   26.03
   8  -4  -8    3.07   12.69
  -8   4   8   10.93   12.49
  -8   4   8   -3.46   18.64
   8  -4  -7   15.47   26.99
  -8   4   7   20.16   12.33
   8  -4  -6  942.25   53.79
  -8   4   6  975.03   60.85
  -8   4   6 1036.31   59.92
   8  -4  -5 2449.87  134.75
  -8   4   5 2608.69   82.80
  -8   4   5 2521.79   85.24
   8  -4  -4 1020.05   83.34
  -8   4   4 1163.02   53.08
  -8   4   4 1095.28   59.21
   8  -4  -3    0.92    6.79
  -8   4   3    8.27    9.57
  -8   4   3   18.81   10.20
   8  -4  -2   48.80   11.08
   8  -4  -2   41.80    9.32
  -8   4   2   68.07   17.12
  -8   4   2   79.56   17.19
   8  -4  -1   45.97   13.57
   8  -4  -1   54.19   16.10
  -8   4   1   71.07   17.43
  -8   4   1   77.71   19.06
   8  -4   0  535.45   31.17
   8  -4   0  546.85   33.13
   8  -4   0  587.98   62.31
  -8   4   0  625.32   37.26
   8  -4   1  353.87   18.43
   8  -4   1  334.70   20.32
   8  -4   1  338.96   45.03
  -8   4  -1  374.09   21.68
   8  -4   2    2.49    7.76
   8  -4   2    5.05    6.89
   8  -4   2   11.40   15.64
  -8   4  -2   14.51    9.67
   8  -4   3  227.42   22.87
   8  -4   3  255.44   33.37
  -8   4  -3  217.17   46.58
  -8   4  -3  241.28   22.11
   8  -4   4 1783.07   76.08
   8  -4   4 1784.01   74.95
  -8   4  -4 1920.75   79.85
  -8   4  -4 1593.46   65.84
   8  -4   5  926.52   71.96
  -8   4  -5  824.85   66.55
  -8   4  -5  913.75   61.76
   8  -4   6  192.61   28.41
   8  -4   6  213.75   65.01
  -8   4  -6  198.19   42.65
   8  -4   7  104.22   28.67
   8  -4   7  128.66   42.68
  -8   4  -7   60.21   38.16
   8  -4   8  844.62   56.87
   8  -4   8  883.51   38.96
  -8   4  -8  836.01   36.15
   8  -4   9  625.60   79.46
   8  -4   9  569.70   81.07
  -8   4  -9  649.73   60.73
   8  -4  10  540.16   70.54
   8  -4  10  621.78   82.71
  -8   4 -10  842.95   58.49
   8  -4  11  326.76   87.53
  -8   4 -11  368.38   54.72
   8  -4  12   28.44   26.46
  -8   4 -12   17.33    9.66
   8  -4  13  474.48   55.34
  -8   4 -13  318.73   66.64
  -8   4 -14  168.90   92.03
  -8   3  18   45.44   34.67
   8  -3 -17   42.29   23.28
  -8   3  17   50.54   27.66
   8  -3 -16   61.55   20.35
  -8   3  16   27.58   23.16
   8  -3 -15  253.88   55.00
  -8   3  15  214.56   41.34
   8  -3 -14  917.80  116.42
  -8   3  14  864.46   96.25
  -8   3  14 1031.19   66.93
   8  -3 -13   41.59   27.78
  -8   3  13   40.13   26.11
  -8   3  13   35.67   13.74
   8  -3 -12 1375.59   85.17
  -8   3  12 1314.59   78.88
  -8   3  12 1442.89   92.99
   8  -3 -11  645.54   41.98
  -8   3  11  582.46   32.73
  -8   3  11  602.36   52.35
   8  -3 -10  282.67   69.79
  -8   3  10  295.57   30.64
  -8   3  10  290.69   80.37
   8  -3  -9   96.26   35.88
  -8   3   9   92.94   34.36
  -8   3   9  107.18   28.46
   8  -3  -8   31.40   14.63
  -8   3   8   18.11   10.07
  -8   3   8   45.07   22.65
   8  -3  -7  915.83  106.82
  -8   3   7  863.40   72.89
  -8   3   7  898.78   85.21
   8  -3  -6 2987.85  103.60
  -8   3   6 2978.27   93.96
  -8   3   6 2964.28   99.24
   8  -3  -5 3055.54  110.70
  -8   3   5 2973.24  103.84
  -8   3   5 3240.75  117.70
   8  -3  -4  706.01   51.79
  -8   3   4  706.97   38.78
  -8   3   4  710.84   38.13
   8  -3  -3  176.21   15.75
  -8   3   3  199.99   19.51
  -8   3   3  236.66   48.67
   8  -3  -2  184.58   43.49
  -8   3   2  225.97   23.17
  -8   3   2  223.82   41.90
   8  -3  -1  961.23   69.97
   8  -3  -1  969.64   34.64
   8  -3  -1  947.20   81.61
  -8   3   1 1038.09   49.98
   8  -3   0 1216.41   60.37
   8  -3   0 1204.18   46.48
   8  -3   0 1205.40   69.94
  -8   3   0 1144.24   63.82
   8  -3   1  459.24   31.18
   8  -3   1  416.39   28.76
   8  -3   1  465.76   41.26
  -8   3  -1  452.32   36.71
   8  -3   2   10.29    4.27
   8  -3   2   20.74   12.38
  -8   3  -2   11.22   18.21
  -8   3  -2    6.14    6.30
   8  -3   3    6.75    5.59
   8  -3   3    3.63    9.80
  -8   3  -3   21.64   13.29
  -8   3  -3   10.19    7.95
   8  -3   4  759.35   33.33
   8  -3   4  798.45   92.44
  -8   3  -4  774.03   55.61
  -8   3  -4  855.58   52.00
   8  -3   5  502.57  109.88
  -8   3  -5  485.76   56.60
  -8   3  -5  470.71   30.00
  -8   3  -6   10.49   12.49
  -8   3  -6    7.79   10.48
   8  -3   7  183.30   53.36
   8  -3   7  176.96   54.90
  -8   3  -7  118.53   52.60
   8  -3   8  584.07   84.82
   8  -3   8  678.00   62.86
  -8   3  -8  757.56   41.37
   8  -3   9  588.48   67.04
   8  -3   9  601.27   57.81
  -8   3  -9  594.16   72.17
   8  -3  10  524.85   66.37
   8  -3  10  510.04   91.93
  -8   3 -10  574.51   47.54
   8  -3  11   63.03   30.96
  -8   3 -11   20.17   11.98
   8  -3  12  257.22   69.17
  -8   3 -12  269.42   86.11
   8  -3  13  446.72  139.41
  -8   3 -13  537.17   75.58
  -8   3 -14  157.69  101.43
   8  -2 -18   37.92   20.31
   8  -2 -17   26.90   18.80
  -8   2  17   13.68   17.63
   8  -2 -16  245.99   81.76
  -8   2  16  134.30   63.74
  -8   2  16  208.92   68.89
   8  -2 -15  197.05   68.46
  -8   2  15  114.26   54.40
  -8   2  15  150.06   62.85
   8  -2 -14  381.51   40.50
  -8   2  14  420.21   47.10
  -8   2  14  370.25   39.96
   8  -2 -13  312.82   35.62
  -8   2  13  257.66   72.47
  -8   2  13  264.69   66.10
   8  -2 -12  502.80   50.34
  -8   2  12  333.15   28.33
  -8   2  12  359.08   32.95
   8  -2 -11 1261.64   64.34
  -8   2  11 1277.06   59.30
  -8   2  11 1221.04   67.51
   8  -2 -10 1550.34   84.24
  -8   2  10 1702.18   80.02
  -8   2  10 1664.80  105.64
   8  -2  -9  858.23   57.60
  -8   2   9  935.20   48.53
  -8   2   9  928.61   44.43
   8  -2  -8   12.11   11.15
  -8   2   8   11.94    7.64
  -8   2   8   21.66   15.77
   8  -2  -7 1129.89  103.07
  -8   2   7 1055.46   58.40
  -8   2   7 1004.33   61.63
   8  -2  -6 2920.25  134.78
  -8   2   6 2960.18  109.99
  -8   2   6 3087.18  126.47
   8  -2  -5 4225.32  144.67
  -8   2   5 4916.23  168.24
  -8   2   5 4444.20  178.20
   8  -2  -4  324.21   27.66
  -8   2   4  280.43   48.29
  -8   2   4  288.22   42.45
   8  -2  -3  644.36   56.60
  -8   2   3  694.14   47.46
  -8   2   3  701.21   39.84
   8  -2  -2 1411.07   61.00
   8  -2  -2 1443.25   73.89
  -8   2   2 1506.41   69.77
   8  -2  -1 1054.50   45.95
   8  -2  -1  999.86   35.00
   8  -2  -1 1141.53   80.12
  -8   2   1  952.81   46.64
   8  -2   0 1418.75   60.66
   8  -2   0 1420.83   57.02
   8  -2   0 1549.79   79.34
  -8   2   0 1534.69   76.40
   8  -2   1  633.54   28.66
   8  -2   1  753.75   77.50
  -8   2  -1  669.95   45.19
  -8   2  -1  628.17   42.41
   8  -2   2   18.44    6.81
   8  -2   2   18.51   13.42
  -8   2  -2   17.59   15.56
  -8   2  -2   14.70    8.66
   8  -2   3   10.02    5.71
   8  -2   3    7.49   10.18
  -8   2  -3   12.48   11.24
  -8   2  -3    4.60    2.73
   8  -2   4   26.70   18.20
  -8   2  -4   11.09   14.19
  -8   2  -4    8.88   10.51
   8  -2   5   25.56   26.59
  -8   2  -5   23.57   10.44
  -8   2  -5   23.64   10.97
   8  -2   6  134.00   39.05
  -8   2  -6  123.08   26.33
  -8   2  -6  132.41   34.43
   8  -2   7  354.37   55.37
  -8   2  -7  367.29   27.19
   8  -2   8  399.15   68.82
   8  -2   8  221.92   66.68
  -8   2  -8  274.40   61.54
   8  -2   9  806.22   83.16
   8  -2   9  773.68   54.98
  -8   2  -9  783.73   51.48
   8  -2  10  340.43   33.66
   8  -2  10  410.62   55.34
  -8   2 -10  294.59   78.89
   8  -2  11   19.10   19.90
  -8   2 -11   73.04   22.45
   8  -2  12  188.33   56.50
  -8   2 -12  120.25   54.48
  -8   2 -13  111.88   53.24
  -8   2 -14  176.67   69.97
  -8   1  19  145.17   56.40
   8  -1 -18   97.76   37.72
  -8   1  18   40.09   28.55
   8  -1 -17  145.78   40.81
  -8   1  17  124.67   48.68
  -8   1  17   76.19   53.71
   8  -1 -16  715.39   75.59
  -8   1  16  768.38   52.33
  -8   1  16  647.71   80.51
   8  -1 -15  432.36   34.84
  -8   1  15  472.28   34.40
  -8   1  15  409.18   59.98
   8  -1 -14  527.58   68.54
  -8   1  14  598.28   42.60
  -8   1  14  483.05   54.77
   8  -1 -13   22.83   22.70
  -8   1  13    8.95    6.63
  -8   1  13   18.36    6.76
   8  -1 -12   34.56   32.99
  -8   1  12   40.80   15.37
  -8   1  12   93.75   26.92
   8  -1 -11  696.52   61.75
  -8   1  11  733.41   71.41
  -8   1  11  658.47   65.87
   8  -1 -10 1195.45  114.13
  -8   1  10 1174.57   97.51
  -8   1  10 1051.39   53.93
   8  -1  -9   16.76   13.87
  -8   1   9    4.41   15.05
  -8   1   9   25.50   16.36
   8  -1  -8  307.93   61.31
  -8   1   8  376.86   22.44
  -8   1   8  401.35   71.63
   8  -1  -7 1475.98   93.79
  -8   1   7 1288.92   58.95
  -8   1   7 1391.63   90.07
   8  -1  -6 1605.73   73.83
  -8   1   6 1646.53   89.67
  -8   1   6 1724.18   86.90
   8  -1  -5 3883.61  139.08
  -8   1   5 4203.18  147.81
  -8   1   5 4247.22  148.20
   8  -1  -4  114.41   20.33
   8  -1  -4   88.05   21.89
  -8   1   4   97.64   22.21
   8  -1  -3   63.00   22.23
   8  -1  -3  101.56   30.90
  -8   1   3   24.45   18.30
   8  -1  -2 2001.48   97.34
   8  -1  -2 1991.64  136.64
  -8   1   2 1968.18   86.52
   8  -1  -1 2398.11  101.80
   8  -1  -1 2278.01   74.36
   8  -1  -1 2803.19  117.80
  -8   1   1 2596.37  105.07
   8  -1   0 1626.77   70.95
   8  -1   0 1733.06   84.27
  -8   1   0 1551.46   71.66
  -8   1   0 1485.14   59.35
   8  -1   1  424.05   27.90
   8  -1   1  493.67   38.13
  -8   1  -1  408.28   62.01
  -8   1  -1  405.66   15.87
   8  -1   2    3.54    5.38
   8  -1   2    3.95   10.42
  -8   1  -2    6.76    8.95
  -8   1  -2    3.25    7.02
   8  -1   3  905.74   78.84
  -8   1  -3  983.01   55.46
  -8   1  -3  928.43   38.09
   8  -1   4  681.81   69.14
  -8   1  -4  689.81   44.86
  -8   1  -4  654.04   41.95
   8  -1   5  259.71   72.43
  -8   1  -5  194.98   48.26
  -8   1  -5  145.97   22.98
   8  -1   6    4.81   14.26
  -8   1  -6   18.21   14.82
  -8   1  -6   20.25   12.95
   8  -1   7   -4.01   16.96
  -8   1  -7   18.52   12.46
  -8   1  -7    4.47    6.53
   8  -1   8  200.90   45.20
   8  -1   8  224.51   73.69
  -8   1  -8  211.18   55.13
   8  -1   9  441.71   76.65
   8  -1   9  567.50   70.71
  -8   1  -9  576.67   32.34
   8  -1  10  147.65   47.47
   8  -1  10  127.53   52.89
  -8   1 -10  134.41   45.95
   8  -1  11   28.86   26.57
  -8   1 -11   14.87   22.31
   8  -1  12  177.27   75.51
  -8   1 -12   83.57   32.25
  -8   1 -13  118.86   61.44
  -8   0  19  278.37   41.46
   8   0 -18   31.09   26.81
  -8   0  18   24.87   10.68
  -8   0  18   37.00   18.07
   8   0 -17   13.33   24.56
  -8   0  17   13.27   15.13
  -8   0  17   24.82   17.66
   8   0 -16  376.01   41.12
  -8   0  16  325.72   72.58
  -8   0  16  320.65   71.44
   8   0 -15 1001.63   51.64
  -8   0  15 1166.56   85.80
   8   0 -14  206.27   79.04
  -8   0  14  201.17   64.03
  -8   0  14  201.98   65.98
   8   0 -13   32.42   21.18
  -8   0  13    5.35    8.55
  -8   0  13   23.54   14.36
   8   0 -12   42.72   25.05
  -8   0  12   41.94   20.63
  -8   0  12   22.32   21.98
   8   0 -11  874.67   95.09
  -8   0  11  931.76   44.84
  -8   0  11 1077.32   64.57
   8   0 -10  751.56   52.58
  -8   0  10  612.47   65.71
  -8   0  10  793.55   60.22
   8   0  -9   49.83   17.86
  -8   0   9   47.15   24.45
  -8   0   9   43.81   18.89
   8   0  -8  269.43   68.17
  -8   0   8  240.86   56.60
  -8   0   8  384.34   74.50
   8   0  -7  757.94   71.76
  -8   0   7  913.86   57.00
  -8   0   7  808.70   80.24
   8   0  -6 1286.63   71.15
  -8   0   6 1170.60   64.84
  -8   0   6 1326.68   83.48
   8   0  -5 1342.44   85.92
   8   0  -5 1486.68   72.92
  -8   0   5 1488.02   99.23
   8   0  -4  201.13   21.51
   8   0  -4  205.53   37.05
  -8   0   4  175.51   39.13
   8   0  -3  969.17   61.71
   8   0  -3 1023.36   50.42
  -8   0   3  963.11   44.10
   8   0  -2 2403.30  100.16
   8   0  -2 2357.56  111.51
  -8   0   2 2418.57   92.86
   8   0  -1 3094.37  115.03
   8   0  -1 3400.56  123.66
  -8   0   1 3299.51  125.20
  -8   0   1 2853.57   93.10
   8   0   0 2733.47   86.08
   8   0   0 2981.87  126.51
  -8   0   0 2843.64  104.87
  -8   0   0 2622.78   77.31
   8   0   1  532.37   29.80
   8   0   1  541.96   80.60
  -8   0  -1  504.51   65.60
  -8   0  -1  478.17   28.73
   8   0   2  117.62   45.21
  -8   0  -2   94.63   27.03
  -8   0  -2   72.98   21.64
   8   0   3  678.78   45.15
  -8   0  -3  746.80   79.60
  -8   0  -3  660.32   30.15
   8   0   4 1399.99  124.66
  -8   0  -4 1263.02   80.24
  -8   0  -4 1230.83   69.78
   8   0   5 1001.14   64.78
  -8   0  -5 1076.56   62.47
  -8   0  -5  974.28   42.05
   8   0   6   22.66   19.44
  -8   0  -6   26.20   16.01
  -8   0  -6   27.97   12.73
   8   0   7  468.70   66.38
  -8   0  -7  425.24   49.08
  -8   0  -7  461.76   23.47
   8   0   8   38.27   17.18
   8   0   8   19.95   14.80
  -8   0  -8   35.68   21.68
   8   0   9  449.70   77.73
   8   0   9  402.18  136.76
  -8   0  -9  327.48   62.86
   8   0  10  365.21   83.84
   8   0  10  219.78   98.41
  -8   0 -10  302.65   65.22
   8   0  11    9.33    8.75
   8   0  11    9.20   16.42
  -8   0 -11   23.50   14.76
   8   0  12   85.62   49.54
  -8   0 -12   67.78   40.31
  -8   0 -13  159.54   65.28
  -8  -1  19   89.92   63.42
   8   1 -18   42.69   25.34
  -8  -1  18   17.49   16.29
  -8  -1  18   43.61   17.89
   8   1 -17   33.41   24.46
  -8  -1  17   52.77   23.12
  -8  -1  17   66.49   23.18
   8   1 -16  487.08   66.42
  -8  -1  16  475.51   41.10
  -8  -1  16  541.62   41.92
   8   1 -15  825.38   79.49
  -8  -1  15  745.78   66.91
  -8  -1  15  800.66   57.37
   8   1 -14  178.13   42.99
  -8  -1  14  174.86   55.90
  -8  -1  14  201.22   52.44
   8   1 -13   31.78   27.11
  -8  -1  13   37.41   19.21
  -8  -1  13   39.42   13.83
   8   1 -12   15.13   13.70
  -8  -1  12   44.43   14.79
  -8  -1  12   41.29   17.51
   8   1 -11  734.28   58.52
  -8  -1  11  654.06   53.21
  -8  -1  11  847.65   49.78
  -8  -1  10  102.48   33.74
  -8  -1  10   49.15   16.46
   8   1  -9   77.48   48.35
  -8  -1   9   82.73   25.56
  -8  -1   9   94.51   28.21
   8   1  -8   22.48   11.99
  -8  -1   8   24.36   11.25
  -8  -1   8   17.49   12.83
   8   1  -7 1437.04   86.73
   8   1  -7 1479.75  100.89
  -8  -1   7 1475.65   89.30
   8   1  -6 1877.22  100.45
   8   1  -6 1978.80   61.03
  -8  -1   6 1781.65   79.71
   8   1  -5 1223.49   58.65
   8   1  -5 1283.26   72.39
  -8  -1   5 1234.89   77.63
   8   1  -4  136.50   22.87
   8   1  -4  166.05   34.84
  -8  -1   4  137.03   30.60
   8   1  -3  919.53   59.28
   8   1  -3  983.26   58.76
  -8  -1   3  884.15   65.54
   8   1  -2  513.07   31.96
   8   1  -2  534.69   37.09
  -8  -1   2  556.09   57.12
   8   1  -1 2871.48   88.79
   8   1  -1 2592.69   94.70
  -8  -1   1 2686.74  105.47
   8   1   0 3184.23   94.19
   8   1   0 3494.48  127.77
  -8  -1   0 3530.63  132.72
  -8  -1   0 3469.71  102.74
   8   1   1   99.14   21.79
   8   1   1  150.87   49.88
  -8  -1  -1  160.91   66.05
  -8  -1  -1  111.65   24.91
   8   1   2   29.10   18.96
  -8  -1  -2   20.30   10.86
  -8  -1  -2   23.67    9.11
   8   1   3  670.16   48.09
  -8  -1  -3  588.47   40.48
  -8  -1  -3  616.06   38.09
   8   1   4 1781.54   91.83
  -8  -1  -4 1786.93  111.53
  -8  -1  -4 1800.23   70.09
   8   1   5  862.16  142.64
  -8  -1  -5  888.22   71.18
  -8  -1  -5  958.14   54.55
   8   1   6   89.76   47.19
  -8  -1  -6   59.06   23.63
  -8  -1  -6   53.33   19.61
   8   1   7   78.61   30.92
  -8  -1  -7   47.72   22.17
   8   1   8  182.73   71.82
  -8  -1  -8  253.47   92.62
  -8  -1  -8  201.46   75.62
   8   1   9  199.77   82.10
   8   1   9  191.65   71.81
  -8  -1  -9  235.45   60.76
   8   1  10   85.94   40.15
   8   1  10   60.82   38.26
   8   1  11   31.72   19.67
   8   1  11   14.47   22.86
  -8  -1 -11   14.25   13.01
   8   1  12  139.93   72.38
  -8  -1 -12  143.16   50.22
  -8  -2  20  104.29   68.28
  -8  -2  19  405.87   66.65
   8   2 -18   12.98   33.05
  -8  -2  18   12.88   20.42
  -8  -2  18   15.62   13.00
   8   2 -17  165.55   90.99
  -8  -2  17  103.66   59.63
  -8  -2  17  142.34   34.79
   8   2 -16  738.19   85.54
  -8  -2  16  771.39   47.13
  -8  -2  16  942.26   66.16
   8   2 -15 1690.77  108.08
  -8  -2  15 1590.84  116.13
  -8  -2  15 1616.99  104.14
   8   2 -14  219.21   50.54
  -8  -2  14  205.33   79.09
  -8  -2  14  178.31   42.29
   8   2 -13   14.47   17.59
  -8  -2  13   18.40   15.71
  -8  -2  13    9.20   10.08
   8   2 -12   33.18   26.75
  -8  -2  12   37.75   18.92
  -8  -2  12   34.89   13.94
   8   2 -11  108.65   44.28
  -8  -2  11  159.65   34.11
  -8  -2  11   78.86   26.69
   8   2 -10  443.23   37.45
  -8  -2  10  369.74   72.01
  -8  -2  10  365.09   66.43
   8   2  -9   20.00   29.09
  -8  -2   9   18.87   10.90
   8   2  -8  376.07   40.03
   8   2  -8  366.41   35.84
  -8  -2   8  443.07   37.90
   8   2  -7  709.17   28.55
   8   2  -7  742.43   93.64
  -8  -2   7  793.70   61.01
   8   2  -6 1052.41   66.14
   8   2  -6  958.42   76.87
  -8  -2   6 1112.54   62.66
   8   2  -5  506.67   58.35
   8   2  -5  534.41   70.88
  -8  -2   5  547.71   29.63
   8   2  -4    6.80    8.25
   8   2  -4    4.18   14.78
  -8  -2   4   30.63   19.01
   8   2  -3 1286.27   61.71
   8   2  -3 1261.27  110.58
  -8  -2   3 1204.84   83.43
   8   2  -2  149.41   36.25
   8   2  -2  134.92   27.62
  -8  -2   2  204.42   23.59
   8   2  -1 2618.40   99.08
   8   2  -1 2685.24  153.92
  -8  -2   1 2736.34  110.45
   8   2   0 1256.80   51.03
   8   2   0 1443.16   74.02
  -8  -2   0 1323.94   67.55
  -8  -2   0 1284.70   53.54
   8   2   1  250.43   70.96
  -8  -2  -1  253.03   85.72
  -8  -2  -1  223.17   22.16
   8   2   2  480.51   59.21
  -8  -2  -2  482.85   58.43
  -8  -2  -2  427.64   25.59
   8   2   3 1356.53   68.75
  -8  -2  -3 1461.49   69.61
  -8  -2  -3 1247.14   53.51
   8   2   4  233.21   50.25
  -8  -2  -4  188.34   63.55
  -8  -2  -4  190.63   23.88
   8   2   5 1195.52   90.15
  -8  -2  -5 1145.41   92.79
  -8  -2  -5 1100.56   54.77
   8   2   6  828.38   99.81
  -8  -2  -6  731.07   91.38
  -8  -2  -6  602.60   82.68
   8   2   7   76.46   43.39
  -8  -2  -7  102.65   29.73
  -8  -2  -7   86.78   28.47
   8   2   8  389.49   60.83
  -8  -2  -8  382.99   97.51
  -8  -2  -8  514.42   32.39
   8   2   9  115.43   46.99
   8   2   9  119.77   67.25
  -8  -2  -9   82.72   24.41
   8   2  10  127.09   71.02
   8   2  10  217.64   90.82
  -8  -2 -10  125.28   58.61
   8   2  11   14.75   16.27
  -8  -2 -11   -5.73   11.65
  -8  -3  19   26.21   19.80
  -8  -3  19   17.48   12.21
   8   3 -18   39.92   27.86
  -8  -3  18   49.55   33.10
  -8  -3  18   91.90   29.04
   8   3 -17  151.42   74.56
  -8  -3  17  174.89   56.47
  -8  -3  17  169.36   52.17
   8   3 -16 1411.76   92.96
  -8  -3  16 1468.27  138.48
  -8  -3  16 1458.45   95.36
   8   3 -15 1563.86  126.43
  -8  -3  15 1683.28   98.90
  -8  -3  15 1368.82  131.55
   8   3 -14  488.88   63.97
  -8  -3  14  415.24   39.58
   8   3 -13   14.30   18.56
  -8  -3  13   14.19    8.32
  -8  -3  13   16.01   15.44
   8   3 -12  524.03   35.40
  -8  -3  12  436.44   93.82
  -8  -3  12  504.79   47.52
   8   3 -11  956.95   65.63
   8   3 -11  802.18   51.55
  -8  -3  11  811.52   57.24
   8   3 -10  610.31   58.79
   8   3 -10  520.10   39.93
  -8  -3  10  616.25   56.95
   8   3  -9  279.86   26.50
   8   3  -9  374.16   28.00
  -8  -3   9  461.48   32.88
   8   3  -8  247.28   48.20
   8   3  -8  305.59   72.81
  -8  -3   8  259.89   73.75
   8   3  -7 1035.63   52.59
   8   3  -7 1024.58   73.40
  -8  -3   7  996.98   96.24
   8   3  -6 1000.21   70.08
   8   3  -6 1086.92   59.15
  -8  -3   6  936.11   54.13
   8   3  -5   11.56    6.15
   8   3  -5    8.96   27.08
  -8  -3   5   10.55   13.37
   8   3  -4   13.43   10.19
   8   3  -4   11.51    8.81
  -8  -3   4   18.80   11.35
   8   3  -3 1211.58   40.13
   8   3  -3 1233.26   66.23
  -8  -3   3 1207.79   40.91
   8   3  -2  368.48   46.56
   8   3  -2  370.59   79.97
  -8  -3   2  439.43   55.21
   8   3  -1 1552.65   65.51
   8   3  -1 1678.38   80.08
  -8  -3   1 1635.89   75.09
   8   3   0  592.59   29.32
   8   3   0  806.98   47.81
  -8  -3   0  730.59   82.06
  -8  -3   0  726.48   33.41
   8   3   1   70.55   35.74
  -8  -3  -1   91.98   41.32
  -8  -3  -1   61.23   18.56
   8   3   2   90.98   30.29
  -8  -3  -2  124.85   50.09
  -8  -3  -2   84.87   19.58
   8   3   3  137.38   32.04
  -8  -3  -3  164.36   54.02
  -8  -3  -3  101.90   21.63
   8   3   4  609.44   51.93
  -8  -3  -4  609.69   74.88
  -8  -3  -4  645.93   35.11
   8   3   5  294.98   73.60
  -8  -3  -5  325.61   37.19
  -8  -3  -5  367.18   19.40
   8   3   6   26.84   16.66
  -8  -3  -6   39.25   25.06
  -8  -3  -6   23.59   17.07
   8   3   7   40.56   28.07
  -8  -3  -7  -13.28   16.02
  -8  -3  -7   -3.96    9.77
   8   3   8   90.47   50.04
  -8  -3  -8   82.12   37.24
  -8  -3  -8   77.85   26.64
   8   3   9   27.15   23.05
   8   3   9   39.78   17.24
  -8  -3  -9    7.33   10.28
   8   3  10   67.25   30.16
  -8  -3 -10   42.96   30.37
   8   3  11   14.48   12.89
   8   4 -18  269.12  103.78
  -8  -4  18  307.07   49.48
  -8  -4  18  179.70   93.22
   8   4 -17  294.31   96.46
  -8  -4  17  237.08   78.31
  -8  -4  17  319.33   52.96
   8   4 -16  846.65   82.49
  -8  -4  16  934.38   59.73
  -8  -4  16  820.33   74.33
   8   4 -15 1313.95  114.19
  -8  -4  15 1423.54  124.35
  -8  -4  15 1285.71   82.27
   8   4 -14  332.72   38.06
  -8  -4  14  356.30   90.86
   8   4 -13   35.59   14.44
   8   4 -13   65.68   18.61
  -8  -4  13  111.25   39.44
   8   4 -12  850.39   57.41
   8   4 -12  704.42   88.29
  -8  -4  12  915.81  109.24
   8   4 -11 1001.02   77.68
   8   4 -11 1002.48   55.64
  -8  -4  11 1031.44   55.82
   8   4 -10 1520.58  115.26
   8   4 -10 1576.17   62.63
  -8  -4  10 1623.31   47.06
   8   4  -9  738.21   52.33
   8   4  -9  892.35   66.15
  -8  -4   9  823.13   78.37
   8   4  -8   76.27   21.36
   8   4  -8   63.33   24.68
  -8  -4   8   82.06   34.11
   8   4  -7  101.88   43.67
   8   4  -7  138.59   33.69
  -8  -4   7  178.00   41.52
   8   4  -6  663.38   73.89
   8   4  -6  697.93   56.16
  -8  -4   6  704.08   68.16
   8   4  -5   21.80   12.10
   8   4  -5   29.91   13.14
  -8  -4   5    3.81   21.42
   8   4  -4   33.51   19.79
   8   4  -4   44.52   33.24
  -8  -4   4   67.98   30.21
   8   4  -3  360.23   30.47
   8   4  -3  406.00   51.15
  -8  -4   3  376.60   74.13
   8   4  -2 1326.17   76.25
   8   4  -2 1301.49  112.02
  -8  -4   2 1521.58   94.10
   8   4  -1 1085.00   38.44
   8   4  -1 1301.85   79.71
  -8  -4   1 1311.93   92.11
   8   4   0   26.77   19.68
  -8  -4   0   17.37   23.50
   8   4   1  127.05   31.99
  -8  -4  -1   42.30   23.18
  -8  -4  -1   61.24   18.61
   8   4   2  101.98   38.79
  -8  -4  -2  159.77   30.01
  -8  -4  -2   61.78   25.00
   8   4   3  315.06   77.41
  -8  -4  -3  268.56   81.02
  -8  -4  -3  343.59   22.37
   8   4   4  498.13   51.41
  -8  -4  -4  504.37   43.78
  -8  -4  -4  339.31   54.31
   8   4   5  307.79   84.22
  -8  -4  -5  423.52   64.74
  -8  -4  -5  418.34   35.71
   8   4   6   13.29   15.59
  -8  -4  -6   43.87   16.50
  -8  -4  -6   30.91   16.62
   8   4   7   -2.34   11.50
  -8  -4  -7   29.30   14.23
  -8  -4  -7    9.04    7.62
   8   4   8   60.14   24.93
  -8  -4  -8  113.62   43.28
  -8  -4  -8  143.52   33.38
   8   5 -18  141.22   59.13
   8   5 -18   75.11   48.75
  -8  -5  18  117.59   46.03
   8   5 -17  400.56   47.00
   8   5 -17  456.45   78.77
  -8  -5  17  430.49   99.14
   8   5 -16 1098.42  109.56
   8   5 -16 1178.73   78.28
  -8  -5  16 1209.47   73.68
   8   5 -15  609.26   95.41
   8   5 -15  743.79   50.02
  -8  -5  15  816.15   50.97
   8   5 -14   13.42    9.49
   8   5 -14   17.38   20.34
  -8  -5  14   17.66   18.32
   8   5 -13   48.46   28.83
   8   5 -13   34.60   17.78
  -8  -5  13   37.00   29.02
   8   5 -12  736.24   81.58
   8   5 -12  820.96   88.47
  -8  -5  12  838.83   82.61
   8   5 -11 1254.72   72.86
   8   5 -11 1049.48   96.56
  -8  -5  11 1243.11  152.23
   8   5 -10 1785.36  146.81
   8   5 -10 1826.60  148.94
  -8  -5  10 1922.84  115.36
   8   5  -9  132.08   36.01
   8   5  -9  104.50   38.32
  -8  -5   9   68.88   22.99
   8   5  -8   45.69   15.90
   8   5  -8   36.50   17.75
  -8  -5   8   25.87   13.08
   8   5  -7   22.58   12.42
   8   5  -7   11.47   21.18
  -8  -5   7   15.80   19.87
   8   5  -6  482.27   63.01
   8   5  -6  542.55   63.23
  -8  -5   6  548.53   42.03
   8   5  -5  381.97   34.29
   8   5  -5  435.40   32.74
  -8  -5   5  451.21   37.92
   8   5  -4    1.10   11.44
   8   5  -4   23.51   13.28
  -8  -5   4   31.06   24.93
   8   5  -3   94.37   37.86
   8   5  -3  127.22   59.75
  -8  -5   3  122.58   48.98
   8   5  -2  691.25   34.26
   8   5  -2  683.19   65.27
  -8  -5   2  762.14   82.52
   8   5  -1 1257.50   95.01
  -8  -5   1 1248.82   80.30
   8   5   0 1107.84   71.49
  -8  -5   0 1089.80   76.53
   8   5   1   41.45   22.72
  -8  -5  -1   59.77   26.51
   8   5   2  174.93   69.37
  -8  -5  -2  168.41   48.93
  -8  -5  -2  120.24   40.21
   8   5   3  311.24   67.85
  -8  -5  -3  345.56   93.70
  -8  -5  -3  316.77   18.95
   8   5   4  638.23   81.54
  -8  -5  -4  598.79   40.38
   8   5   5  298.58   59.29
  -8  -5  -5  310.48   83.78
  -8  -5  -5  275.92   57.28
   8   5   6   77.48   19.41
  -8  -5  -6  158.63   53.55
  -8  -5  -6   71.20   26.95
   8   5   7   11.46   18.79
  -8  -5  -7    8.27    9.59
  -8  -5  -7    4.93    9.19
   8   5   8  144.26   78.35
   8   6 -18   24.10   13.86
  -8  -6  18   11.56   24.39
   8   6 -17  592.24   62.62
   8   6 -17  623.89   49.29
  -8  -6  17  771.89   42.12
   8   6 -16  932.59   50.94
   8   6 -16  865.26   61.59
  -8  -6  16  943.16   50.48
   8   6 -15  333.04   41.59
   8   6 -15  360.85   71.84
  -8  -6  15  396.73   42.35
   8   6 -14  -14.41   14.57
  -8  -6  14   -3.42   17.65
   8   6 -13   16.58   15.62
   8   6 -13    3.18   15.54
   8   6 -12  429.95   94.97
   8   6 -12  504.97   63.42
  -8  -6  12  538.54   95.83
   8   6 -11  728.64   70.53
   8   6 -11  735.20   46.46
  -8  -6  11  762.58   77.15
   8   6 -10 1285.64  117.50
   8   6 -10 1121.81  112.28
  -8  -6  10 1209.92   72.70
   8   6  -9   23.46   19.37
   8   6  -9    5.71   15.78
  -8  -6   9   12.81    9.88
   8   6  -8  785.32   71.13
   8   6  -8  880.19   80.83
  -8  -6   8  906.83   81.50
   8   6  -7 1045.12   98.44
   8   6  -7 1107.44  102.24
  -8  -6   7 1257.72   58.01
   8   6  -6 1014.88   51.01
   8   6  -6 1061.88   97.01
  -8  -6   6 1167.97   63.04
   8   6  -5  578.07   30.17
   8   6  -5  546.00   86.50
  -8  -6   5  431.28   77.03
   8   6  -4   15.87   14.02
   8   6  -4   -6.99   18.04
  -8  -6   4   16.52   15.24
   8   6  -3   24.33   12.79
   8   6  -3   19.84   10.33
  -8  -6   3   49.23   16.28
   8   6  -2 1358.58  120.03
  -8  -6   2 1103.07   74.86
   8   6  -1  499.49   67.14
  -8  -6   1  498.51   51.86
   8   6   0  785.02   51.83
  -8  -6   0  685.69   79.89
   8   6   1    7.32   10.09
  -8  -6  -1   -3.00   17.54
   8   6   2  969.80  172.25
  -8  -6  -2  833.36   88.36
   8   6   3  684.85   92.30
  -8  -6  -3  857.52   54.33
   8   6   4  817.78  124.46
  -8  -6  -4  973.74   63.45
   8   6   5  124.50   46.31
  -8  -6  -5  171.07   66.26
   8   6   6   13.85   16.88
  -8  -6  -6   24.52   11.41
   8   7 -17  635.26   99.87
   8   7 -17  616.33   69.93
  -8  -7  17  658.30   87.87
   8   7 -16  775.24   72.32
   8   7 -16  812.93   46.37
  -8  -7  16  722.94   86.31
   8   7 -15  681.79   89.81
   8   7 -15  574.09   78.88
  -8  -7  15  660.05   75.22
   8   7 -14   23.59   19.63
   8   7 -14   18.25   22.34
  -8  -7  14   30.08   21.17
   8   7 -13   16.93   16.32
  -8  -7  13   31.39   22.00
   8   7 -12  504.30   49.19
   8   7 -12  343.72   60.47
  -8  -7  12  345.79   37.47
   8   7 -11 1316.13   90.70
  -8  -7  11 1026.39  102.90
   8   7 -10 1396.74  143.98
   8   7 -10 1552.87  118.74
  -8  -7  10 1564.47  117.24
   8   7  -9  248.57   29.53
   8   7  -9  259.25   71.80
  -8  -7   9  234.64   83.59
   8   7  -8   17.46   18.81
   8   7  -8   26.43   17.21
  -8  -7   8   50.92   28.77
   8   7  -7  432.53   51.99
   8   7  -7  378.54   44.12
  -8  -7   7  455.84   54.53
   8   7  -6  524.32   31.59
   8   7  -6  536.13   53.40
  -8  -7   6  593.89   64.11
   8   7  -5  320.26   44.70
   8   7  -5  437.80   41.18
  -8  -7   5  423.81   49.85
   8   7  -4   17.57   10.40
   8   7  -4   25.07   13.98
  -8  -7   4   14.85   15.17
   8   7  -3   69.91   29.00
   8   7  -3  126.48   32.61
  -8  -7   3   60.79   52.89
   8   7  -2 1064.84   68.34
  -8  -7   2 1074.19   76.25
   8   7  -1  394.95   32.26
  -8  -7   1  319.87   89.94
   8   7   0   28.88   15.01
  -8  -7   0   34.01   18.88
   8   7   1   56.72   17.32
  -8  -7  -1   45.64   19.57
   8   7   2  494.19   59.32
  -8  -7  -2  430.96   43.95
   8   7   3  900.89  114.68
  -8  -7  -3  863.46  110.29
   8   7   4  968.77   69.40
  -8  -7  -4  821.43   69.18
   8   7   5   91.76   47.41
  -8  -7  -5   57.63   27.30
   8   8 -16  526.59   70.48
   8   8 -16  555.92   40.63
  -8  -8  16  431.76  105.06
   8   8 -15  329.78   36.15
   8   8 -15  201.85   62.56
  -8  -8  15  295.16   76.24
   8   8 -14  299.78   86.79
   8   8 -14  229.30   71.78
  -8  -8  14  347.57   75.02
   8   8 -13   81.97   39.62
   8   8 -13   97.32   27.94
  -8  -8  13  114.64   43.41
   8   8 -12 1452.79   91.22
   8   8 -12 1611.67  100.09
  -8  -8  12 1432.96   86.34
   8   8 -11 1273.14  116.86
   8   8 -11 1350.99  102.81
  -8  -8  11 1200.31  132.26
   8   8 -10  309.14   92.64
  -8  -8  10  525.52   58.52
   8   8  -9   89.44   42.54
  -8  -8   9  141.27   53.86
   8   8  -8    2.67   10.93
   8   8  -8   16.83   18.11
  -8  -8   8   25.44   16.43
   8   8  -7  154.45   55.91
   8   8  -7  204.19   78.03
  -8  -8   7  141.06   58.47
   8   8  -6  414.73   67.09
   8   8  -6  406.92  126.29
  -8  -8   6  582.57  103.69
   8   8  -5  135.78   41.33
   8   8  -5  128.63   55.19
  -8  -8   5  220.29   69.45
   8   8  -4    8.79   13.61
   8   8  -4    9.65    9.93
  -8  -8   4    7.35   12.82
   8   8  -3  133.85   43.49
  -8  -8   3   99.20   41.72
   8   8  -2 1046.14  103.26
  -8  -8   2 1019.24  110.63
   8   8  -1  177.15   92.83
  -8  -8   1  238.40   43.13
   8   8   0   24.68   21.58
  -8  -8   0   21.96   11.88
   8   8   1    5.15   21.87
  -8  -8  -1   39.84   12.52
   8   8   2  410.16   67.29
  -8  -8  -2  249.73   78.70
   8   8   3  971.46   76.08
  -8  -8  -3  849.45  122.49
   8   9 -16   38.14   27.53
   8   9 -15   57.98   31.39
   8   9 -15   49.49   24.60
  -8  -9  15   96.76   42.68
   8   9 -14    7.75    9.89
  -8  -9  14    8.24   16.45
   8   9 -13  183.55   99.11
   8   9 -13  184.81   84.99
  -8  -9  13  200.15   80.38
   8   9 -12  456.01   85.73
   8   9 -12  466.30   63.85
  -8  -9  12  455.56   94.28
   8   9 -11 1336.50   87.94
   8   9 -11 1379.63   90.46
  -8  -9  11 1427.37   97.72
   8   9 -10  251.99   47.28
   8   9 -10  219.04   86.70
  -8  -9  10  176.43   64.46
   8   9  -9   25.30   23.69
   8   9  -9   36.78   17.09
  -8  -9   9   10.69   20.19
   8   9  -8  101.47   38.17
  -8  -9   8   84.79   22.23
   8   9  -7  353.09   61.09
   8   9  -7  329.61  108.76
  -8  -9   7  364.79   60.02
   8   9  -6  316.27   85.46
   8   9  -6  558.90   68.68
  -8  -9   6  347.08   92.20
   8   9  -5   82.56   31.67
   8   9  -5   78.26   27.78
  -8  -9   5   48.86   19.29
   8   9  -4   24.99   11.75
  -8  -9   4   22.49   14.42
   8   9  -3   85.11   62.32
  -8  -9   3   72.86   47.35
   8   9  -2  506.23   51.43
  -8  -9   2  576.83   57.99
   8   9  -1  308.49   83.70
  -8  -9   1  216.53   86.79
  -8  -9   0   15.84    6.52
   8   9   1  130.54   67.65
  -8  -9  -1  143.49   88.21
  -8  -9  -2  118.34   54.83
   8  10 -15   26.64   15.40
   8  10 -15    9.93   11.21
   8  10 -14   40.36   23.76
   8  10 -14   25.02   15.58
  -8 -10  14   38.54   12.83
   8  10 -13  172.05   62.08
   8  10 -13  167.41   57.91
  -8 -10  13  123.69   62.06
   8  10 -12  220.27   91.80
  -8 -10  12  353.56  112.67
   8  10 -11  932.07  106.11
   8  10 -11 1267.86   78.08
  -8 -10  11 1176.86   60.82
   8  10 -10  141.24   51.73
   8  10 -10   92.14   26.89
  -8 -10  10  118.46   51.55
   8  10  -9   94.77   47.94
   8  10  -9  165.77   70.06
  -8 -10   9  120.33   48.88
   8  10  -8    9.64   10.11
   8  10  -8   16.30   12.88
  -8 -10   8    5.75   21.99
   8  10  -7  982.83   61.41
   8  10  -7  944.92   78.74
  -8 -10   7  865.99  115.07
   8  10  -6  469.60   32.00
   8  10  -6  619.35   99.03
  -8 -10   6  554.53   67.50
   8  10  -5   92.97   35.67
  -8 -10   5  106.17   50.49
   8  10  -4  207.38   84.77
  -8 -10   4  140.46   62.55
   8  10  -3   31.67   17.99
  -8 -10   3   13.70   11.34
  -8 -10   2  119.79   53.56
   8  10  -1  121.33   59.99
  -8 -10   1  116.65   47.38
  -8 -10   0   27.16   16.41
   8  11 -14    2.06   13.79
   8  11 -13  451.31   58.21
   8  11 -13  360.82   53.30
   8  11 -12  916.60   77.98
   8  11 -12  758.84  111.59
   8  11 -11 1213.02  112.26
   8  11 -11 1332.22  127.61
  -8 -11  11 1127.99  136.29
   8  11 -10  116.08   53.97
  -8 -11  10  102.02   64.10
   8  11  -9    9.65   13.68
   8  11  -9   28.41   31.12
  -8 -11   9   14.74   15.88
   8  11  -8   89.84   55.80
   8  11  -8  122.40   51.20
  -8 -11   8   89.29   65.74
   8  11  -7  522.53   41.75
   8  11  -7  479.44   63.74
  -8 -11   7  488.89   80.56
   8  11  -6  658.62   78.58
  -8 -11   6  608.17   95.04
   8  11  -5  441.87   67.71
  -8 -11   5  510.26   81.97
  -8 -11   4   10.70   12.03
  -8 -11   3   29.37   19.82
   8  12 -12 1471.06  104.08
   8  12 -12 1131.80  122.15
   8  12 -11 1195.21   86.97
   8  12 -11 1228.35  105.98
   8  12 -10   28.02   13.85
   8  12 -10   10.69   13.41
   8  12  -9   47.95   22.89
   8  12  -8  135.75   73.69
   8  12  -7  485.72   70.45
   8  12  -6  583.20  105.03
   9 -16   3  342.10   51.18
   9 -16   4  254.67  107.61
   9 -16   4  302.06   61.97
   9 -16   5   15.06   13.89
   9 -16   5    4.73   10.58
  -9  16  -7   70.79   23.17
   9 -16   8  317.05   48.53
  -9  16  -8  331.65   60.22
  -9  15   4   14.02   14.84
  -9  15   2  474.29  104.00
   9 -15  -1  886.77   98.34
   9 -15   0  156.30   77.21
   9 -15   1   36.85   23.58
   9 -15   1   17.25    8.42
   9 -15   2   19.25   19.52
   9 -15   2   49.41   25.27
   9 -15   3   45.38   51.46
   9 -15   4  303.90   29.21
   9 -15   4  235.29   44.10
   9 -15   5   48.72   30.83
   9 -15   6   15.78   20.51
  -9  15  -8  179.17   42.48
   9 -15   9   70.66   50.60
   9 -15  10   19.64   22.38
  -9  14   6  966.88   74.85
  -9  14   5  154.30   70.35
   9 -14  -4   -4.01   19.27
  -9  14   4   36.39   23.61
   9 -14  -3  365.01   35.33
  -9  14   3  172.83   65.10
   9 -14  -2 1216.69   74.95
  -9  14   2 1308.53   78.76
   9 -14  -1 1824.27  114.62
  -9  14   1 1839.39  104.72
   9 -14   0  427.53   78.28
   9 -14   1   13.22    7.39
   9 -14   2   46.73   16.91
   9 -14   3   67.31   45.48
   9 -14   3   54.30   36.61
   9 -14   4   41.85   16.38
   9 -14   4   41.27   30.72
   9 -14   5   11.71    9.86
   9 -14   5    6.54   16.78
   9 -14   6   28.07   19.29
   9 -14   6   31.14   15.72
   9 -14   8  674.39   98.88
  -9  14  -8  657.07   95.59
   9 -14   9  567.57   92.42
   9 -14  11   15.44    9.48
   9 -13  -6  162.98   55.47
  -9  13   6  142.51   80.70
   9 -13  -5  121.26   35.55
  -9  13   5   96.18   37.45
   9 -13  -4   85.20   42.20
   9 -13  -3  135.51   38.68
  -9  13   3  126.09   44.82
   9 -13  -2 1176.69   58.81
  -9  13   2  989.36  102.79
   9 -13  -1  463.17   54.56
  -9  13   1  416.94   74.77
   9 -13   0  530.40   48.50
   9 -13   0  434.68   75.51
  -9  13   0  554.10   23.84
   9 -13   1   34.43   17.73
   9 -13   1   22.61   16.45
  -9  13  -1    1.05    9.74
   9 -13   2  170.72   40.55
   9 -13   2  215.25   47.16
   9 -13   3  286.55   55.79
   9 -13   3  202.22   41.46
   9 -13   4    8.41   13.41
   9 -13   4   25.18   12.73
   9 -13   5   50.52   26.49
   9 -13   5   22.16   15.16
   9 -13   6  110.77   55.17
   9 -13   7  252.87   93.42
   9 -13   7  390.05   66.09
   9 -13   8  470.43   61.30
   9 -13   9  511.03   41.39
   9 -13  10   17.14    9.84
   9 -13  12  317.33   37.26
   9 -12  -8  204.31   67.48
  -9  12   8  133.93   72.49
   9 -12  -7  385.45   73.42
  -9  12   7  440.75   88.69
   9 -12  -6  413.32   72.86
  -9  12   6  315.50   73.86
   9 -12  -5  246.45   67.17
  -9  12   5  191.03   36.54
   9 -12  -4  161.93   73.34
  -9  12   4  184.30   72.12
   9 -12  -3  497.86   57.52
  -9  12   3  453.05   91.37
   9 -12  -2  940.34   57.71
  -9  12   2  932.40   51.78
   9 -12  -1  826.21   43.92
  -9  12   1  659.04   85.88
   9 -12   0  584.19   63.32
   9 -12   0  641.18   79.43
  -9  12   0  703.08   42.02
   9 -12   1  135.90   36.04
   9 -12   1  120.21   45.84
  -9  12  -1  101.81   38.23
   9 -12   2  463.68   74.80
   9 -12   2  353.37   51.49
  -9  12  -2  336.47   29.98
   9 -12   3 1070.87   93.67
   9 -12   3 1026.22   49.91
   9 -12   4  672.08   42.02
   9 -12   4  619.69   37.83
   9 -12   5  464.88   29.45
   9 -12   5  372.54   59.00
   9 -12   6    3.66   14.36
   9 -12   7  236.76   55.44
   9 -12   7  231.17   43.64
   9 -12   8   24.94   16.28
   9 -12   9   57.24   29.80
   9 -12  10    9.51    9.84
   9 -12  11  238.11   36.28
   9 -12  12  989.47   73.10
  -9  11  10   86.64   45.82
  -9  11   9  145.40   63.06
   9 -11  -8  112.13   63.93
  -9  11   8   93.20   28.97
   9 -11  -7  398.67   71.96
  -9  11   7  464.86   55.09
   9 -11  -6  396.61   62.17
  -9  11   6  502.79   86.99
   9 -11  -5  -10.06   16.05
  -9  11   5    9.95   11.67
   9 -11  -4  461.30   61.40
  -9  11   4  392.53   59.40
   9 -11  -3 1180.66   76.80
  -9  11   3 1005.86   70.18
   9 -11  -2 1910.50  112.34
  -9  11   2 1506.79   87.69
   9 -11  -1  742.40   82.21
  -9  11   1  736.02   41.51
   9 -11   0  473.51   46.09
   9 -11   0  476.54   60.43
  -9  11   0  508.96   31.78
   9 -11   1   12.81   10.32
   9 -11   1    1.08   10.43
  -9  11  -1    2.46    7.75
   9 -11   2  767.90   54.46
   9 -11   2  787.35   47.82
  -9  11  -2  730.65   35.14
   9 -11   3  382.24   47.78
   9 -11   3  351.76   57.80
  -9  11  -3  327.77   49.33
   9 -11   4  592.05   65.05
   9 -11   4  448.15   54.21
   9 -11   5  427.95   48.47
   9 -11   5  396.71   34.29
   9 -11   6   17.40   17.27
   9 -11   7  183.34   33.63
   9 -11   9  190.54   38.08
   9 -11  10   14.04    7.34
   9 -11  11   14.11    9.36
   9 -11  12  491.67   72.14
  -9  10  11   66.24   32.72
   9 -10 -10   82.73   47.96
  -9  10  10   76.87   49.20
   9 -10  -9   26.27   24.98
  -9  10   9   62.67   18.19
   9 -10  -8  558.54   93.83
  -9  10   8  601.80   56.50
   9 -10  -7  507.03   74.87
  -9  10   7  380.35   69.74
   9 -10  -6   29.62   22.46
  -9  10   6    2.62   19.11
   9 -10  -5   -0.10    6.89
  -9  10   5   25.49   11.57
   9 -10  -4   29.13   15.60
  -9  10   4   24.60   21.16
   9 -10  -3  898.35   72.75
  -9  10   3  956.30   55.01
   9 -10  -2  423.93   44.98
  -9  10   2  498.15   28.53
   9 -10  -1  194.58   49.94
  -9  10   1  118.86   38.51
   9 -10   0   76.31   37.15
   9 -10   0   41.67   18.43
  -9  10   0   43.31   29.73
   9 -10   1  123.14   43.05
   9 -10   1   69.35   29.56
  -9  10  -1  151.38   36.15
   9 -10   2  454.68   52.66
   9 -10   2  405.06   29.15
  -9  10  -2  474.46   60.65
   9 -10   3  336.87   48.87
   9 -10   3  312.91   45.40
   9 -10   3  390.91   18.05
   9 -10   4  243.97   25.33
   9 -10   4  223.08   49.41
   9 -10   4  224.01   40.13
   9 -10   5   51.20   18.53
   9 -10   6   89.45   40.95
   9 -10   6  123.20   49.13
   9 -10   7  242.13   35.55
   9 -10   8  327.26   40.69
   9 -10  10   -0.84   11.56
   9 -10  11   18.33   18.34
   9 -10  12   55.17   45.58
   9 -10  13  386.50   55.31
   9 -10  13  479.48   64.79
   9  -9 -12   88.70   31.02
  -9   9  12  111.86   59.68
   9  -9 -11  475.58   74.65
  -9   9  11  378.35   54.78
   9  -9 -10   96.42   50.56
  -9   9  10  105.90   35.81
   9  -9  -9  115.29   64.59
  -9   9   9  154.33   39.92
   9  -9  -8  161.32   44.51
  -9   9   8  116.81   54.48
   9  -9  -7  701.08   55.63
  -9   9   7  497.63   49.41
   9  -9  -6    9.76   14.46
  -9   9   6  -17.77   16.93
   9  -9  -5    3.20   12.96
  -9   9   5   17.26   16.53
   9  -9  -4   71.29   20.45
  -9   9   4   73.48   19.18
   9  -9  -3  975.42   94.03
  -9   9   3 1142.18   74.20
   9  -9  -2  964.33   85.82
  -9   9   2  953.76   58.31
   9  -9  -1  588.41   39.12
  -9   9   1  569.19   65.05
   9  -9   0   24.64   13.42
   9  -9   0    4.48    4.93
  -9   9   0   13.36   15.73
   9  -9   1   46.56   26.20
   9  -9   1   59.20   24.02
  -9   9  -1   91.64   25.26
   9  -9   2  672.06   30.56
   9  -9   2  631.42   40.61
  -9   9  -2  649.60   40.20
   9  -9   3  122.61   47.19
   9  -9   3  177.26   28.60
   9  -9   3  172.47   38.85
   9  -9   4  614.27   38.56
   9  -9   4  634.39   37.65
   9  -9   4  594.51   37.34
   9  -9   4  597.04   47.53
   9  -9   5 1172.47   90.95
   9  -9   5 1199.33   83.83
   9  -9   5 1158.88   87.84
   9  -9   5 1248.99   85.92
   9  -9   6    5.59    8.10
   9  -9   6   10.44    6.00
   9  -9   6    7.98    6.93
   9  -9   7  224.50   46.44
   9  -9   7  129.26   58.64
   9  -9   8  103.70   49.72
   9  -9   8  123.21   45.97
   9  -9   9   22.72   18.81
   9  -9   9   12.97   13.07
   9  -9  10  112.99   44.22
   9  -9  10  121.71   44.35
   9  -9  12   43.35   26.64
  -9   9 -12   45.62   18.20
   9  -9  13   74.84   46.81
  -9   9 -13   82.11   21.20
  -9   8  13  447.20   82.14
   9  -8 -12 1479.72  102.21
  -9   8  12 1430.72   89.06
   9  -8 -11  419.18   36.36
  -9   8  11  367.26   68.27
   9  -8 -10  227.75   69.77
  -9   8  10  136.71   64.15
   9  -8  -9  102.10   29.31
  -9   8   9  106.64   36.52
   9  -8  -8  402.93   85.51
  -9   8   8  483.57   71.89
   9  -8  -7  409.05   54.73
  -9   8   7  446.23   63.18
   9  -8  -6  134.27   45.19
  -9   8   6  100.70   45.24
   9  -8  -5  100.20   34.28
  -9   8   5   83.30   41.81
   9  -8  -4  224.60   22.59
  -9   8   4  285.28   29.27
   9  -8  -3 1099.75   91.73
  -9   8   3 1375.02   60.58
   9  -8  -2 1884.20   80.76
  -9   8   2 1909.00   77.32
   9  -8  -1 2367.91   88.86
  -9   8   1 2448.90   98.22
   9  -8   0   43.05   21.60
   9  -8   0   40.27   15.25
  -9   8   0   39.39   14.09
   9  -8   1  440.34   44.48
   9  -8   1  399.40   30.75
   9  -8   1  332.31   39.49
  -9   8  -1  366.54   50.68
   9  -8   2  111.21   52.22
   9  -8   2  113.21   41.80
   9  -8   2  111.44   18.55
   9  -8   2  109.59   42.28
   9  -8   3 1852.98  100.89
   9  -8   3 1637.72   91.91
   9  -8   3 1469.48   90.20
   9  -8   3 1592.06   88.99
   9  -8   4 1801.28  103.91
   9  -8   4 1585.49   91.82
   9  -8   4 1623.31   95.24
   9  -8   4 1718.53   97.34
   9  -8   5  129.87   41.43
   9  -8   5  135.57   52.04
   9  -8   5  120.00   41.15
   9  -8   5   99.97   27.95
   9  -8   6   10.26   11.36
   9  -8   6   -9.80   11.33
   9  -8   6    7.81    8.08
   9  -8   7  161.37   30.69
   9  -8   7   87.70   35.89
   9  -8   8  211.26   64.62
   9  -8   8  232.35   92.70
   9  -8   9   46.77   18.10
  -9   8  -9   21.59   10.72
   9  -8  10  106.22   51.41
  -9   8 -10  142.98   50.94
   9  -8  11   35.80   23.90
  -9   8 -11   22.53   21.97
   9  -8  12   84.36   45.72
  -9   8 -12  116.24   33.74
   9  -8  13   48.72   24.90
  -9   8 -14   23.00   12.17
  -9   7  14   57.54   15.88
   9  -7 -13  438.24   90.46
  -9   7  13  466.01   54.38
   9  -7 -12  429.87   70.05
  -9   7  12  422.81   57.24
   9  -7 -11  868.43   44.12
  -9   7  11  813.13   76.36
   9  -7 -10  406.29   56.24
  -9   7  10  438.47   41.88
   9  -7  -9    9.00   23.44
  -9   7   9   46.63   22.38
   9  -7  -8  278.47   33.49
  -9   7   8  358.96   33.34
   9  -7  -7  147.86   47.44
  -9   7   7  136.77   43.60
   9  -7  -6   11.36   12.13
  -9   7   6   16.78   20.40
   9  -7  -5  168.06   36.79
  -9   7   5  135.55   41.17
   9  -7  -4  203.05   37.64
  -9   7   4  179.91   61.88
   9  -7  -3 1393.42   63.52
  -9   7   3 1613.29   47.09
   9  -7  -2 1189.03   74.28
  -9   7   2 1219.85   68.02
  -9   7   2 1212.13   98.36
   9  -7  -1  554.79   27.94
  -9   7   1  538.43   40.09
  -9   7   1  505.36   58.68
   9  -7   0  172.30   24.34
  -9   7   0  149.55   39.52
  -9   7   0  166.16   37.67
   9  -7   1   79.88   24.83
   9  -7   1  129.29   25.96
  -9   7  -1   93.55   21.95
   9  -7   2 2234.65   82.46
   9  -7   2 2269.38   85.18
   9  -7   2 2241.94  102.71
   9  -7   2 2349.81   90.46
   9  -7   3 2117.22   85.84
   9  -7   3 2281.33   81.86
   9  -7   3 2176.18   90.92
   9  -7   3 2313.09   94.90
   9  -7   4  352.40   36.99
   9  -7   4  362.55   28.39
   9  -7   4  341.41   51.89
   9  -7   4  378.44   42.49
   9  -7   5  414.35   58.05
   9  -7   5  475.82   55.41
   9  -7   5  502.71   33.81
   9  -7   6   78.69   29.37
   9  -7   6   77.00   52.14
   9  -7   6   76.64   19.67
   9  -7   7  631.90   65.76
   9  -7   8  782.38   47.62
  -9   7  -8  750.12   50.71
   9  -7   9   82.82   37.57
  -9   7  -9   86.42   28.89
   9  -7  10   18.30   11.32
  -9   7 -10   18.08   11.85
   9  -7  11   50.11   37.67
  -9   7 -11   49.48   30.02
  -9   7 -12   33.24   22.33
  -9   7 -13   75.07   35.42
   9  -6 -14   89.55   38.71
  -9   6  14   21.38   18.17
   9  -6 -13  376.17   66.25
  -9   6  13  417.11   57.24
   9  -6 -12  779.55   50.72
  -9   6  12  804.98   62.21
   9  -6 -11 1378.12   78.50
  -9   6  11 1388.13   86.70
   9  -6 -10  341.94  101.23
  -9   6  10  377.09   94.13
   9  -6  -9   25.21   16.13
  -9   6   9    9.81   11.98
   9  -6  -8  808.48   88.13
  -9   6   8  708.79   33.44
   9  -6  -7  466.14   55.02
  -9   6   7  533.76   41.27
   9  -6  -6  235.40   49.95
  -9   6   6  232.06   65.61
   9  -6  -5  256.27   97.87
  -9   6   5  234.36   30.75
  -9   6   5  303.79   38.05
   9  -6  -4  104.51   44.42
  -9   6   4   77.07   27.95
  -9   6   4  113.02   33.62
   9  -6  -3  574.63   56.98
  -9   6   3  467.92   26.66
  -9   6   3  527.04   57.43
   9  -6  -2  331.68   34.85
  -9   6   2  355.15   22.99
  -9   6   2  320.17   62.18
   9  -6  -1  201.78   44.67
  -9   6   1  184.05   28.73
  -9   6   1  197.61   58.71
   9  -6   0    5.13    9.88
  -9   6   0   13.30   10.38
   9  -6   1  275.19   43.54
   9  -6   1  265.59   37.19
  -9   6  -1  270.44   32.78
   9  -6   2  948.28   40.07
   9  -6   2  902.49   43.72
   9  -6   2 1009.10   83.93
  -9   6  -2 1004.98   52.20
   9  -6   3 1030.73   49.77
   9  -6   3 1010.74   52.52
   9  -6   3 1058.16  108.20
  -9   6  -3 1123.35   64.28
   9  -6   4   96.06   28.16
   9  -6   4  107.27   26.35
   9  -6   4   82.50   35.42
   9  -6   4   81.17   25.52
   9  -6   5  199.19   49.85
   9  -6   5  297.80   28.78
   9  -6   5  323.23   25.99
   9  -6   6   18.64   16.28
   9  -6   6   21.75   14.01
  -9   6  -6    8.91   12.67
   9  -6   7  304.74   42.90
   9  -6   7  222.06   90.33
  -9   6  -7  280.95   48.06
   9  -6   8  600.72   75.19
   9  -6   9  269.63   35.67
  -9   6  -9  170.71   57.47
  -9   6 -10    9.56   12.26
   9  -6  11  123.99   33.54
   9  -6  12  205.02   86.00
  -9   6 -12  265.28   33.68
  -9   6 -13   27.51   18.88
   9  -5 -15  148.77   57.32
  -9   5  15  165.47   63.94
   9  -5 -14   44.99   28.86
  -9   5  14   32.44   22.54
   9  -5 -13  841.52   78.57
  -9   5  13  908.95  112.39
   9  -5 -12 1535.55   89.75
  -9   5  12 1407.13   83.87
   9  -5 -11  858.54   56.65
  -9   5  11  871.24   69.95
   9  -5 -10  114.36   59.50
  -9   5  10  115.32   45.74
   9  -5  -9  124.14   45.83
  -9   5   9  174.41   47.75
   9  -5  -8 1576.95   88.47
  -9   5   8 1595.42   88.10
  -9   5   8 1466.33  126.13
   9  -5  -7 1650.72   59.55
  -9   5   7 1625.52   31.22
  -9   5   7 1501.78   71.06
   9  -5  -6 1442.55  110.76
  -9   5   6 1291.83   83.92
  -9   5   6 1392.62   79.94
   9  -5  -5  168.14   48.16
  -9   5   5  186.61   20.89
  -9   5   5  164.85   62.25
   9  -5  -4    9.65   14.70
  -9   5   4    4.90    7.57
   9  -5  -3  527.47   63.73
  -9   5   3  528.21   31.08
  -9   5   3  534.60   31.52
   9  -5  -2  560.55   58.12
  -9   5   2  494.38   33.27
  -9   5   2  513.62   56.58
   9  -5  -1   13.85    6.61
  -9   5   1    7.39   13.34
  -9   5   1    6.05    7.81
   9  -5   0    0.01   12.82
   9  -5   0   13.36   11.58
   9  -5   1  714.76   35.06
   9  -5   1  716.44   71.91
  -9   5  -1  760.71   30.61
   9  -5   2 1020.54   36.59
   9  -5   2 1015.75   50.31
  -9   5  -2  994.28   43.30
   9  -5   3 1879.99   72.18
   9  -5   3 1847.71   95.89
  -9   5  -3 1906.41   85.13
   9  -5   4  574.56   56.25
  -9   5  -4  556.43   27.23
   9  -5   5   14.37   12.41
   9  -5   5   24.46   29.28
  -9   5  -5    5.50    8.46
   9  -5   6  156.06   44.60
   9  -5   6  150.02   68.59
  -9   5  -6  125.38   37.92
   9  -5   7  237.06   38.93
   9  -5   7  159.89   67.53
  -9   5  -7  164.94   47.50
   9  -5   8  275.37   50.92
   9  -5   8  271.26   96.85
  -9   5  -8  417.31   26.44
   9  -5   9  520.18   66.65
  -9   5  -9  423.98   24.58
   9  -5  10   23.37   17.07
  -9   5 -10    9.91    8.17
   9  -5  11   12.61   18.68
  -9   5 -11   37.89   15.92
   9  -5  12  611.42   83.43
  -9   5 -12  598.95   86.36
  -9   5 -13  345.46   52.27
   9  -4 -15   14.23    8.51
  -9   4  15    5.88   15.67
   9  -4 -14   30.90   27.15
  -9   4  14   18.36   35.72
   9  -4 -13  431.60   45.06
  -9   4  13  270.04   62.48
   9  -4 -12 1265.92  120.13
  -9   4  12 1181.07  104.61
   9  -4 -11  724.17   52.79
  -9   4  11  747.73   78.92
   9  -4 -10   12.09   19.76
  -9   4  10    6.73    5.43
  -9   4  10   16.31   16.39
   9  -4  -9   16.32   20.08
  -9   4   9   39.86   11.18
  -9   4   9   16.91   12.67
   9  -4  -8   16.20   13.01
  -9   4   8   13.43    7.23
  -9   4   8    6.84   14.87
   9  -4  -7  177.87   58.25
  -9   4   7  177.61   41.14
  -9   4   7  212.03   53.71
   9  -4  -6  363.65   33.29
  -9   4   6  320.18   37.08
  -9   4   6  362.41   50.18
   9  -4  -5    9.86   12.67
  -9   4   5    7.34    9.76
  -9   4   5   36.95   16.39
   9  -4  -4  245.67   53.37
  -9   4   4  290.31   37.31
  -9   4   4  346.11   54.73
   9  -4  -3  724.73   61.33
  -9   4   3  974.95   45.18
  -9   4   3  825.11   58.37
   9  -4  -2  101.94   29.51
  -9   4   2   59.68   27.65
   9  -4  -1   14.09   12.02
   9  -4  -1    5.74   17.33
  -9   4   1    5.89   11.19
   9  -4   0   77.91   25.61
   9  -4   0   61.58   22.80
  -9   4   0  103.46   30.26
   9  -4   1  235.69   30.88
   9  -4   1  280.03   35.81
  -9   4  -1  202.89   19.44
   9  -4   2 1075.77   40.96
   9  -4   2 1121.79   86.15
  -9   4  -2 1151.51   63.96
   9  -4   3 1481.04  112.00
  -9   4  -3 1540.55   71.62
   9  -4   4  494.83   80.54
  -9   4  -4  509.14   42.52
  -9   4  -4  526.60   33.56
   9  -4   5   30.65   16.27
  -9   4  -5   40.83   11.85
  -9   4  -5   50.80    9.91
   9  -4   6  986.26   91.75
   9  -4   6  905.85   89.88
  -9   4  -6  900.83   52.65
   9  -4   7 1256.52  107.28
   9  -4   7 1417.17   96.60
  -9   4  -7 1381.59   79.91
   9  -4   8  517.57   64.50
   9  -4   8  700.04   88.37
  -9   4  -8  547.62   72.18
   9  -4   9  260.52   65.64
   9  -4   9  367.56   50.90
  -9   4  -9  372.44   52.83
   9  -4  10   23.18   18.85
  -9   4 -10   45.78   14.41
   9  -4  11    6.56   21.16
  -9   4 -11   20.50    6.75
  -9   4 -12  240.75   97.05
   9  -3 -16   19.36   13.70
  -9   3  16   24.06   21.84
   9  -3 -15    5.81   17.72
  -9   3  15   16.57   12.13
   9  -3 -14   72.30   29.98
  -9   3  14  108.62   26.18
   9  -3 -13 1177.46   70.66
  -9   3  13  892.58   84.36
   9  -3 -12 1261.77  112.25
  -9   3  12 1276.49   75.58
  -9   3  12 1048.15   99.54
   9  -3 -11  273.02   36.37
  -9   3  11  328.98   24.46
  -9   3  11  319.59   80.39
   9  -3 -10  120.87   50.37
  -9   3  10  144.51   43.18
  -9   3  10  134.90   48.80
   9  -3  -9   72.52   21.40
  -9   3   9   80.75   27.51
  -9   3   9   91.35   21.88
   9  -3  -8   88.39   19.90
  -9   3   8   25.89   16.77
  -9   3   8   28.17   15.26
   9  -3  -7  152.66   45.81
  -9   3   7  130.68   28.88
  -9   3   7  135.38   26.88
   9  -3  -6 1200.40   76.47
  -9   3   6 1135.01   70.68
  -9   3   6 1106.89   99.61
   9  -3  -5   11.80    8.70
  -9   3   5   13.60   10.02
  -9   3   5   -3.74   13.49
   9  -3  -4   22.68   11.97
  -9   3   4   22.07    8.48
  -9   3   4   25.83   11.23
   9  -3  -3  681.56   57.25
   9  -3  -3  751.87   50.40
  -9   3   3  817.95   40.30
   9  -3  -2  337.05   34.76
   9  -3  -2  313.81   79.80
  -9   3   2  329.15   46.92
   9  -3  -1    2.66    6.81
   9  -3  -1   25.75   23.24
  -9   3   1    5.69    8.94
   9  -3   0   15.19    6.41
   9  -3   0   26.20   15.82
  -9   3   0   22.46    8.31
   9  -3   1  354.58   36.79
   9  -3   1  555.76   64.42
  -9   3  -1  451.16   54.54
   9  -3   2  369.76   13.60
   9  -3   2  477.32   31.85
  -9   3  -2  366.74   39.55
   9  -3   3  387.65   43.63
  -9   3  -3  367.91   82.64
   9  -3   4  543.46   33.33
  -9   3  -4  538.76   58.20
  -9   3  -4  624.44   32.31
   9  -3   5   11.64    9.37
  -9   3  -5   24.30   24.18
  -9   3  -5    3.68    6.17
   9  -3   6  163.73   51.47
  -9   3  -6  174.06   52.44
  -9   3  -6   85.42   41.61
   9  -3   7  353.41   59.91
   9  -3   7  414.63   59.24
  -9   3  -7  430.62   47.87
   9  -3   8  123.18   42.72
   9  -3   8  142.94   43.43
  -9   3  -8   96.55   58.68
   9  -3   9  203.80   61.28
   9  -3   9  169.00   61.69
  -9   3  -9  231.53   47.20
   9  -3  10   14.52   15.75
  -9   3 -10   15.74    9.01
  -9   3 -11   12.80   13.91
  -9   3 -12   79.40   40.30
  -9   2  17  300.06   35.94
   9  -2 -16   20.32   24.79
  -9   2  16   19.90   15.65
   9  -2 -15   37.48   19.62
  -9   2  15   -0.51    7.79
  -9   2  15   20.21   12.52
   9  -2 -14  888.63   90.22
  -9   2  14  940.22   60.69
  -9   2  14  768.72   88.98
   9  -2 -13 1725.10  105.46
  -9   2  13 1629.78   98.52
  -9   2  13 1695.22  132.87
   9  -2 -12 1022.80  130.23
  -9   2  12  998.79   65.23
  -9   2  12 1098.98   71.25
   9  -2 -11  648.71   75.90
  -9   2  11  584.83   61.23
  -9   2  11  654.47   53.15
   9  -2 -10   23.88   17.88
  -9   2  10   52.17   21.30
  -9   2  10   29.33   23.72
   9  -2  -9  964.17   61.15
  -9   2   9  848.93   87.03
  -9   2   9 1038.13   61.72
   9  -2  -8 1336.25   69.64
  -9   2   8 1423.58   67.67
  -9   2   8 1076.82   86.49
   9  -2  -7  869.64   77.30
  -9   2   7  750.88   81.40
  -9   2   7  866.83   97.35
   9  -2  -6 1139.71   89.13
  -9   2   6 1199.87   72.20
  -9   2   6 1141.02   67.92
   9  -2  -5    3.86    8.15
  -9   2   5    8.49    7.54
  -9   2   5   -7.84   15.73
   9  -2  -4   40.40   15.10
   9  -2  -4    7.21   15.85
  -9   2   4   17.88    7.12
   9  -2  -3  281.40   26.58
   9  -2  -3  306.14   39.24
  -9   2   3  246.54   57.69
   9  -2  -2 1001.58   45.04
   9  -2  -2  938.36   55.63
  -9   2   2 1057.37   49.23
   9  -2  -1  339.28   46.88
   9  -2  -1  415.57   44.26
  -9   2   1  481.64   26.79
   9  -2   0  314.07   38.59
   9  -2   0  389.63   44.11
  -9   2   0  339.05   48.54
   9  -2   1  838.73   34.11
   9  -2   1  784.84   69.32
  -9   2  -1  906.26   42.51
   9  -2   2  711.21   47.83
  -9   2  -2  619.30   49.84
   9  -2   3  186.87   61.35
  -9   2  -3  208.60   59.95
   9  -2   4  168.03   55.04
  -9   2  -4  164.85   43.09
   9  -2   5  386.28   48.92
  -9   2  -5  431.89   43.51
  -9   2  -5  424.71   26.33
   9  -2   6  480.16   67.02
  -9   2  -6  637.64   59.80
  -9   2  -6  647.72   42.18
   9  -2   7  384.48   62.36
  -9   2  -7  450.89   24.18
   9  -2   8  328.15   69.25
   9  -2   8  436.87   46.19
  -9   2  -8  400.98   26.55
   9  -2   9  269.14   96.68
   9  -2   9  244.29   91.40
  -9   2  -9  495.29   85.07
   9  -2  10    3.15   12.47
  -9   2 -10   -1.73   10.72
  -9   2 -11  123.87   57.90
  -9   1  17  332.85   46.65
   9  -1 -16  115.59   44.81
  -9   1  16   52.46   27.18
  -9   1  16   81.75   42.32
   9  -1 -15  118.59   44.71
  -9   1  15   87.14   50.20
  -9   1  15  135.28   24.94
   9  -1 -14  321.40   42.88
  -9   1  14  332.98   39.59
  -9   1  14  297.74   30.54
   9  -1 -13 1088.00  105.23
  -9   1  13 1160.12   71.91
  -9   1  13 1126.31   78.32
   9  -1 -12  904.12   70.44
  -9   1  12  920.28   51.54
  -9   1  12  960.42   59.73
   9  -1 -11  258.45   65.18
  -9   1  11  151.11   58.34
  -9   1  11  200.76   47.01
   9  -1 -10   19.24   14.97
  -9   1  10   -1.97   12.23
  -9   1  10   27.73   20.63
   9  -1  -9  872.78   77.01
  -9   1   9  824.76   89.60
  -9   1   9  969.06   99.29
   9  -1  -8 1553.86   95.32
  -9   1   8 1490.74   92.88
  -9   1   8 1649.92   75.23
   9  -1  -7 1459.96   79.12
  -9   1   7 1592.05   68.66
  -9   1   7 1405.96   82.30
   9  -1  -6  261.10   69.08
  -9   1   6  323.61   71.61
  -9   1   6  358.27   74.81
   9  -1  -5   15.58   14.02
   9  -1  -5   20.87   13.64
   9  -1  -4   11.94    9.69
   9  -1  -4  -16.18   16.75
  -9   1   4   21.93   16.52
   9  -1  -3   97.72   36.57
   9  -1  -3  104.01   37.20
  -9   1   3  101.77   23.37
   9  -1  -2  154.73   30.53
   9  -1  -2  158.22   54.10
  -9   1   2  220.29   41.70
   9  -1  -1   -3.61    8.68
   9  -1  -1   13.70   13.88
  -9   1   1   15.51    9.46
   9  -1   0    7.47    5.38
   9  -1   0   17.86   15.88
  -9   1   0    9.01   10.64
   9  -1   1  460.57  105.97
  -9   1  -1  511.34   31.96
   9  -1   2  721.31   51.94
  -9   1  -2 1007.88   82.86
   9  -1   3   35.76   22.72
  -9   1  -3   41.15   17.16
   9  -1   4  104.78   42.08
  -9   1  -4  147.65   56.09
   9  -1   5  327.82   87.74
  -9   1  -5  351.60   27.91
   9  -1   6  834.05  110.13
  -9   1  -6  925.16   68.54
   9  -1   7 1074.43   78.52
   9  -1   8 1187.48   87.29
   9  -1   8  965.99  130.75
   9  -1   9  269.19   75.81
   9  -1   9  237.30   68.75
   9  -1  10   13.03   21.27
  -9   0  18  179.95   53.28
  -9   0  18  123.84   95.95
  -9   0  17   37.77   22.79
  -9   0  17   14.97   10.50
   9   0 -16  213.43   59.96
  -9   0  16  146.59   70.29
  -9   0  16  159.12   74.61
   9   0 -15   18.84   19.65
  -9   0  15    8.86    9.79
  -9   0  15   24.55   11.94
   9   0 -14  503.75   52.45
  -9   0  14  646.28   40.51
  -9   0  14  603.88   99.67
   9   0 -13  601.79   59.81
  -9   0  13  542.64   74.66
  -9   0  13  651.49  122.31
   9   0 -12  316.95   89.48
  -9   0  12  294.61   85.19
  -9   0  12  311.44   65.68
   9   0 -11  195.84   61.90
  -9   0  11  204.63   53.15
  -9   0  11  253.47   52.08
   9   0 -10   66.37   32.38
  -9   0  10   89.41   20.23
  -9   0  10  142.64   44.37
   9   0  -9 1004.14   52.32
  -9   0   9  927.69   69.79
  -9   0   9  958.64   76.52
   9   0  -8  638.19   60.70
  -9   0   8  580.91   34.48
  -9   0   8  672.53  112.84
   9   0  -7  961.82   58.68
   9   0  -7  961.75   80.16
  -9   0   7 1075.21   47.75
   9   0  -6  683.05   73.83
   9   0  -6  748.49   73.93
  -9   0   6  765.81   69.68
   9   0  -5   34.30   15.39
   9   0  -5   19.27   27.68
  -9   0   5   26.34   17.97
   9   0  -4  675.87   70.16
   9   0  -4  818.72   69.07
  -9   0   4  819.43   42.45
   9   0  -3  170.02   23.12
   9   0  -3  191.12   43.77
  -9   0   3  178.35   52.85
   9   0  -2  141.42   25.47
   9   0  -2  129.70   43.31
  -9   0   2  108.95   31.66
   9   0  -1   66.39   27.30
   9   0  -1   98.45   41.66
  -9   0   1  101.16   26.42
   9   0   0   76.50   22.22
   9   0   0   93.18   43.23
  -9   0   0   81.72   22.89
   9   0   1  172.99   59.33
  -9   0  -1  167.93   48.54
   9   0   2  239.86  101.63
  -9   0  -2  314.25   75.03
   9   0   3   39.67   20.14
  -9   0  -3   49.82   33.30
   9   0   4   16.82   10.57
  -9   0  -4   17.12   14.17
   9   0   5   13.76   23.23
  -9   0  -5   15.49   14.15
   9   0   6  161.39   58.62
  -9   0  -6  217.10   70.16
   9   0   7  953.21  107.01
  -9   0  -7  822.94   93.10
   9   0   8  280.90   83.94
   9   0   8  302.71   35.95
   9   0   9   74.80   48.95
   9   0   9   69.91   33.98
   9   0  10   20.66   16.89
   9   1 -17   48.21   36.61
  -9  -1  17   39.28   29.06
  -9  -1  17   35.47   22.03
   9   1 -16  354.49   81.11
  -9  -1  16  161.26   79.03
  -9  -1  16  307.99   72.69
   9   1 -15   24.51   16.01
  -9  -1  15   -0.91   12.74
  -9  -1  15   24.15   10.81
   9   1 -14  220.77   77.30
  -9  -1  14  250.66   91.05
  -9  -1  14  242.41   81.95
   9   1 -13  454.72   68.09
  -9  -1  13  489.33   90.57
  -9  -1  13  395.77   48.80
   9   1 -12  710.18   31.93
  -9  -1  12  666.62   42.38
  -9  -1  12  588.23   45.98
   9   1 -11  142.72   48.99
  -9  -1  11  146.45   41.89
  -9  -1  11  151.70   40.59
   9   1 -10   62.08   15.82
  -9  -1  10   69.56   19.48
  -9  -1  10   44.68   20.28
   9   1  -9  107.53   38.53
  -9  -1   9   99.39   51.02
   9   1  -8 1145.39   56.77
   9   1  -8 1047.65   51.48
  -9  -1   8 1075.49   53.52
   9   1  -7 1967.17   80.73
   9   1  -7 1994.55   89.11
  -9  -1   7 2146.36   91.87
   9   1  -6  252.42   28.23
   9   1  -6  281.01   71.24
  -9  -1   6  300.32   67.10
   9   1  -5  445.74   42.76
   9   1  -5  432.78   68.03
  -9  -1   5  431.06   34.87
   9   1  -4  976.09   46.26
   9   1  -4  917.00   53.37
  -9  -1   4  956.06   51.45
   9   1  -3   95.05   32.32
   9   1  -3   88.38   45.04
  -9  -1   3  117.57   32.39
   9   1  -2  439.54   23.43
   9   1  -2  510.29   55.18
  -9  -1   2  403.30   45.28
   9   1  -1  714.21   30.47
   9   1  -1  621.83  107.88
  -9  -1   1  680.32   89.09
   9   1   0   -2.54   17.33
  -9  -1   0   19.44   12.68
   9   1   1  200.60   61.04
  -9  -1  -1  219.58   66.50
   9   1   2  263.97   56.24
  -9  -1  -2  380.07   42.12
   9   1   3  242.88   91.23
  -9  -1  -3  251.57   79.23
   9   1   4   12.73   10.51
  -9  -1  -4   11.20    8.91
   9   1   5  423.74   51.93
  -9  -1  -5  446.32   95.38
   9   1   6  236.04   59.77
  -9  -1  -6  205.14   94.24
   9   1   7  101.49   45.68
  -9  -1  -7  159.83   40.72
   9   1   8  205.06   78.74
   9   1   9   14.08   21.47
  -9  -2  19   21.16   15.66
  -9  -2  19   25.88    8.76
  -9  -2  18   86.11   43.92
  -9  -2  18  118.38   36.03
   9   2 -17   33.13   16.30
  -9  -2  17   30.93   19.89
  -9  -2  17   36.45   19.33
   9   2 -16  348.74   52.19
  -9  -2  16  222.50   78.99
   9   2 -15   41.35   29.28
  -9  -2  15   23.35   19.63
  -9  -2  15   22.09   18.74
   9   2 -14   80.84   20.98
  -9  -2  14  114.33   28.34
   9   2 -13   73.94   32.88
  -9  -2  13   67.43   28.85
  -9  -2  13   76.07   37.31
   9   2 -12  171.68   53.16
  -9  -2  12  114.87   32.68
  -9  -2  12  152.82   37.55
   9   2 -11   39.94   15.98
  -9  -2  11    6.89   16.27
   9   2 -10   63.20   26.17
   9   2 -10   35.49   24.41
  -9  -2  10  107.43   26.65
   9   2  -9  275.35   25.96
   9   2  -9  294.76   39.15
  -9  -2   9  346.42   46.12
   9   2  -8 1438.73  116.31
   9   2  -8 1495.24  128.35
  -9  -2   8 1731.99   74.04
   9   2  -7 2126.84   81.49
   9   2  -7 2085.96  147.51
  -9  -2   7 2369.37  100.78
   9   2  -6  578.48   53.56
   9   2  -6  593.12   39.94
  -9  -2   6  634.16   73.06
   9   2  -5   80.01   24.14
   9   2  -5   63.97   26.82
  -9  -2   5   38.15   20.33
   9   2  -4  686.73   57.33
   9   2  -4  711.20   73.56
  -9  -2   4  684.18   76.23
   9   2  -3   34.18   15.70
   9   2  -3   46.92   22.03
  -9  -2   3   59.21   24.70
   9   2  -2  583.51   29.29
   9   2  -2  576.18   68.10
  -9  -2   2  655.30   39.95
   9   2  -1  583.00   93.97
  -9  -2   1  601.96   77.02
   9   2   0    7.65   11.62
  -9  -2   0   13.70   19.32
   9   2   1  320.54   89.74
  -9  -2  -1  325.85   31.14
   9   2   2  747.69   95.18
  -9  -2  -2  658.79   65.54
   9   2   3  516.47   50.70
  -9  -2  -3  432.75   54.20
   9   2   4   52.53   24.62
  -9  -2  -4   25.61   16.84
   9   2   5   19.69   12.51
  -9  -2  -5    5.63    7.96
   9   2   6  569.80  137.03
  -9  -2  -6  477.73  114.97
   9   2   7  624.84   81.69
  -9  -2  -7  693.58   88.25
   9   2   8   26.75   17.10
   9   2   9   15.54   18.69
  -9  -3  18   42.06   28.25
  -9  -3  18   50.02   40.56
   9   3 -17  102.50   42.35
  -9  -3  17  100.17   53.28
  -9  -3  17   97.26   48.36
   9   3 -16  121.84   39.04
  -9  -3  16  126.02   46.59
  -9  -3  16  120.14   46.71
   9   3 -15   27.32   24.48
  -9  -3  15   -1.16   13.91
  -9  -3  15   18.46    5.99
   9   3 -14  121.23   36.82
  -9  -3  14  140.99   29.40
   9   3 -13   94.48   43.42
   9   3 -13   86.49   41.14
  -9  -3  13  146.69   48.85
   9   3 -12   85.45   17.37
   9   3 -12  103.09   31.54
  -9  -3  12   59.93   22.28
   9   3 -11  120.60   27.16
   9   3 -11  124.17   45.29
  -9  -3  11   93.23   32.69
   9   3 -10  158.73   38.50
   9   3 -10  132.99   38.74
  -9  -3  10  119.57   63.04
   9   3  -9  320.49   36.21
   9   3  -9  203.18   32.63
  -9  -3   9  156.18   45.45
   9   3  -8  292.38   80.72
   9   3  -8  334.52   59.59
  -9  -3   8  289.20   66.52
   9   3  -7  612.20   51.00
   9   3  -7  699.01   40.48
  -9  -3   7  599.90   39.16
   9   3  -6  365.43   43.33
   9   3  -6  425.31   95.56
  -9  -3   6  300.51   79.43
   9   3  -5   36.52   23.84
   9   3  -5   35.65   11.95
  -9  -3   5   25.44   11.88
   9   3  -4  716.90   44.82
   9   3  -4  751.67   60.68
  -9  -3   4  906.07   94.11
   9   3  -3  317.07   50.79
   9   3  -3  344.95   90.86
  -9  -3   3  403.06   68.57
   9   3  -2  430.10   32.19
   9   3  -2  450.56   93.01
  -9  -3   2  504.85   68.38
   9   3  -1  639.57   64.78
  -9  -3   1  700.32   72.21
   9   3   0   29.44   24.51
  -9  -3   0   18.23   18.33
   9   3   1   46.22   34.36
  -9  -3  -1   77.15   35.75
   9   3   2   32.38   16.08
  -9  -3  -2   26.00   10.04
   9   3   3   26.69   12.93
  -9  -3  -3    7.91   19.90
   9   3   4   37.64   19.71
   9   3   5  134.60   30.37
  -9  -3  -5  115.76   38.93
   9   3   6  770.23  106.76
  -9  -3  -6  896.96  134.21
   9   3   7  398.39   62.79
  -9  -3  -7  411.10  112.83
   9   3   8   37.55   37.13
  -9  -4  18  242.99   53.99
   9   4 -17  257.82  131.64
   9   4 -17  341.39   44.15
  -9  -4  17  425.32   69.92
   9   4 -16  261.75   87.77
   9   4 -16  234.29  109.50
  -9  -4  16  229.80   92.49
   9   4 -15   29.44   19.02
   9   4 -15   17.15   17.40
  -9  -4  15   27.85   11.97
   9   4 -14  389.85   45.83
   9   4 -14  359.97   60.02
  -9  -4  14  246.19   56.61
   9   4 -13  690.33   81.87
   9   4 -13  722.87   53.68
  -9  -4  13  687.84   65.35
   9   4 -12  103.51   34.78
   9   4 -12   94.72   37.63
  -9  -4  12   81.43   41.84
   9   4 -11   39.12   34.34
  -9  -4  11   60.32   39.26
   9   4 -10   78.25   33.44
   9   4 -10  118.09   25.65
  -9  -4  10  126.85   35.94
   9   4  -9 1094.16   67.82
   9   4  -9 1056.15   59.99
  -9  -4   9 1178.74  142.27
   9   4  -8  528.65   53.84
   9   4  -8  484.91   44.50
  -9  -4   8  484.12   84.43
   9   4  -7   24.07   11.60
   9   4  -7   13.74   19.85
  -9  -4   7   14.86   21.29
   9   4  -6   49.19   22.69
   9   4  -6   71.67   22.58
  -9  -4   6   65.52   28.50
   9   4  -5   10.92   12.09
   9   4  -5   36.89   18.44
  -9  -4   5   24.51   11.37
   9   4  -4  269.78   29.70
   9   4  -4  260.24   83.47
  -9  -4   4  300.97   76.48
   9   4  -3 1134.64   63.46
   9   4  -3 1023.61  114.07
  -9  -4   3 1141.57   78.49
   9   4  -2  434.55   65.56
  -9  -4   2  532.75   64.15
   9   4  -1  248.35   74.93
  -9  -4   1  156.65   65.94
   9   4   0   36.87   35.21
  -9  -4   0   34.44   17.05
   9   4   1   20.99   14.87
  -9  -4  -1    1.41   20.53
   9   4   2   35.00   13.88
  -9  -4  -2   60.48   41.24
   9   4   3   80.53   32.96
  -9  -4  -3   77.22   27.30
   9   4   4   13.06   16.01
  -9  -4  -4   20.06   20.80
  -9  -4  -5   85.82   48.50
   9   4   6  566.54   85.38
  -9  -4  -6  540.27   86.98
   9   4   7  119.32   59.54
   9   5 -17  475.50   95.87
  -9  -5  17  709.60   99.74
   9   5 -16  171.38   51.43
  -9  -5  16  180.36   72.81
   9   5 -15   15.39   13.54
   9   5 -15   19.71   16.78
  -9  -5  15   12.40   14.50
   9   5 -14  194.70   74.62
   9   5 -14  223.40   37.57
  -9  -5  14  190.57   70.10
   9   5 -13  164.73   46.31
   9   5 -13  149.27   62.63
  -9  -5  13   82.98   47.62
   9   5 -12   30.16   20.38
   9   5 -12   31.45   18.48
  -9  -5  12   30.87   19.49
   9   5 -11   48.25   14.07
  -9  -5  11   35.71   27.36
   9   5 -10  274.50   63.26
   9   5 -10  314.51   44.72
  -9  -5  10  357.14   39.54
   9   5  -9 1271.70   76.13
   9   5  -9 1282.50   79.70
  -9  -5   9 1126.81   96.95
   9   5  -8  458.79   64.16
   9   5  -8  477.59   50.95
  -9  -5   8  477.73  115.25
   9   5  -7    5.42   14.60
   9   5  -7   15.76   13.37
  -9  -5   7   13.64   20.85
   9   5  -6   80.28   31.94
   9   5  -6   87.67   34.01
  -9  -5   6  102.23   36.29
   9   5  -5 1115.15   31.40
   9   5  -5 1094.08   83.14
  -9  -5   5  999.22   82.07
   9   5  -4  180.74   27.58
   9   5  -4  149.50   81.44
  -9  -5   4  160.21   50.41
   9   5  -3 2408.75  217.80
  -9  -5   3 2659.72  190.80
   9   5  -2  236.17   88.64
  -9  -5   2  287.50   88.11
   9   5  -1   69.69   36.55
  -9  -5   1   12.61   23.15
   9   5   0   85.86   27.33
  -9  -5   0   28.07   18.19
   9   5   1  414.89   87.59
  -9  -5  -1  498.76   57.76
   9   5   2  457.48   92.15
  -9  -5  -2  471.70   49.77
   9   5   3  313.09   98.81
   9   5   4  100.45   53.82
  -9  -5  -4  118.49   40.75
   9   5   5   26.83   23.75
  -9  -5  -5   24.12   15.47
   9   6 -17  393.18   63.37
   9   6 -16   77.60   33.76
   9   6 -16   61.81   41.69
  -9  -6  16   75.32   32.00
   9   6 -15   42.02   15.66
  -9  -6  15   15.04   16.60
   9   6 -14   24.98   15.61
   9   6 -14   56.42   18.15
  -9  -6  14   56.17   14.01
   9   6 -13   19.37   10.85
   9   6 -13    9.57   17.61
  -9  -6  13   53.88   25.14
   9   6 -12   19.44   29.07
   9   6 -12   66.73   26.76
  -9  -6  12   44.93   16.08
   9   6 -11   11.29   15.24
   9   6 -11   15.76   19.68
  -9  -6  11   17.43   22.46
   9   6 -10   63.43   24.16
   9   6 -10  102.07   34.51
  -9  -6  10   96.65   32.69
   9   6  -9  757.65   53.56
   9   6  -9  848.37   77.49
  -9  -6   9  669.68   76.07
   9   6  -8 1215.17   87.80
   9   6  -8 1452.19   93.74
  -9  -6   8 1288.62  132.22
   9   6  -7  396.25   54.46
   9   6  -7  297.48  101.59
  -9  -6   7  451.83   67.60
   9   6  -6    2.22    8.50
   9   6  -6    6.39   17.66
  -9  -6   6   24.70   23.88
   9   6  -5  499.54   32.48
   9   6  -5  580.56   64.51
  -9  -6   5  555.08   58.18
  -9  -6   4  231.26   94.04
   9   6  -3 1559.68   96.61
  -9  -6   3 1513.56   96.78
   9   6  -2  522.24   62.66
  -9  -6   2  402.61   37.94
   9   6  -1   32.06   27.61
  -9  -6   1   48.63   32.02
   9   6   0  107.50   48.09
  -9  -6   0  136.08   50.11
   9   6   1  832.69   81.40
  -9  -6  -1  998.56   62.34
   9   6   2  594.33  162.67
  -9  -6  -2  638.32   70.87
   9   6   3   19.11   23.58
  -9  -6  -3   42.61   17.53
   9   7 -17  343.04   55.02
   9   7 -16    9.04   15.76
   9   7 -15   71.17   29.14
   9   7 -15   87.97   27.82
  -9  -7  15   46.38   30.63
   9   7 -14   74.50   57.36
   9   7 -14   51.76   57.18
  -9  -7  14  100.75   72.31
   9   7 -13  134.44   51.88
   9   7 -13   96.90   52.85
  -9  -7  13  118.28   65.82
   9   7 -12  151.05   32.93
   9   7 -12  155.38   60.41
  -9  -7  12  150.13   57.52
   9   7 -11   25.90   21.43
   9   7 -11   16.67    9.59
  -9  -7  11   14.77   14.38
   9   7 -10   22.24   23.44
   9   7 -10   37.34   32.49
  -9  -7  10   40.35   22.18
   9   7  -9  824.90   49.97
   9   7  -9  912.47   75.67
  -9  -7   9  843.74   94.54
   9   7  -8  520.17   35.05
   9   7  -8  445.25   48.41
  -9  -7   8  457.15   50.10
   9   7  -7   93.37   49.38
   9   7  -7  199.61   65.36
  -9  -7   7  157.71   69.19
   9   7  -6    6.58   12.90
   9   7  -6   -1.13   16.75
  -9  -7   6   35.61   21.48
   9   7  -5  428.02   55.61
  -9  -7   5  508.53   64.49
   9   7  -4  563.95   68.54
  -9  -7   4  458.03   63.29
   9   7  -3  742.50   87.31
  -9  -7   3  630.54   78.43
   9   7  -2  486.92   53.68
  -9  -7   2  468.80   44.91
  -9  -7   1   64.25   43.63
   9   7   0  114.97   64.92
  -9  -7   0  103.00   33.87
   9   7   1  584.65   81.64
  -9  -7  -1  417.28   64.93
   9   7   2  201.97  103.00
  -9  -7  -2  232.42   95.22
   9   8 -16    9.52   14.09
   9   8 -15   48.93   40.94
   9   8 -14   94.96   63.62
   9   8 -14  154.11   54.73
  -9  -8  14  125.03   68.58
   9   8 -13  128.25   74.67
  -9  -8  13  176.20   80.38
   9   8 -12  483.54   68.49
   9   8 -12  407.81   61.27
  -9  -8  12  613.81   64.85
   9   8 -11    9.19   14.82
   9   8 -11    2.09   12.72
  -9  -8  11   12.53   34.72
   9   8 -10   55.31   26.06
   9   8 -10   64.52   33.85
  -9  -8  10   79.94   30.47
   9   8  -9   33.28   26.71
  -9  -8   9   32.97   17.07
   9   8  -8   56.78   24.97
   9   8  -8   69.87   21.28
  -9  -8   8   55.61   36.91
   9   8  -7   62.39   27.25
   9   8  -7   86.00   32.34
  -9  -8   7   80.52   38.11
   9   8  -6  128.22   50.40
  -9  -8   6  125.23   38.88
   9   8  -5  575.12   74.25
  -9  -8   5  513.91   56.83
   9   8  -4  509.22   77.83
  -9  -8   4  525.81   71.23
   9   8  -3  628.79   80.46
  -9  -8   3  590.89   78.39
   9   8  -2  258.96   93.86
  -9  -8   2  188.76   70.70
  -9  -8   1   97.61   34.49
   9   8   0   74.13   34.25
  -9  -8   0   39.95   26.04
   9   9 -15   18.18   12.47
   9   9 -14   87.45   56.52
   9   9 -13  340.15   79.46
   9   9 -13  342.79   38.75
   9   9 -12   23.17   19.63
   9   9 -12   63.35   31.65
   9   9 -11    7.44   14.05
   9   9 -11    7.95   22.50
  -9  -9  11   24.54   20.02
   9   9 -10   -1.03   11.89
   9   9 -10   23.82   19.90
  -9  -9  10   32.70   24.16
   9   9  -9   28.22   18.26
   9   9  -9   29.55   19.00
  -9  -9   9   30.89   25.85
   9   9  -8    9.02   13.11
   9   9  -8   43.05   35.24
  -9  -9   8   12.94   24.17
   9   9  -7   31.11   21.88
  -9  -9   7   33.65   30.36
   9   9  -6    5.53   12.95
  -9  -9   6   16.95   20.31
   9   9  -5  165.71   68.38
  -9  -9   5  143.03   76.84
   9   9  -4  734.14   83.62
  -9  -9   4  680.70   94.16
   9   9  -3  110.97   43.17
  -9  -9   3   99.81   41.69
   9  10 -13  174.59   64.42
   9  10 -12  136.80   63.46
   9  10 -11   15.03   10.79
   9  10 -11   13.83   14.91
   9  10 -10   25.16   18.53
   9  10 -10   18.01   13.81
   9  10  -9   -6.78   12.39
   9  10  -9   13.33   21.64
   9  10  -8   23.04   27.08
   9  10  -7   20.13   23.99
   9  10  -6   34.00   32.53
   9  11 -11   19.83   14.29
  10 -15   2  316.74  112.45
  10 -15   3   12.41   11.54
  10 -15   4   10.15   16.11
  10 -15   5  156.26   81.48
 -10  14   5  151.15   52.05
 -10  14   4   29.12   23.62
 -10  14   3  280.00   54.62
  10 -14  -1   54.29   21.59
  10 -14   1  530.87   73.68
  10 -14   2   63.76   31.50
  10 -14   4   13.60   14.14
  10 -14   5  182.92   86.63
  10 -14   6  304.38   54.33
 -10  13   6   35.96   21.49
  10 -13  -4   14.75   16.64
 -10  13   4    5.79    8.05
  10 -13  -3   99.51   47.84
 -10  13   3  107.91   44.90
  10 -13  -2  190.75   76.06
 -10  13   2  109.94   36.96
  10 -13  -1  120.91   51.07
 -10  13   1   51.99   36.85
  10 -13   0  371.83   82.15
  10 -13   1  520.59   67.28
  10 -13   2  517.47   60.84
  10 -13   3   22.35   10.00
  10 -13   4   71.96   20.65
  10 -13   5  610.30   90.65
 -10  12   7   86.83   49.05
  10 -12  -6   38.71   18.73
 -10  12   6   44.74   24.39
  10 -12  -5    2.96   16.22
 -10  12   5   21.38   18.14
  10 -12  -4  110.90   53.20
 -10  12   4  101.77   51.53
  10 -12  -3   77.29   30.86
 -10  12   3  101.72   34.70
  10 -12  -2   34.46   20.09
 -10  12   2   21.63   17.98
  10 -12  -1   -0.21   15.58
 -10  12   1   18.69   11.14
  10 -12   1  614.99   58.68
 -10  12  -1  443.24   46.20
  10 -12   2  593.36   65.38
  10 -12   4   37.61   16.29
  10 -12   5  918.54   64.73
  10 -11  -8  703.74   87.78
 -10  11   8  793.10   67.59
  10 -11  -7  819.22  121.58
 -10  11   7  748.99   89.72
  10 -11  -6   60.85   20.77
 -10  11   6   44.45   26.10
  10 -11  -5  327.66   80.12
 -10  11   5  352.91   53.01
  10 -11  -4  557.78  103.65
 -10  11   4  584.22   75.49
  10 -11  -3  598.67   89.82
 -10  11   3  732.26   36.75
  10 -11  -2  525.40   69.09
 -10  11   2  457.71   30.97
  10 -11  -1   23.82   17.91
 -10  11   1   14.37   16.10
  10 -11   0   22.06   21.93
 -10  11   0   18.36    9.50
  10 -11   1  468.05   45.67
 -10  11  -1  338.53   48.33
  10 -11   2  135.98   45.11
 -10  11  -2  115.68   41.11
  10 -11   4   38.19   16.36
  10 -11   5  284.17   39.54
  10 -10  -9  413.56   57.72
 -10  10   9  494.39   91.75
  10 -10  -8  896.23   59.17
 -10  10   8  841.82   98.02
  10 -10  -7  521.21   71.63
 -10  10   7  404.99   94.97
  10 -10  -6   18.58   25.31
 -10  10   6   14.17   18.15
  10 -10  -5    0.54   14.55
 -10  10   5   22.23   16.17
  10 -10  -4  907.75   96.75
 -10  10   4  894.73   55.04
  10 -10  -3  495.00   54.92
 -10  10   3  526.51   36.12
  10 -10  -2  452.01   83.17
 -10  10   2  611.78   37.84
  10 -10  -1  113.70   37.32
  10 -10   0  228.74   31.49
 -10  10   0  216.24   64.66
  10 -10   1  506.45   56.38
 -10  10  -1  599.34   47.08
  10 -10   2   49.23   16.05
  10 -10   2   17.95   11.76
  10 -10   3   21.97   11.55
  10 -10   3    6.08    7.84
  10 -10   4  212.64   54.55
  10  -9 -10  490.93   50.48
 -10   9  10  502.93   59.94
  10  -9  -9 1560.53  101.35
 -10   9   9 1631.68  127.22
  10  -9  -8  481.05   56.19
 -10   9   8  444.71   72.80
 -10   9   7   91.72   28.27
  10  -9  -6    8.10   13.93
 -10   9   6    7.49   15.39
  10  -9  -5   28.58   23.15
 -10   9   5   36.18   17.02
  10  -9  -4  933.88   55.87
 -10   9   4 1119.83   58.24
  10  -9  -3  272.27   75.17
 -10   9   3  295.46  105.30
  10  -9  -2   95.31   27.24
 -10   9   2  121.07   34.23
  10  -9  -1  169.46   55.67
 -10   9   1  228.58   39.99
  10  -9   0    9.70   13.39
 -10   9   0    7.02   11.24
  10  -9   1  363.09   47.18
  10  -9   2   85.02   22.55
  10  -9   2   63.27   32.05
  10  -9   3    5.73    8.98
  10  -9   3   17.89   11.50
  10  -9   4   12.30    9.87
  10  -9   8  116.67   68.29
  10  -9   9   84.73   31.70
  10  -8 -11  186.74   68.80
 -10   8  11  171.35   63.45
  10  -8 -10  205.46   71.88
 -10   8  10  167.23   88.57
  10  -8  -9  925.62  103.69
 -10   8   9  968.59   63.63
  10  -8  -8  453.15   75.73
 -10   8   8  390.84   76.61
  10  -8  -7   11.24    9.33
 -10   8   7   27.84   16.57
  10  -8  -6  263.27   50.02
 -10   8   6  229.30   84.95
  10  -8  -5  427.45   69.23
 -10   8   5  652.42   44.26
  10  -8  -4 2471.22  144.50
 -10   8   4 2226.49  139.90
  10  -8  -3 1613.90  114.46
 -10   8   3 1347.50  136.19
  10  -8  -2   70.76   27.73
 -10   8   2  119.13   32.35
  10  -8  -1   13.65   12.13
 -10   8   1   12.06    9.88
  10  -8   0  168.02   44.48
 -10   8   0  174.94   45.83
  10  -8   1   12.86   10.43
  10  -8   1   21.10   12.03
  10  -8   2   35.14   16.93
  10  -8   2   50.95   26.96
  10  -8   3    9.44    9.97
  10  -8   3   22.14   17.24
  10  -8   4  223.99   58.39
  10  -8   4  220.69   29.45
  10  -8   5  228.83   79.27
  10  -8   6  570.00   33.70
  10  -8   7  129.61   65.11
  10  -8   8   23.71   12.05
  10  -8   9   34.50   24.53
  10  -8  10   82.18   71.90
  10  -8  11  256.60  103.17
  10  -7 -12   21.27   19.09
  10  -7 -11   39.98   21.61
 -10   7  11   33.83   26.48
  10  -7 -10  106.61   42.77
 -10   7  10   99.83   42.87
  10  -7  -9  987.60  113.85
 -10   7   9  928.20   96.41
  10  -7  -8  230.56   44.82
 -10   7   8  276.50   27.93
  10  -7  -7   36.46   24.66
 -10   7   7   62.76   39.28
  10  -7  -6  185.50   41.36
 -10   7   6  199.60   31.03
  10  -7  -5  857.36   44.59
 -10   7   5  831.38   69.66
  10  -7  -4 1863.78  133.00
 -10   7   4 2019.23  154.28
  10  -7  -3 1504.32  110.31
 -10   7   3 1659.00  122.90
  10  -7  -2  158.08   50.74
 -10   7   2  165.90   57.25
  10  -7  -1  597.88   63.68
 -10   7   1  562.41   25.86
  10  -7   0 1305.99   94.81
  10  -7   0 1062.96   50.50
 -10   7   0 1122.48   78.30
  10  -7   1  492.10   55.05
  10  -7   1  474.33   66.84
 -10   7  -1  471.82   26.16
  10  -7   2 1244.02   86.78
  10  -7   2 1080.08   62.76
  10  -7   3    3.65    9.27
  10  -7   3   15.13    9.45
  10  -7   4  405.12   22.24
  10  -7   4  433.55   46.57
  10  -7   5  383.99   68.64
  10  -7   5  374.48   65.12
  10  -7   6  390.55   59.24
  10  -7   8   88.92   36.98
  10  -7   9  467.43   65.37
  10  -7  10  657.85  111.60
  10  -7  11  607.43   79.51
  10  -6 -13   23.39   15.97
 -10   6  13    8.35   14.22
  10  -6 -12   92.80   51.85
 -10   6  12   98.22   57.03
  10  -6 -11    8.61   22.88
 -10   6  11   32.67   28.10
  10  -6 -10  273.82   72.79
 -10   6  10  224.98   71.16
  10  -6  -9  614.70   78.29
 -10   6   9  598.49   56.81
  10  -6  -8   99.46   42.18
 -10   6   8   49.85   25.32
  10  -6  -7   99.03   34.27
 -10   6   7   85.19   23.66
  10  -6  -6  752.12   38.03
 -10   6   6  725.94   75.92
  10  -6  -5 1391.58  101.43
 -10   6   5 1337.06  105.03
  10  -6  -4  947.76   99.89
 -10   6   4  971.18   89.11
  10  -6  -3 1093.84   73.92
 -10   6   3 1030.17   70.76
 -10   6   3 1209.36   80.17
  10  -6  -2    8.35   11.31
 -10   6   2   11.22    5.12
 -10   6   2   15.63   12.43
  10  -6  -1  181.09   50.90
  10  -6  -1  201.56   70.26
 -10   6   1  183.18   49.61
  10  -6   0 1300.00   74.40
  10  -6   0 1471.46  130.79
 -10   6   0 1486.87   94.68
  10  -6   1 1852.23  125.19
  10  -6   1 1995.16  150.47
 -10   6  -1 1924.96  142.96
  10  -6   2  632.99   29.47
  10  -6   2  555.37   43.69
 -10   6  -2  657.22   43.85
  10  -6   3   14.67   13.18
 -10   6  -3   16.49   10.06
  10  -6   4  100.89   47.33
  10  -6   4  105.56   44.82
  10  -6   5  310.65   45.09
  10  -6   5  283.55   48.38
  10  -6   6  312.69   56.10
  10  -6   7   16.35   14.18
  10  -6   9  597.44   76.35
  10  -6  10  449.83   54.72
  10  -6  11  352.14   59.63
  10  -5 -13   17.08   13.27
 -10   5  13   15.61   15.87
  10  -5 -12   40.83   27.72
 -10   5  12   55.93   34.42
  10  -5 -11   15.26   11.14
 -10   5  11   37.79   15.33
  10  -5 -10  178.69   49.85
 -10   5  10  144.39   67.77
  10  -5  -9  280.96   56.17
 -10   5   9  439.56   36.56
  10  -5  -8  288.00   33.37
 -10   5   8  347.89   36.23
  10  -5  -7   12.57   10.19
 -10   5   7   16.91   17.11
  10  -5  -6   59.20   27.81
 -10   5   6   70.45   22.40
  10  -5  -5  562.60   58.17
 -10   5   5  577.16   37.28
 -10   5   5  538.76   42.73
  10  -5  -4  828.81   48.81
 -10   5   4  875.72   43.37
 -10   5   4  759.47   39.53
  10  -5  -3  292.56   32.58
 -10   5   3  250.16   28.67
 -10   5   3  253.92   71.97
  10  -5  -2   13.05    6.87
  10  -5  -2   28.13   14.49
 -10   5   2   25.75    8.50
  10  -5  -1  382.07   37.67
  10  -5  -1  376.85   68.10
 -10   5   1  376.10   47.15
  10  -5   0  462.38   47.66
  10  -5   0  588.29   55.83
 -10   5   0  562.01   29.26
  10  -5   1  838.83   41.75
  10  -5   1  758.68   75.08
 -10   5  -1  841.25   58.65
  10  -5   2  360.88   60.27
 -10   5  -2  353.78   57.36
  10  -5   3   10.17   14.45
 -10   5  -3   26.16   15.54
  10  -5   4   27.56   15.07
 -10   5  -4   25.31   13.55
  10  -5   5  425.50   73.14
  10  -5   5  394.25   67.73
  10  -5   6  152.15   72.71
  10  -5   6  224.25   75.08
  10  -5   8   21.13   10.70
  10  -5   9  300.95  125.20
  10  -5  10  122.75   73.97
  10  -4 -14  712.60   86.95
 -10   4  14  936.41   62.77
  10  -4 -13  203.74   70.26
 -10   4  13  266.00   28.05
  10  -4 -12   19.08   16.13
 -10   4  12   19.72   14.10
  10  -4 -11   14.75   15.20
 -10   4  11   47.89   22.61
  10  -4 -10  325.78   33.26
 -10   4  10  321.92   69.03
  10  -4  -9   18.49   12.05
 -10   4   9   15.40   10.85
 -10   4   9   23.37   21.07
  10  -4  -8    1.33    8.59
 -10   4   8    5.63    5.38
 -10   4   8   31.77   12.65
  10  -4  -7   15.64   12.95
 -10   4   7    3.57    9.95
 -10   4   7   15.07   14.30
  10  -4  -6  144.83   52.38
 -10   4   6  199.39   49.46
 -10   4   6  148.94   34.89
  10  -4  -5  741.13   75.42
 -10   4   5  781.79   48.53
 -10   4   5  890.21   36.35
  10  -4  -4 1084.14   69.45
 -10   4   4  944.29   62.16
 -10   4   4  895.42   71.55
  10  -4  -3  407.03   53.81
  10  -4  -3  409.58   81.58
 -10   4   3  511.02   27.62
  10  -4  -2    7.85    8.11
  10  -4  -2   14.32   19.87
 -10   4   2   16.10   11.84
  10  -4  -1  185.08   58.82
 -10   4   1  169.38   39.96
  10  -4   0  537.91   25.35
  10  -4   0  517.54   79.48
  10  -4   1  844.02   28.56
  10  -4   1  954.82   78.80
 -10   4  -1  920.73   58.61
  10  -4   2  293.39   35.97
 -10   4  -2  258.20   77.04
  10  -4   3  145.16   57.82
 -10   4  -3  263.45   61.81
  10  -4   4  268.09   45.94
 -10   4  -4  310.14  103.57
  10  -4   5 1324.06   86.15
 -10   4  -5 1327.27   80.35
  10  -4   6  819.93   84.52
  10  -4   6  976.59   75.62
  10  -4   7  104.79   59.92
  10  -4   7  122.52   40.97
  10  -4   9  111.05   69.46
  10  -4  10  102.95   53.61
 -10   3  15   13.89   13.42
  10  -3 -14  414.04   49.48
 -10   3  14  399.22   31.07
  10  -3 -13  888.57  117.71
 -10   3  13 1031.36   56.91
  10  -3 -12   15.21   14.11
  10  -3 -11  190.08   60.77
 -10   3  11  161.94   51.89
  10  -3 -10   26.20   10.04
 -10   3  10   49.28   19.59
 -10   3  10   66.39   25.98
  10  -3  -9   29.90   25.25
 -10   3   9    6.70   11.43
 -10   3   9   38.62   25.30
  10  -3  -8  150.85   51.90
 -10   3   8  138.97   50.32
 -10   3   8  168.88   35.80
  10  -3  -7   41.82   28.29
 -10   3   7   74.48   17.95
 -10   3   7   96.09   33.70
  10  -3  -6  544.72   73.22
 -10   3   6  595.89   56.97
 -10   3   6  661.50   51.80
  10  -3  -5  930.22   62.17
 -10   3   5 1129.20   72.84
 -10   3   5 1133.69   70.98
  10  -3  -4 1049.84   66.95
  10  -3  -4 1078.31   69.56
 -10   3   4 1001.41   61.38
  10  -3  -3  268.57   26.79
  10  -3  -3  342.88   82.99
 -10   3   3  346.07   40.24
  10  -3  -2   16.23   10.13
  10  -3  -2   27.02   17.97
 -10   3   2   16.64    9.08
  10  -3  -1   67.13   19.33
  10  -3  -1  130.74   34.00
 -10   3   1   78.59   28.87
  10  -3   0  533.74   25.01
  10  -3   0  545.22   56.25
 -10   3   0  507.50   55.80
  10  -3   1 1246.26  144.50
 -10   3  -1 1361.32   99.59
  10  -3   2   73.54   35.68
 -10   3  -2  146.21   53.77
  10  -3   3  139.74   48.40
 -10   3  -3  172.55   65.94
  10  -3   4   -3.15   12.82
 -10   3  -4   34.01   18.27
  10  -3   5  313.98   61.59
 -10   3  -5  381.75   52.82
  10  -3   6  451.23   86.02
  10  -3   7   84.44   40.75
  10  -3   7   30.86   15.57
  10  -3   8   17.79   24.07
  10  -3   9  112.61   67.62
  10  -2 -15   32.26   13.99
 -10   2  15   26.64   26.98
  10  -2 -14  787.23   95.22
 -10   2  14  840.03   62.29
  10  -2 -13  456.42   52.12
 -10   2  13  454.73   70.16
  10  -2 -12   30.67   17.73
 -10   2  12   23.72   14.17
 -10   2  12   35.73   19.25
  10  -2 -11   17.85   11.88
 -10   2  11    8.08   12.83
 -10   2  11   15.89   18.20
  10  -2 -10  501.14   64.10
 -10   2  10  489.73   60.90
 -10   2  10  565.83   45.98
  10  -2  -9  657.13   56.67
 -10   2   9  794.03   46.43
 -10   2   9  668.54   56.90
  10  -2  -8  397.31   42.09
 -10   2   8  264.55   78.52
 -10   2   8  354.50   97.15
  10  -2  -7  163.02   57.94
 -10   2   7  184.10   37.78
 -10   2   7  143.81   24.80
  10  -2  -6  131.62   45.30
 -10   2   6  136.46   48.63
  10  -2  -5 1335.54   76.67
  10  -2  -5 1427.44  135.54
 -10   2   5 1659.18   92.18
  10  -2  -4  739.34   52.34
  10  -2  -4  795.24   63.68
 -10   2   4  732.03   72.15
  10  -2  -3  192.04   32.17
  10  -2  -3  242.66   74.76
 -10   2   3  191.42   52.11
  10  -2  -2   74.28   25.85
  10  -2  -2   52.12   32.41
 -10   2   2   64.57   24.34
  10  -2  -1  470.48   29.40
  10  -2  -1  523.56  105.86
 -10   2   1  426.93   21.71
  10  -2   0  875.78   92.11
 -10   2   0  956.58   61.35
  10  -2   1  949.97   91.62
 -10   2  -1  933.05   90.72
  10  -2   2  316.46   42.36
 -10   2  -2  275.78   64.18
  10  -2   3   61.76   35.12
 -10   2  -3   29.89   18.27
  10  -2   4   16.09   13.58
 -10   2  -4   25.17   30.69
  10  -2   5    8.28   26.80
 -10   2  -5   11.76   16.91
  10  -2   6    5.21   14.51
 -10   2  -6   23.27   10.41
  10  -2   7   33.14   26.99
  10  -2   7   10.91   15.78
  10  -2   8   61.66   25.23
  10  -2   8   73.04   22.21
  10  -2   9   39.63   23.93
  10  -2   9   12.20   17.91
 -10   1  16  396.30   80.42
  10  -1 -15  419.82   57.22
 -10   1  15  312.53   68.77
 -10   1  15  281.12   95.71
  10  -1 -14  918.60   97.64
 -10   1  14  945.57   58.86
 -10   1  14  907.53   98.55
  10  -1 -13  624.38   72.99
 -10   1  13  493.25   66.00
 -10   1  13  521.17   97.03
  10  -1 -12   19.53    9.42
 -10   1  12   68.03   26.81
 -10   1  12   19.09   20.63
  10  -1 -11   38.00   11.38
 -10   1  11   18.31   18.10
 -10   1  11   95.84   21.18
  10  -1 -10  597.84   62.34
 -10   1  10  656.10   80.81
 -10   1  10  688.37   77.26
  10  -1  -9  837.03   44.48
 -10   1   9  789.29   49.82
 -10   1   9  719.79   49.59
  10  -1  -8   47.57   25.21
 -10   1   8  113.28   25.12
 -10   1   8   51.92   28.07
  10  -1  -7   22.47   18.43
  10  -1  -7   15.82   22.63
 -10   1   7   28.06   19.36
  10  -1  -6  425.96   85.41
  10  -1  -6  593.51   53.84
 -10   1   6  572.53   62.60
  10  -1  -5 1190.20   88.66
  10  -1  -5 1264.90   52.90
 -10   1   5 1249.37   45.15
  10  -1  -4  384.08   53.24
  10  -1  -4  460.78   36.99
 -10   1   4  391.70   53.79
  10  -1  -3  315.84   53.49
  10  -1  -3  308.51   75.65
 -10   1   3  374.57   34.28
  10  -1  -2  153.28   56.84
  10  -1  -2  221.44   62.29
 -10   1   2  183.11   66.35
  10  -1  -1 1174.73   77.81
 -10   1   1 1272.99   78.46
  10  -1   0 1748.82  138.44
 -10   1   0 1782.15  126.28
  10  -1   1 1575.74  129.37
 -10   1  -1 1468.50  115.05
  10  -1   2  385.62   68.15
 -10   1  -2  359.17   45.16
  10  -1   3   14.89   13.86
 -10   1  -3   12.33   14.17
  10  -1   4  716.74   92.60
 -10   1  -4  650.74   81.07
  10  -1   5  699.63   65.18
 -10   1  -5  616.85   85.59
  10  -1   6   87.21   32.66
 -10   1  -6   45.79   31.63
  10  -1   7   75.65   21.06
  10  -1   8   47.91   26.33
  10  -1   8   33.74   30.09
  10  -1   9   15.78   14.67
 -10   0  17    8.76   10.32
 -10   0  16   77.43   28.35
 -10   0  16  125.62   46.11
  10   0 -15  104.78   63.13
 -10   0  15  173.68   73.80
 -10   0  15  200.11   89.80
  10   0 -14  782.89   51.79
 -10   0  14  614.01   72.21
 -10   0  14  632.80  114.02
  10   0 -13  295.80   32.32
 -10   0  13  199.06   84.51
 -10   0  13  359.84   64.89
  10   0 -12  127.93   55.15
 -10   0  12  136.32   44.60
 -10   0  12   96.10   27.08
  10   0 -11  189.26   40.99
 -10   0  11  111.69   76.49
 -10   0  11  177.04   38.23
  10   0 -10  577.45   96.87
 -10   0  10  740.58   36.71
 -10   0  10  711.81   79.36
  10   0  -9  490.15   72.88
  10   0  -9  453.49   48.53
 -10   0   9  488.08  103.94
  10   0  -8  112.41   42.67
  10   0  -8   88.99   35.33
 -10   0   8  132.58   40.56
  10   0  -7   13.19    9.30
  10   0  -7   18.41   14.61
 -10   0   7   12.97   14.07
  10   0  -6  166.18   47.75
  10   0  -6  204.19   58.04
 -10   0   6  145.04   31.72
  10   0  -5 1080.45   60.28
  10   0  -5 1091.51  121.37
 -10   0   5 1068.27  108.77
  10   0  -4  344.45   48.05
  10   0  -4  409.10   50.76
 -10   0   4  362.78   36.26
  10   0  -3   36.18    8.56
  10   0  -3   77.11   29.25
 -10   0   3   36.89   21.76
  10   0  -2  400.00   27.24
  10   0  -2  419.69   62.69
 -10   0   2  478.37   43.66
  10   0  -1 1000.20  112.36
 -10   0   1 1244.09  137.15
  10   0   0 2323.54  186.97
 -10   0   0 2432.60  180.32
  10   0   1 1266.37   94.37
 -10   0  -1 1293.96   87.43
  10   0   2  321.39   83.47
  10   0   3   28.20   26.64
 -10   0  -3   36.38   20.27
  10   0   4  580.84   36.11
 -10   0  -4  483.89   76.87
  10   0   5 1564.66  107.47
 -10   0  -5 1829.70   85.40
  10   0   6  382.95   84.64
 -10   0  -6  366.95  140.74
  10   0   7  136.60   36.08
 -10   0  -7  141.17   44.71
  10   0   9   24.84    9.34
 -10  -1  17   14.62    8.35
 -10  -1  16   18.71   16.41
 -10  -1  16   33.28   27.87
  10   1 -15  775.26   53.90
 -10  -1  15  670.33   87.82
 -10  -1  15  615.72   76.84
  10   1 -14  404.00   57.82
 -10  -1  14  328.39   54.92
 -10  -1  14  351.79   32.65
  10   1 -13   95.14   44.32
 -10  -1  13   96.79   43.96
 -10  -1  13  139.60   49.97
  10   1 -12  115.24   44.56
 -10  -1  12  110.28   62.16
 -10  -1  12  134.68   44.61
  10   1 -11   16.60   23.31
  10   1 -11   17.65   21.06
 -10  -1  11    2.44   16.94
  10   1 -10  342.70   45.08
  10   1 -10  229.96  102.52
 -10  -1  10  282.13   77.85
  10   1  -9  162.38   47.11
  10   1  -9  179.51   44.64
 -10  -1   9  168.53   51.17
  10   1  -8   39.21   19.48
  10   1  -8   40.94   33.69
 -10  -1   8   58.92   16.89
  10   1  -7  122.74   39.34
  10   1  -7  162.21   40.16
 -10  -1   7  108.41   38.18
  10   1  -6   73.22   34.69
  10   1  -6   73.95   29.17
 -10  -1   6  115.74   28.28
  10   1  -5  963.66   50.67
  10   1  -5  963.61   67.55
 -10  -1   5  959.15   55.84
  10   1  -4  340.75   40.40
  10   1  -4  394.88   85.11
 -10  -1   4  303.36   71.49
  10   1  -3    8.65    5.01
  10   1  -3   17.71   17.63
 -10  -1   3   15.30   18.63
  10   1  -2   49.44   30.73
 -10  -1   2   96.18   42.22
  10   1  -1  691.90   52.36
 -10  -1   1  683.36   43.38
  10   1   0 1846.48  121.59
 -10  -1   0 1595.36   94.88
  10   1   1 1091.99   71.29
 -10  -1  -1  919.59   93.40
  10   1   2  107.45   50.88
 -10  -1  -2  133.97   56.04
  10   1   3  190.82   72.36
 -10  -1  -3  112.62   56.83
  10   1   4  516.87   79.47
 -10  -1  -4  514.34   66.64
  10   1   5 1580.62  100.91
 -10  -1  -5 1681.50  107.02
  10   1   6  834.23  147.36
 -10  -1  -6  921.66   69.98
 -10  -2  16   79.38   28.42
 -10  -2  16   49.02   24.62
  10   2 -15 1940.54   53.76
 -10  -2  15 1973.35   73.37
 -10  -2  15 1748.68  112.35
  10   2 -14  415.17   51.41
 -10  -2  14  438.42   63.12
  10   2 -13   52.41   12.99
  10   2 -13   46.46   23.59
 -10  -2  13   56.70   25.53
  10   2 -12   57.66   29.97
  10   2 -12   70.53   35.62
 -10  -2  12   58.96   30.53
  10   2 -11   57.81   31.25
  10   2 -11   26.76   32.54
  10   2 -10  315.37   41.65
  10   2 -10  365.59   37.17
 -10  -2  10  358.75   44.93
  10   2  -9  677.73   74.34
  10   2  -9  774.83   81.34
 -10  -2   9  756.68   48.56
  10   2  -8  112.42   26.04
  10   2  -8  102.66   44.13
 -10  -2   8   43.00   39.78
  10   2  -7   53.10   17.01
  10   2  -7   54.49   31.77
 -10  -2   7   32.91   17.93
  10   2  -6   79.44   32.18
  10   2  -6   84.05   34.64
 -10  -2   6   90.20   32.29
  10   2  -5  460.31   66.34
  10   2  -5  442.04   81.78
 -10  -2   5  497.16   75.01
  10   2  -4  434.88   59.43
  10   2  -4  534.51   56.13
 -10  -2   4  531.69   56.61
  10   2  -3  119.69   30.73
 -10  -2   3  130.44   48.27
  10   2  -2   66.46   37.25
 -10  -2   2   42.05   38.81
  10   2  -1  360.72   34.91
 -10  -2   1  276.29   48.85
  10   2   0 1698.35  107.50
 -10  -2   0 1639.62  105.35
  10   2   1  610.35   84.52
 -10  -2  -1  673.29  104.90
  10   2   2   60.64   20.56
 -10  -2  -2   24.12   10.59
  10   2   3  208.90   65.76
 -10  -2  -3  353.03   52.07
  10   2   4  538.34   84.23
 -10  -2  -4  546.81   68.53
  10   2   5  805.45   46.65
 -10  -2  -5  802.80   98.36
  10   2   6  565.41  110.72
 -10  -3  17   94.10   42.01
  10   3 -16  123.24   66.66
 -10  -3  16  259.12   78.10
  10   3 -15 1483.29  110.19
  10   3 -15 1357.44  109.54
 -10  -3  15 1213.50  130.35
  10   3 -14  665.32   64.71
  10   3 -14  625.50   57.37
 -10  -3  14  704.72   39.32
  10   3 -13  403.13   54.78
  10   3 -13  231.19   76.36
 -10  -3  13  247.58   83.55
  10   3 -12   13.38   13.61
  10   3 -12   16.50    8.40
 -10  -3  12   18.84   14.19
  10   3 -11  403.19   33.65
  10   3 -11  495.95   56.37
 -10  -3  11  429.37   48.77
  10   3 -10  750.44   67.61
  10   3 -10  626.37   55.44
 -10  -3  10  813.19   49.63
  10   3  -9 1253.84   83.22
  10   3  -9 1236.76  102.28
 -10  -3   9 1252.57   83.42
  10   3  -8  309.98  105.83
  10   3  -8  466.58   55.78
 -10  -3   8  553.85   92.99
  10   3  -7   65.69   28.09
  10   3  -7   68.23   19.92
 -10  -3   7   66.62   42.08
  10   3  -6  810.51   73.61
  10   3  -6  801.74   97.64
 -10  -3   6  816.51   59.52
  10   3  -5  635.27   39.17
  10   3  -5  633.83   54.73
 -10  -3   5  735.28   72.02
  10   3  -4  306.31   89.19
 -10  -3   4  280.96  101.50
  10   3  -3   24.20   25.38
 -10  -3   3   59.21   33.23
  10   3  -2   14.97   16.95
 -10  -3   2   12.01   25.76
  10   3  -1  964.97   94.79
 -10  -3   1  964.02  108.68
  10   3   0  490.18   66.60
 -10  -3   0  517.11   81.50
  10   3   1  103.73   34.98
 -10  -3  -1   34.14   13.65
  10   3   2   15.75   10.37
 -10  -3  -2   21.49   18.08
  10   3   3  374.93   54.33
 -10  -3  -3  264.66   53.70
  10   3   4  380.58   55.24
 -10  -3  -4  482.01   64.52
  10   3   5  875.93  122.79
  10   4 -16   75.58   32.76
  10   4 -15 1214.84   91.41
  10   4 -15 1047.13   77.88
 -10  -4  15 1166.37   97.03
  10   4 -14  604.01   71.28
  10   4 -14  673.60   63.26
 -10  -4  14  742.85   37.16
  10   4 -13   32.09   23.33
  10   4 -13   29.25   16.42
 -10  -4  13   47.73   33.49
  10   4 -12   34.55   24.54
  10   4 -12   60.92   42.53
 -10  -4  12   80.75   27.20
  10   4 -11  452.19   56.62
  10   4 -11  500.57   57.75
 -10  -4  11  406.71   79.78
  10   4 -10 1102.15   75.14
  10   4 -10 1003.73  105.41
 -10  -4  10 1020.21   74.49
  10   4  -9  904.18   59.01
  10   4  -9  891.52   68.85
 -10  -4   9  997.55   81.91
  10   4  -8  595.99   80.03
  10   4  -8  651.20   74.49
 -10  -4   8  689.33   86.27
  10   4  -7  188.95   26.53
  10   4  -7  155.71   53.59
 -10  -4   7  121.01   65.75
  10   4  -6   69.50   22.95
  10   4  -6  122.02   42.24
 -10  -4   6  116.97   21.18
  10   4  -5   23.44   12.25
 -10  -4   5   41.83   20.43
  10   4  -4  179.29   78.01
 -10  -4   4  280.81   54.37
  10   4  -3   34.96   12.78
 -10  -4   3   24.11   34.34
  10   4  -2   57.35   22.28
 -10  -4   2   69.43   41.01
  10   4  -1  369.48   53.41
 -10  -4   1  457.58   84.02
  10   4   0  144.99   56.16
 -10  -4   0  138.54   63.43
  10   4   1   29.54   20.97
 -10  -4  -1   18.77   18.60
  10   4   2   71.07   35.50
 -10  -4  -2   84.84   47.46
 -10  -4  -3  102.47   58.22
  10   5 -16  385.56   63.48
  10   5 -15  735.78   58.65
 -10  -5  15  515.24   81.00
  10   5 -14  145.31   57.89
  10   5 -14  146.51   77.25
 -10  -5  14   85.94   49.29
  10   5 -13   10.92   13.32
  10   5 -13    5.27   20.82
 -10  -5  13   22.74   10.86
  10   5 -12  137.46   52.55
  10   5 -12  134.42   69.49
 -10  -5  12  131.02   66.00
  10   5 -11  826.83   45.41
  10   5 -11  775.95  106.76
 -10  -5  11  779.43  122.72
  10   5 -10 1987.49   98.40
  10   5 -10 2062.03  120.36
 -10  -5  10 2059.24  106.41
  10   5  -9  980.28   71.72
  10   5  -9 1002.20  109.89
 -10  -5   9 1012.57  106.64
  10   5  -8  107.08   32.81
  10   5  -8  126.97   44.11
 -10  -5   8  134.81   42.68
  10   5  -7    9.74   15.27
  10   5  -7    9.88   22.46
 -10  -5   7   28.00   14.72
  10   5  -6   44.90   18.93
  10   5  -6   39.87   32.39
 -10  -5   6   47.61   13.26
  10   5  -5  188.00   61.71
 -10  -5   5  172.33   77.87
  10   5  -4  253.39   85.08
 -10  -5   4  218.27   98.09
  10   5  -3   13.61   18.23
 -10  -5   3   33.05   18.24
  10   5  -2  -10.03   18.20
 -10  -5   2    7.85   16.49
  10   5  -1  144.53   63.32
 -10  -5   1  134.55   48.98
  10   5   0  460.11   76.87
 -10  -5   0  435.62  123.46
  10   5   1  200.17   82.98
  10   5   2    0.19   16.32
  10   6 -15  145.79   66.79
  10   6 -14   63.76   33.31
 -10  -6  14   41.23   30.65
  10   6 -13   23.78   23.15
  10   6 -13   28.40   23.85
 -10  -6  13   29.99   15.88
  10   6 -12   94.69   43.52
  10   6 -12  126.44   61.42
 -10  -6  12  150.61   45.85
  10   6 -11  435.20   72.72
  10   6 -11  460.24   85.64
 -10  -6  11  319.98   97.06
  10   6 -10 1114.10   77.55
  10   6 -10 1059.85  125.82
 -10  -6  10 1351.13   84.03
  10   6  -9  444.20   69.59
  10   6  -9  531.45   65.06
 -10  -6   9  552.11   67.76
  10   6  -8   51.12   23.14
  10   6  -8   73.42   46.04
 -10  -6   8   77.81   57.64
  10   6  -7   70.63   51.33
  10   6  -7  109.44   72.22
 -10  -6   7  195.64   74.08
  10   6  -6 1033.44  109.06
 -10  -6   6 1074.80  111.83
  10   6  -5  746.80  116.50
 -10  -6   5  728.28   91.05
  10   6  -4  473.65   74.80
 -10  -6   4  427.00   94.51
  10   6  -3  140.20   78.37
  10   6  -2   97.65   40.61
  10   6  -1  114.85   60.87
 -10  -6   1  158.39   66.41
  10   6   0  203.11  117.29
  10   7 -13   21.03   14.51
  10   7 -13   26.42   19.88
  10   7 -12   41.95   14.26
  10   7 -12   37.74   34.01
 -10  -7  12   19.23   12.86
  10   7 -11   84.64   42.80
  10   7 -11   90.90   57.74
 -10  -7  11  124.26   48.87
  10   7 -10  580.73   78.32
  10   7 -10  691.55  101.14
  10   7  -9  532.62   40.55
  10   7  -9  572.03   76.16
 -10  -7   9  516.30  120.85
  10   7  -8   33.71   16.49
 -10  -7   7   23.83   13.63
  10   7  -5  903.21  115.77
 -10  -7   5  785.77  110.09
  10   7  -4  278.30  108.69
 -10  -7   4  196.37   78.10
  10   7  -3  126.58   68.95
 -10  -7   3  132.02   82.38
  10   8 -12    1.66   11.09
  10   8 -12   41.74   19.18
  10   8 -11  456.93   82.72
  10   8 -11  654.63   75.43
  10   8 -10  679.26   69.33
  10   8 -10  687.37  120.83
  10   8  -9  141.47   77.51
  10   8  -8   12.53   15.70
  10   8  -7   53.82   35.68
  10   8  -6  171.08   85.89
  10   9 -11  295.41   67.14
  10   9 -10  327.25   35.73
  11 -14   2   47.73   29.68
 -11  13   3   15.30   17.19
 -11  13   2  113.86   79.14
  11 -13  -1 1113.57   83.09
  11 -13   0  512.34  107.30
  11 -13   1  184.85   57.60
  11 -13   2    4.27   10.58
  11 -13   3  106.59   46.50
 -11  12   5  161.67   82.97
 -11  12   4   26.99   18.01
  11 -12  -2  600.94   86.08
 -11  12   2  567.44   61.25
  11 -12  -1  542.79   56.28
 -11  12   1  348.01   82.81
  11 -12   0  707.89   56.23
  11 -12   1  493.59   50.26
  11 -12   2    9.34   16.31
  11 -12   3  334.67   60.81
 -11  11   6  143.60   52.13
  11 -11  -5  701.42   61.84
 -11  11   5  522.25   84.07
  11 -11  -4   12.34   16.28
 -11  11   4   10.72    9.53
  11 -11  -3  162.60   74.12
 -11  11   3  124.74   73.44
  11 -11  -2  326.04   52.34
 -11  11   2  288.25   65.83
  11 -11  -1  383.85   45.90
 -11  11   1  261.50   75.61
  11 -11   0  539.96   39.20
 -11  11   0  521.41   44.87
  11 -11   1  148.74   57.76
  11 -11   2   25.39   11.95
  11 -10  -7  340.33   83.55
 -11  10   7  389.80   54.45
  11 -10  -6  219.35  102.87
 -11  10   6  275.08   67.76
  11 -10  -5   22.90   43.93
 -11  10   5   52.78   28.22
  11 -10  -4   19.49   15.43
 -11  10   4   13.87   19.88
  11 -10  -3  123.79   57.50
 -11  10   3  118.02   47.18
  11 -10  -2  775.88   51.25
 -11  10   2  802.25   42.14
  11 -10  -1   85.60   59.81
 -11  10   1  140.61   52.55
  11 -10   0   57.08   25.49
 -11  10   0   80.81   27.08
  11 -10   1    0.85    6.71
  11 -10   2  281.16   54.94
  11  -9  -8    9.48   10.67
 -11   9   8    5.44   10.80
 -11   9   7  276.12   36.17
  11  -9  -6  106.12   48.93
 -11   9   6  154.44   35.20
  11  -9  -5   47.51   22.04
 -11   9   5   74.42   28.87
  11  -9  -4   25.64   19.31
 -11   9   4   13.78   14.96
 -11   9   3  228.24   57.08
  11  -9  -2  174.08   79.56
 -11   9   2  216.56   62.29
  11  -9  -1  625.55   93.95
 -11   9   1  587.46   27.51
  11  -9   0  140.93   53.59
  11  -9   1  109.75   52.36
  11  -9   1  139.08   59.67
  11  -9   2  104.56   36.78
  11  -8  -9  146.04   64.58
 -11   8   9  286.27   39.13
  11  -8  -8   24.37   16.56
 -11   8   8   27.58   23.96
  11  -8  -7  231.91   89.33
 -11   8   7  345.07   49.70
  11  -8  -6  221.58   65.52
 -11   8   6  188.49   71.84
  11  -8  -5  319.85   53.46
 -11   8   5  213.30   60.42
 -11   8   4  194.08   70.84
  11  -8  -3   70.68   35.45
 -11   8   3   44.07   28.88
  11  -8  -2  122.74   46.58
 -11   8   2  127.41   53.55
  11  -8  -1  836.94   38.89
  11  -8  -1  833.14   39.30
  11  -8   0  207.80   31.40
  11  -8   0  189.98   33.62
  11  -8   1    2.92   11.13
  11  -8   1   16.18   14.82
  11  -8   2  220.91   37.68
  11  -8   3  293.66   71.79
  11  -7 -10  564.94   85.01
 -11   7  10  681.06   72.63
  11  -7  -9  415.50   67.57
 -11   7   9  525.26   49.89
  11  -7  -8   95.22   43.49
 -11   7   8   64.12   35.64
  11  -7  -7  114.36   37.92
  11  -7  -6   76.97   33.04
 -11   7   6  107.52   34.37
  11  -7  -5   63.25   35.27
 -11   7   5   38.02   19.50
  11  -7  -4  169.52   58.99
 -11   7   4  224.00   64.86
  11  -7  -3  322.01   27.95
 -11   7   3  355.73   56.92
  11  -7  -2  452.36   67.75
  11  -7  -1  423.49   56.36
  11  -7  -1  428.02   51.37
  11  -7   0  275.64   37.54
  11  -7   0  310.07   38.58
  11  -7   1   15.52    7.39
  11  -7   2  225.83   55.32
  11  -7   3  684.24   53.50
  11  -7   4  763.72   59.34
  11  -7   6   73.33   40.75
  11  -7   7  132.53   52.17
  11  -7   8  225.09   94.18
  11  -6 -11  701.82  107.94
 -11   6  11 1092.71   85.42
  11  -6 -10  982.97   73.28
  11  -6  -9  592.80   45.03
 -11   6   9  470.20   52.61
  11  -6  -8  121.42   55.81
 -11   6   8  197.15   45.66
  11  -6  -7  244.44   84.08
 -11   6   7  266.29   68.98
  11  -6  -6  619.45   63.36
 -11   6   6  731.37   78.84
  11  -6  -5  406.27   61.79
 -11   6   5  481.81   79.03
  11  -6  -4  100.52   29.60
 -11   6   4  100.42   47.73
  11  -6  -3   11.76   11.03
  11  -6  -2   80.01   36.34
  11  -6  -2  123.26   46.67
  11  -6  -1  323.41   22.41
  11  -6  -1  325.15   79.04
  11  -6   0   91.68   30.63
  11  -6   0  108.26   47.15
 -11   6   0   95.61   31.56
  11  -6   1   -7.52   14.03
 -11   6  -1    7.25   11.58
  11  -6   2  115.74   52.83
 -11   6  -2  139.26   51.49
  11  -6   4  293.83   60.24
  11  -6   4  246.85   44.84
  11  -6   5   15.11    7.21
  11  -6   6   11.29   15.65
  11  -6   7   43.56   21.75
  11  -6   8  218.75   93.33
  11  -6   9  194.66  101.60
  11  -5 -12  478.31   42.41
  11  -5 -11 1312.74   79.99
 -11   5  11 1309.92   99.86
  11  -5 -10  407.12   44.59
  11  -5  -9  367.89   53.93
 -11   5   9  427.68  100.56
  11  -5  -8  136.44   51.75
 -11   5   8  117.98   41.88
  11  -5  -7 1456.97   95.56
 -11   5   7 1515.87   89.81
  11  -5  -6 1399.04  105.43
 -11   5   6 1516.93  102.63
  11  -5  -5 1060.11   80.19
 -11   5   5 1146.88   48.57
  11  -5  -4  479.84   80.93
  11  -5  -3  -17.40   12.89
  11  -5  -3    1.07   20.19
 -11   5   3    5.26    7.14
  11  -5  -2  114.20   45.17
  11  -5  -2  134.57   44.77
 -11   5   2  118.81   53.33
  11  -5  -1    9.24   14.58
  11  -5  -1   21.48   13.43
 -11   5   1    8.67    8.84
  11  -5   0   88.73   35.86
 -11   5   0  113.23   30.66
  11  -5   1   20.56   21.32
 -11   5  -1   29.74   24.01
  11  -5   2  325.12   45.22
 -11   5  -2  348.43   41.80
  11  -5   3  314.73   55.50
 -11   5  -3  375.13   61.31
  11  -5   4  268.26   54.60
  11  -5   5  103.23   45.33
  11  -5   5  105.07   67.60
  11  -5   6   15.08    7.48
  11  -5   7  113.85   50.28
  11  -4 -12  188.25   81.69
 -11   4  12  175.54   86.89
  11  -4 -11  680.81   58.62
 -11   4  11  622.80   41.84
  11  -4 -10  122.11   51.21
 -11   4  10  134.94   57.18
  11  -4  -9    6.95   14.18
 -11   4   9   14.39   10.88
 -11   4   8   29.03   19.98
  11  -4  -7   10.36   21.59
 -11   4   7   24.29   14.76
  11  -4  -6  532.34   83.17
 -11   4   6  643.41   48.84
 -11   4   6  629.39   86.05
  11  -4  -5  713.27   75.28
  11  -4  -5  843.16   54.16
 -11   4   5  828.73   50.85
  11  -4  -4   13.64    6.10
  11  -4  -4   19.45   20.07
 -11   4   4   11.18    7.14
  11  -4  -3   46.77   13.80
  11  -4  -3   44.13   16.10
 -11   4   3   16.88   19.29
  11  -4  -2  276.60   37.45
  11  -4  -2  420.62   65.17
 -11   4   2  317.42   50.66
  11  -4  -1   37.36   19.71
 -11   4   1   15.79   16.41
  11  -4   0   20.16   12.78
 -11   4   0   13.38   15.16
 -11   4  -1   37.22   22.23
 -11   4  -2   18.04   10.73
  11  -4   3  195.68   81.00
 -11   4  -3  158.01   56.68
  11  -4   4  554.62   81.74
 -11   4  -4  533.19   53.87
  11  -4   5   69.15   28.62
  11  -4   6   44.67   21.76
  11  -4   6   10.00   13.23
  11  -4   7  142.55   84.83
  11  -3 -13   57.93   26.14
  11  -3 -12  593.00   53.89
 -11   3  12  549.22  118.15
  11  -3 -11  852.12   76.82
 -11   3  11  825.91   71.12
  11  -3 -10  109.50   32.02
  11  -3  -9   24.36    9.31
 -11   3   9   21.31   15.11
  11  -3  -8   35.20   16.58
 -11   3   8   21.72    9.89
 -11   3   8   34.74   20.70
 -11   3   7  335.31   39.28
 -11   3   7  392.56   72.82
  11  -3  -6  538.17   49.66
  11  -3  -6  445.41   57.03
 -11   3   6  593.04   37.64
  11  -3  -5  788.66   80.19
  11  -3  -5  696.60  105.24
 -11   3   5  823.63   56.12
  11  -3  -4   21.85    7.10
  11  -3  -4    3.26   16.46
  11  -3  -3   26.53   19.87
  11  -3  -3   23.02   20.26
 -11   3   3   15.60   13.76
  11  -3  -2  711.65   35.31
  11  -3  -2  774.23   72.68
 -11   3   2  757.05   37.34
  11  -3  -1  509.42   61.03
 -11   3   1  338.49   93.25
  11  -3   0   22.66   13.29
 -11   3   0   11.84   15.57
  11  -3   1   21.02   11.54
 -11   3  -1   18.07   17.97
 -11   3  -2   23.77   23.89
  11  -3   3  244.95   46.94
 -11   3  -3  209.56   76.36
  11  -3   4  234.74   47.43
 -11   3  -4  194.03   60.69
 -11   3  -5   19.13   15.21
  11  -3   6   65.15   37.39
  11  -3   6   62.88   26.34
  11  -3   7  100.47   40.00
  11  -3   7   70.34   34.79
  11  -2 -13  209.39   96.22
 -11   2  13  260.50   80.66
  11  -2 -12  844.99   75.70
 -11   2  12  734.10   94.04
  11  -2 -11  293.06   90.11
 -11   2  11  367.24   61.13
 -11   2  11  481.19   58.55
  11  -2 -10  634.88   50.53
 -11   2  10  560.16   43.21
 -11   2  10  516.41   51.32
  11  -2  -9   16.98    9.66
 -11   2   9   -0.79   10.43
 -11   2   9   12.90   11.33
  11  -2  -8  129.32   52.17
 -11   2   8  126.63   49.41
  11  -2  -7 1211.33   72.53
  11  -2  -7 1135.32   57.52
 -11   2   7 1120.59   59.05
  11  -2  -6  906.67   87.67
  11  -2  -6 1045.60   80.58
 -11   2   6 1172.26   74.41
  11  -2  -5  368.30   49.38
  11  -2  -5  394.90   39.47
 -11   2   5  301.68   47.29
  11  -2  -4   22.09    7.69
 -11   2   4   12.79   19.96
  11  -2  -3   18.63   15.95
  11  -2  -3   36.57   13.96
 -11   2   3   49.80   25.70
  11  -2  -2  458.60   53.75
 -11   2   2  421.03   41.40
  11  -2  -1  571.86   72.67
 -11   2   1  746.87   42.77
  11  -2   0  299.97  103.55
 -11   2   0  269.41  107.68
  11  -2   1   25.26   18.31
 -11   2  -1   25.61   16.83
  11  -2   2   80.70   44.37
 -11   2  -2  118.21   33.60
  11  -2   3   93.28   45.07
 -11   2  -3  110.10   30.11
  11  -2   4  131.20   66.80
 -11   2  -4  189.69   67.66
  11  -2   5    7.41   14.65
 -11   2  -5   16.48   20.27
  11  -2   6  372.90   46.87
 -11   2  -6  394.57   64.11
  11  -2   7  274.39  104.22
  11  -1 -14   14.87   10.46
  11  -1 -13  313.90   61.66
 -11   1  13  228.40   76.41
  11  -1 -12  218.36   82.51
 -11   1  12  211.89   54.59
 -11   1  12  258.13   85.15
  11  -1 -11  344.43   32.50
 -11   1  11  244.07   69.58
 -11   1  11  385.62   61.43
  11  -1 -10  212.01   42.07
 -11   1  10  259.06   39.04
 -11   1  10  240.07   60.67
  11  -1  -9  253.19   85.62
  11  -1  -9  271.99   79.92
 -11   1   9  426.92   27.82
  11  -1  -8  747.15   62.12
  11  -1  -8  767.36   48.30
 -11   1   8  627.38   73.13
  11  -1  -7 1225.03   75.95
  11  -1  -7 1231.50  124.38
 -11   1   7 1436.73   80.96
  11  -1  -6 1185.11   75.55
  11  -1  -6 1330.77   95.32
 -11   1   6 1433.06   89.15
  11  -1  -5  275.91   41.02
  11  -1  -5  208.93   60.44
 -11   1   5  209.69   74.84
  11  -1  -4    9.43    9.32
  11  -1  -4   14.57    7.89
 -11   1   4   11.29   14.58
  11  -1  -3   91.83   27.72
 -11   1   3   75.90   22.38
  11  -1  -2  243.56   81.21
 -11   1   2  203.47   80.57
  11  -1  -1  398.08   49.29
 -11   1   1  413.28   48.01
  11  -1   0   44.96   19.75
 -11   1   0   42.22   15.88
  11  -1   1    6.68   13.77
 -11   1  -1    4.08   14.30
  11  -1   2  118.91   59.36
 -11   1  -2   92.20   40.89
  11  -1   3   23.41   33.11
 -11   1  -3   22.52   16.35
  11  -1   4   67.47   25.77
 -11   1  -4   82.40   28.92
 -11   1  -5   21.24   14.68
  11  -1   6   46.04   20.49
  11  -1   7  155.91   90.57
 -11   0  15   81.84   48.68
 -11   0  14    4.85   14.28
  11   0 -13  134.74   56.04
 -11   0  13  141.82   44.39
 -11   0  13  203.50   72.94
  11   0 -12  124.19   92.03
 -11   0  12  138.87   49.41
  11   0 -11  311.82   64.08
  11   0 -11  366.72   52.49
 -11   0  11  406.04   52.12
  11   0 -10   70.34   52.15
  11   0 -10   48.54   17.18
 -11   0  10   62.17   38.08
  11   0  -9  767.42   33.53
  11   0  -9  643.19   97.88
 -11   0   9  701.18   32.56
  11   0  -8  780.03   41.83
  11   0  -8  829.05   35.46
 -11   0   8  735.40   75.11
  11   0  -7 1054.61   67.15
  11   0  -7 1105.81  109.93
 -11   0   7  906.39   98.54
  11   0  -6  440.32   58.64
  11   0  -6  445.02  124.00
 -11   0   6  681.29   55.90
  11   0  -5   80.65   39.91
  11   0  -5   82.68   34.82
 -11   0   5   84.96   44.55
  11   0  -4   44.37   25.17
  11   0  -4   35.14   23.79
 -11   0   4   79.95   28.55
  11   0  -3  791.49   63.72
 -11   0   3  775.48   49.80
  11   0  -2  507.65   47.08
 -11   0   2  480.28   40.86
  11   0  -1  453.73   47.39
 -11   0   1  316.65   54.64
  11   0   0  108.30   57.65
 -11   0   0  164.77   63.15
  11   0   1   18.37   10.21
 -11   0  -1   21.54   15.16
 -11   0  -2  115.84   60.45
 -11   0  -3    8.42   11.25
  11   0   4   13.86   14.61
 -11   0  -4   27.63   14.48
  11   0   5   17.02   15.10
  11   0   6   17.82   13.29
 -11  -1  15   64.26   42.20
  11   1 -14   25.48   25.34
 -11  -1  14   34.27   22.25
  11   1 -13  127.21   50.32
  11   1 -13   14.15   10.66
 -11  -1  13   24.29   25.72
  11   1 -12  355.63   61.91
  11   1 -12  272.82  120.95
 -11  -1  12  415.53  101.19
  11   1 -11  110.03   52.50
  11   1 -11  157.79   58.38
 -11  -1  11  120.26   58.42
  11   1 -10   17.15   23.42
  11   1 -10   30.89   25.12
 -11  -1  10   17.38   15.41
  11   1  -9   12.56   10.06
  11   1  -9   -2.75    9.23
 -11  -1   9   15.00   11.94
  11   1  -8  236.57   53.30
  11   1  -8  292.62   84.51
 -11  -1   8  246.48   65.83
  11   1  -7  884.39   81.54
 -11  -1   7  986.14   60.90
  11   1  -6  657.65   48.96
  11   1  -6  657.64   52.67
 -11  -1   6  616.30   43.34
  11   1  -5   77.89   33.49
  11   1  -5   74.99   26.86
 -11  -1   5   94.11   44.46
  11   1  -4   41.12   18.57
 -11  -1   4   55.68   24.51
  11   1  -3  442.53   81.52
 -11  -1   3  381.38   48.13
  11   1  -2  164.65   97.39
 -11  -1   2  209.80   83.17
  11   1  -1  499.32   85.25
 -11  -1   1  565.44   63.08
  11   1   0  262.88   83.29
 -11  -1   0  329.64   46.13
  11   1   1   25.77   18.32
 -11  -1  -1   16.20   21.66
  11   1   2   12.27   29.76
 -11  -1  -2  109.07   35.57
  11   1   3   89.77   39.98
 -11  -1  -3  193.98   71.53
 -11  -2  15  149.37   72.09
 -11  -2  14   27.14   13.69
  11   2 -13   34.18   16.20
 -11  -2  13   27.82   15.08
  11   2 -12   24.40   15.06
  11   2 -12   35.32   22.81
  11   2 -11   71.92   29.49
  11   2 -11   44.60   30.93
 -11  -2  11   84.76   36.01
  11   2 -10   24.46   18.43
  11   2 -10   11.92   21.07
 -11  -2  10   -3.26   13.35
  11   2  -9   -3.12   12.52
  11   2  -9   63.07   35.66
 -11  -2   9    9.05   14.58
  11   2  -8  110.36   31.65
  11   2  -8  124.88   68.77
 -11  -2   8  111.02   48.46
  11   2  -7  472.69   56.16
  11   2  -7  528.20   75.11
 -11  -2   7  600.72   57.15
  11   2  -6  813.77   47.20
  11   2  -6  989.68   84.93
 -11  -2   6 1029.00   71.53
  11   2  -5  166.99   71.08
 -11  -2   5  153.46   40.23
  11   2  -4  176.02   57.57
 -11  -2   4  152.88   50.73
  11   2  -3   96.24   64.57
 -11  -2   3  130.36   58.67
  11   2  -2  127.85   68.85
 -11  -2   2  151.58   43.64
  11   2  -1  491.72   57.30
 -11  -2   1  768.08   50.99
  11   2   0  156.40   72.85
 -11  -2  -1   -4.98   18.92
  11   2   2  102.06   59.94
 -11  -2  -2  115.44   68.61
  11   2   3  142.29   85.57
 -11  -3  14   23.33   15.80
  11   3 -13   31.80   18.96
 -11  -3  13   16.13   10.49
  11   3 -12  133.26   73.27
  11   3 -12  174.89   80.65
 -11  -3  12  164.65   74.61
  11   3 -11   83.41   39.39
  11   3 -11   35.05   23.78
 -11  -3  11   19.24   23.23
  11   3 -10   -6.77   14.10
  11   3 -10   20.71   34.10
 -11  -3  10   15.93   13.48
  11   3  -9   40.73   20.78
  11   3  -9   38.60   34.72
 -11  -3   9   25.09   15.41
  11   3  -8  146.40   54.92
  11   3  -8  239.53   40.70
 -11  -3   8  196.74   69.49
  11   3  -7   22.78   17.92
  11   3  -7   72.31   28.24
 -11  -3   7   62.63   24.79
  11   3  -6  362.39   52.74
 -11  -3   6  314.38   87.43
  11   3  -5   73.64   34.37
 -11  -3   5   66.90   31.06
  11   3  -4  352.46   40.08
 -11  -3   4  311.86  110.73
  11   3  -3  139.09   47.06
 -11  -3   3  156.48   56.79
  11   3  -2  187.19   50.71
 -11  -3   2  102.17   59.89
  11   3  -1  657.77  109.42
 -11  -3   1  613.25   36.05
  11   3   0  153.76   61.87
 -11  -3   0  117.57   69.11
  11   3   1   31.70   11.89
 -11  -3  -1   12.32    9.24
  11   4 -13   79.75   38.73
 -11  -4  13  162.60   50.21
  11   4 -12  199.79   74.38
 -11  -4  12  189.12   73.07
  11   4 -11  139.98   70.96
  11   4 -11  186.69   75.10
 -11  -4  11  135.82   83.90
  11   4 -10   11.39   11.82
  11   4 -10   44.94   31.74
 -11  -4  10    5.41   17.47
  11   4  -9   30.42   11.52
 -11  -4   9    8.35   15.47
  11   4  -8  131.07   65.11
  11   4  -8  326.43   81.68
 -11  -4   8  274.75   71.19
  11   4  -7   76.23   37.36
 -11  -4   7  123.52   38.44
  11   4  -6    1.71   21.08
 -11  -4   6   17.53   18.47
  11   4  -5    6.58   22.92
 -11  -4   5    5.49   19.25
  11   4  -4   38.54   40.57
 -11  -4   4   72.04   31.40
  11   4  -3  486.63   60.39
 -11  -4   3  400.69   52.67
  11   4  -2  580.68   87.10
 -11  -4   2  693.35   92.96
  11   5 -12   84.55   50.20
  11   5 -11  174.20   68.36
  11   5 -11  180.60   56.83
 -11  -5  11  172.91   95.66
  11   5 -10   55.95   30.21
  11   5 -10   77.77   32.29
 -11  -5  10  105.34   38.57
  11   5  -9   27.39   18.81
  11   5  -9   56.77   28.61
 -11  -5   9   28.71   24.22
  11   5  -8  137.54   97.78
  11   5  -7   38.33   20.53
 -11  -5   7   11.33   23.11
  11   5  -6   26.71   19.05
  11   5  -5   94.05   41.72
 -11  -5   5   40.59   40.43
 -11  -5   4  421.72   76.42
  11   6 -11  141.84   60.09
  11   6 -10   39.01   18.24
 -12  11   4  176.03   49.57
 -12  11   3  351.91   83.64
  12 -11  -2  633.62  109.76
 -12  11   2  672.93   67.79
 -12  11   1  151.34   76.78
  12 -11   0   17.12   15.89
  12 -10  -5   -1.09   16.46
 -12  10   5   17.20    4.91
 -12  10   4   89.92   41.01
  12 -10  -3  220.25   41.66
  12 -10  -2  153.38   85.08
 -12  10   2  257.50   54.23
  12 -10  -1  409.08   49.62
  12 -10  -1  375.57   62.91
  12 -10   0   89.91   39.61
  12 -10   0   64.20   31.10
  12  -9  -6   -4.07   12.44
 -12   9   6    2.54    7.97
  12  -9  -5    4.51    7.74
 -12   9   5   12.62   14.85
  12  -9  -4  368.44   95.26
 -12   9   4  355.81   82.19
  12  -9  -3  349.68   50.69
 -12   9   3  285.48   74.05
  12  -9  -2   55.44   16.68
  12  -9  -1   58.69   35.92
  12  -9  -1   69.75   27.06
  12  -9   1   79.80   20.67
  12  -8  -7   37.53   36.01
  12  -8  -6    8.73    8.07
 -12   8   6   12.92   12.76
  12  -8  -5    7.59    7.21
 -12   8   5   17.23   21.35
  12  -8  -4  448.31   55.80
 -12   8   4  563.97   78.20
  12  -8  -3  669.97   31.97
  12  -8  -2  602.69   27.33
  12  -8  -2  669.68   40.92
  12  -8  -1   87.62   41.41
  12  -8  -1  134.10   59.57
  12  -8   0   26.48   15.32
  12  -8   1   70.33   29.13
  12  -8   2   38.29   31.69
  12  -7  -8  315.56   83.94
  12  -7  -7   31.00   21.49
  12  -7  -6   23.72   13.73
 -12   7   6   35.58   19.30
  12  -7  -5   53.40   26.37
 -12   7   5   34.56   24.99
  12  -7  -4  423.90   67.40
  12  -7  -3 1346.20   79.37
  12  -7  -3 1362.62  104.57
  12  -7  -2  545.74   42.72
  12  -7  -1   48.25   29.54
  12  -7   0   75.52   22.66
  12  -7   1  350.72   72.78
  12  -7   2  735.02   67.78
  12  -7   3  850.17   65.67
  12  -6  -8  114.95   36.99
 -12   6   8  109.65   37.10
  12  -6  -7   -0.68   12.69
 -12   6   7   14.89   11.24
  12  -6  -6    8.51   11.37
 -12   6   6   10.05   12.45
  12  -6  -5  360.30   30.10
  12  -6  -4  921.38   60.29
  12  -6  -4  914.59   67.83
  12  -6  -3  852.56   53.58
  12  -6  -3  847.74   97.32
  12  -6  -2  142.65   87.64
  12  -6  -1   -0.19   15.38
  12  -6   0  329.23   71.49
  12  -6   1  929.34   92.26
  12  -6   2 1293.40  107.59
  12  -6   3  401.76   67.60
  12  -5  -9   60.37   35.94
  12  -5  -8   99.86   41.53
 -12   5   8  134.07   53.66
  12  -5  -7   83.30   34.00
  12  -5  -6   21.29   13.76
  12  -5  -6   13.14   19.13
  12  -5  -5   27.82   25.64
  12  -5  -5   50.57   33.51
  12  -5  -4    9.47    9.11
  12  -5  -4    3.61   17.84
  12  -5  -3  382.81   48.84
  12  -5  -3  414.78   83.09
  12  -5  -2    9.88   14.15
  12  -5  -1  105.66   43.51
  12  -5   0  357.34   62.96
  12  -5   1  805.98   34.99
 -12   5  -1  910.28   63.07
  12  -5   2  989.34   80.69
 -12   5  -2  989.26   74.04
  12  -5   3  229.07   40.10
 -12   5  -3  312.67   26.21
  12  -5   4   20.56   18.64
  12  -5   5  118.47   52.58
  12  -5   6   82.45   49.18
  12  -4 -10   26.25   14.44
  12  -4  -9   74.69   38.42
 -12   4   9   35.46   24.76
  12  -4  -8  112.13   63.79
  12  -4  -7   12.30   12.56
  12  -4  -7   -5.01   14.71
  12  -4  -6   17.12   18.86
  12  -4  -5   44.51   15.43
  12  -4  -5   35.27   18.55
  12  -4  -4  211.47   33.87
  12  -4  -4  104.28   41.62
  12  -4  -3  323.13   35.86
 -12   4   3  226.24   58.40
  12  -4  -2   80.52   33.13
 -12   4   2   39.19   22.24
 -12   4   1    7.33    6.78
  12  -4   0  135.19   46.21
 -12   4   0  134.83   53.35
  12  -4   1  642.90   32.90
 -12   4  -1  595.34   30.77
  12  -4   2  198.27  113.85
 -12   4  -2  506.82   59.05
  12  -4   3  216.99   48.21
  12  -4   4  263.18   73.07
  12  -4   5  173.18  126.85
  12  -3 -11   46.66   19.45
  12  -3 -10   74.55   45.55
  12  -3  -9   14.08   16.18
  12  -3  -8   32.15   22.43
  12  -3  -7   21.23   24.70
  12  -3  -7   22.39   19.17
  12  -3  -6   -0.61    9.97
  12  -3  -6   42.78   24.97
  12  -3  -5  103.36   52.26
  12  -3  -5  165.21   85.91
 -12   3   5   78.08   61.44
  12  -3  -4  417.25   91.32
 -12   3   4  273.73   61.81
  12  -3  -3  183.65   67.77
 -12   3   3  150.78   71.87
 -12   3   2   28.79   21.75
  12  -3  -1   53.08   20.07
  12  -3   0   82.11   45.32
  12  -3   1  371.26   52.66
 -12   3  -1  254.57   82.76
  12  -3   2  136.00   68.32
 -12   3  -2  157.33   74.92
 -12   3  -3   35.92   22.83
 -12   3  -4   54.31   23.52
  12  -3   5   58.00   36.82
  12  -2 -11    7.65    8.39
  12  -2  -9  104.35   52.14
  12  -2  -9  104.52   38.86
  12  -2  -8  367.83   48.67
  12  -2  -8  217.43   67.26
  12  -2  -7  178.52   69.69
  12  -2  -7  324.12   46.47
 -12   2   7  370.94   59.46
  12  -2  -6   64.30   26.46
  12  -2  -6   26.54   13.99
 -12   2   6   59.05   31.82
  12  -2  -5   41.35   21.78
  12  -2  -5   41.20   11.96
 -12   2   5    8.81   16.50
 -12   2   4  147.56   70.82
  12  -2  -3  114.87   40.05
 -12   2   3  103.42   43.05
  12  -2  -2  115.67   55.74
  12  -2  -1   16.18   12.92
  12  -2   0   74.47   41.73
  12  -2   1  383.66   90.92
 -12   2  -1  329.61   67.57
  12  -2   2  155.29   84.21
 -12   2  -2  198.43   88.18
  12  -2   3   14.60   17.60
 -12   2  -3   22.95   16.88
  12  -1 -11    1.08    8.14
  12  -1 -10   36.81   26.54
 -12   1  10   66.56   32.22
  12  -1  -9  503.71   50.80
  12  -1  -9  442.75   65.18
 -12   1   9  295.32  104.77
  12  -1  -8 1077.36   66.08
  12  -1  -8  944.83  122.12
 -12   1   8 1091.69   73.52
  12  -1  -7  301.03   60.59
  12  -1  -7  499.62   89.46
 -12   1   7  389.86   64.26
  12  -1  -6   35.73   26.80
 -12   1   6   10.87   13.97
  12  -1  -5   25.58    9.20
 -12   1   5   10.18   30.42
  12  -1  -4  242.48   86.83
 -12   1   4  282.59   52.12
  12  -1  -3   58.01   34.43
  12  -1  -2   84.37   45.99
 -12   1   2   94.59   35.23
  12  -1  -1   61.18   28.07
 -12   1   1   44.17   31.23
  12  -1   0  133.88  107.26
 -12   1   0  337.86  105.77
 -12   1  -1  460.36   90.08
  12  -1   2  226.75  110.85
 -12   1  -2  273.62  115.17
  12  -1   3  135.59   76.81
 -12   0  10  364.93   49.32
  12   0  -9  854.18   63.74
  12   0  -9  554.37   99.03
 -12   0   9  721.00   79.69
  12   0  -8   54.26   28.25
  12   0  -8   76.33   35.83
 -12   0   8   60.46   27.97
  12   0  -7  466.28   69.07
  12   0  -7  582.27   83.83
 -12   0   7  742.19   47.75
  12   0  -6   58.35   25.47
  12   0  -5   86.92   28.58
 -12   0   5   56.42   34.82
  12   0  -4  378.65   56.84
 -12   0   4  327.72   83.00
  12   0  -3   51.82   37.34
 -12   0   3  110.98   39.54
  12   0  -2   15.31   11.89
 -12   0   2   28.11   23.52
  12   0  -1   23.13   12.29
 -12   0   1    9.26   18.51
  12   0   0  359.84   58.33
 -12   0   0  334.60   50.68
 -12   0  -1  764.17   68.75
 -12  -1  13   21.33   32.63
  12   1 -11   11.57   16.25
 -12  -1  11    6.82    9.09
  12   1 -10   90.44   33.80
 -12  -1  10   55.99   27.02
  12   1  -9   98.05   41.98
 -12  -1   9  141.47   39.38
  12   1  -8   22.74   25.68
  12   1  -8   22.03   21.96
 -12  -1   8   27.95   12.33
  12   1  -7   90.18   47.04
 -12  -1   7   69.56   39.81
  12   1  -6   33.67   15.35
  12   1  -5   16.46   16.75
 -12  -1   5   33.59   23.12
  12   1  -4  298.03  118.10
 -12  -1   4  205.91  100.19
  12   1  -3   51.47   28.86
  12   1  -2   23.26   20.40
 -12  -1   2   24.97   19.24
 -12  -1   1   60.85   29.40
 -12  -2  11   23.84   12.41
  12   2 -10    8.97   14.79
 -12  -2  10   25.89   21.49
  12   2  -9  581.63   85.74
 -12  -2   9  800.86   60.40
 -12  -2   8  389.22   93.24
 -12  -2   7  108.59   62.81
 -12  -2   5   81.63   37.05
 -12  -2   4  419.02   60.89
 -12  -2   3   96.31   41.51
  12   3 -11   36.83   21.56
  12   3 -10   50.45   44.71
 -12  -3   8  719.59   89.60
 -12  -3   7  155.42   85.58
  13  -8  -1   59.05   37.29
  13  -7  -2   17.37   18.96
  13  -7  -1  433.01   62.28
  13  -7   0  105.56   69.36
  13  -6  -6  235.72   82.77
  13  -6  -5  528.78   59.40
  13  -6  -2   -5.38   14.02
  13  -6   0  204.70   44.32
  13  -6   1  115.68   62.83
  13  -5  -6  552.35   57.36
  13  -5  -1   26.33    8.86
  13  -5   0   25.06   17.98
  13  -4  -8   12.07    7.79
  13  -4  -7   11.13   14.78
  13  -3  -7   60.44   24.97
 -13   3   2  138.83   81.69
 -13   2   4   16.46    9.76
 -13   2   3    3.87   12.51
 -13   2   2    9.90   13.22
 -13   2   1  603.27   63.54
 -13   1   5  126.55   87.93
 -13   1   4   37.19   33.74
 -13   0   7  479.64   65.48
 -13   0   6  175.76   99.66
;
_shelx_hkl_checksum              82346
loop_
_space_group_symop_operation_xyz
'x, y, z'
'-x, -y, -z'
loop_
_atom_site_label
_atom_site_type_symbol
_atom_site_fract_x
_atom_site_fract_y
_atom_site_fract_z
_atom_site_U_iso_or_equiv
_atom_site_adp_type
_atom_site_occupancy
_atom_site_site_symmetry_order
_atom_site_calc_flag
_atom_site_refinement_flags_posn
_atom_site_refinement_flags_adp
_atom_site_refinement_flags_occupancy
_atom_site_disorder_assembly
_atom_site_disorder_group
Pd1 Pd 0.30188(2) 0.99135(2) 0.39712(2) 0.01268(5) Uani 1 1 d . . . . .
S1 S 0.30756(6) 1.06106(4) 0.54416(4) 0.01348(11) Uani 1 1 d . . . . .
N1 N 0.3021(2) 0.84407(14) 0.42304(13) 0.0132(4) Uani 1 1 d . . . . .
N2 N 0.3285(2) 0.92339(14) 0.26861(13) 0.0146(4) Uani 1 1 d . . . . .
C1 C 0.1929(3) 1.14727(18) 0.56241(15) 0.0156(4) Uani 1 1 d . . . . .
C2 C 0.0918(3) 1.11657(18) 0.61136(15) 0.0169(5) Uani 1 1 d . . . . .
H2 H 0.0251 1.1575 0.6339 0.020 Uiso 1 1 calc R U . . .
C3 C 0.0968(3) 1.01795(18) 0.62486(15) 0.0153(4) Uani 1 1 d . . . . .
H3 H 0.0345 0.9867 0.6580 0.018 Uiso 1 1 calc R U . . .
C4 C 0.2007(3) 0.97139(18) 0.58527(15) 0.0144(4) Uani 1 1 d . . . . .
C5 C 0.2309(3) 0.86965(18) 0.57458(15) 0.0150(4) Uani 1 1 d . . . . .
C6 C 0.2889(3) 0.81832(17) 0.50239(15) 0.0143(4) Uani 1 1 d . . . . .
C7 C 0.3368(3) 0.72080(18) 0.49670(16) 0.0168(5) Uani 1 1 d . . . . .
H7 H 0.3411 0.6868 0.5421 0.020 Uiso 1 1 calc R U . . .
C8 C 0.3741(3) 0.68755(18) 0.41546(16) 0.0164(4) Uani 1 1 d . . . . .
H8 H 0.4102 0.6260 0.3930 0.020 Uiso 1 1 calc R U . . .
C9 C 0.3491(3) 0.76273(17) 0.36836(16) 0.0147(4) Uani 1 1 d . . . . .
C10 C 0.3679(3) 0.75018(18) 0.27949(16) 0.0161(4) Uani 1 1 d . . . . .
C11 C 0.3452(3) 0.82200(18) 0.23289(16) 0.0166(5) Uani 1 1 d . . . . .
C12 C 0.3315(3) 0.79659(19) 0.13460(16) 0.0199(5) Uani 1 1 d . . . . .
H12 H 0.3404 0.7318 0.0930 0.024 Uiso 1 1 calc R U . . .
C13 C 0.3040(3) 0.88176(18) 0.11287(16) 0.0181(5) Uani 1 1 d . . . . .
H13 H 0.2858 0.8870 0.0528 0.022 Uiso 1 1 calc R U . . .
C14 C 0.3073(3) 0.96375(18) 0.19828(15) 0.0150(4) Uani 1 1 d . . . . .
C15 C 0.3013(3) 1.06784(18) 0.20933(16) 0.0150(4) Uani 1 1 d . . . . .
C16 C 0.3177(3) 1.15278(17) 0.29632(15) 0.0142(4) Uani 1 1 d . . . . .
C17 C 0.2934(2) 1.13874(17) 0.37968(15) 0.0138(4) Uani 1 1 d . . . . .
C18 C 0.2805(3) 1.23525(17) 0.44974(16) 0.0149(4) Uani 1 1 d . . . . .
C19 C 0.2266(3) 1.23914(18) 0.53260(16) 0.0152(4) Uani 1 1 d . . . . .
C20 C 0.2089(3) 1.33437(19) 0.59174(17) 0.0201(5) Uani 1 1 d . . . . .
H20 H 0.1690 1.3318 0.6435 0.024 Uiso 1 1 calc R U . . .
C21 C 0.2477(3) 1.43207(19) 0.57731(17) 0.0216(5) Uani 1 1 d . . . . .
H21 H 0.2377 1.4963 0.6191 0.026 Uiso 1 1 calc R U . . .
C22 C 0.3009(3) 1.43316(19) 0.50092(17) 0.0203(5) Uani 1 1 d . . . . .
H22 H 0.3290 1.4997 0.4903 0.024 Uiso 1 1 calc R U . . .
C23 C 0.3154(3) 1.33886(18) 0.43755(16) 0.0169(5) Uani 1 1 d . . . . .
C24 C 0.3654(3) 1.34841(19) 0.35924(17) 0.0194(5) Uani 1 1 d . . . . .
H24 H 0.4014 1.4178 0.3550 0.023 Uiso 1 1 calc R U . . .
C25 C 0.3622(3) 1.25913(19) 0.29047(16) 0.0184(5) Uani 1 1 d . . . . .
H25 H 0.3901 1.2665 0.2364 0.022 Uiso 1 1 calc R U . . .
C26 C 0.1914(3) 0.81681(18) 0.64181(16) 0.0155(4) Uani 1 1 d . . . . .
C27 C 0.0960(3) 0.71084(19) 0.61088(17) 0.0193(5) Uani 1 1 d . . . . .
H27 H 0.0568 0.6720 0.5463 0.023 Uiso 1 1 calc R U . . .
C28 C 0.0585(3) 0.66227(19) 0.67416(17) 0.0206(5) Uani 1 1 d . . . . .
H28 H -0.0062 0.5903 0.6523 0.025 Uiso 1 1 calc R U . . .
C29 C 0.1141(3) 0.7174(2) 0.76910(17) 0.0191(5) Uani 1 1 d . . . . .
C30 C 0.2079(3) 0.8229(2) 0.79935(17) 0.0203(5) Uani 1 1 d . . . . .
H30 H 0.2466 0.8618 0.8639 0.024 Uiso 1 1 calc R U . . .
C31 C 0.2460(3) 0.87235(19) 0.73660(16) 0.0188(5) Uani 1 1 d . . . . .
H31 H 0.3098 0.9446 0.7587 0.023 Uiso 1 1 calc R U . . .
C32 C 0.0690(3) 0.6639(2) 0.83673(19) 0.0268(6) Uani 1 1 d . . . . .
H32A H -0.0379 0.6619 0.8382 0.032 Uiso 1 1 calc R U . . .
H32B H 0.1370 0.7051 0.8987 0.032 Uiso 1 1 calc R U . . .
H32C H 0.0788 0.5899 0.8172 0.032 Uiso 1 1 calc R U . . .
C33 C 0.4135(3) 0.65330(18) 0.22876(16) 0.0181(5) Uani 1 1 d . . . . .
C34 C 0.3227(3) 0.5478(2) 0.20590(18) 0.0245(5) Uani 1 1 d . . . . .
H34 H 0.2287 0.5359 0.2240 0.029 Uiso 1 1 calc R U . . .
C35 C 0.3675(3) 0.4599(2) 0.15703(19) 0.0267(6) Uani 1 1 d . . . . .
H35 H 0.3036 0.3888 0.1423 0.032 Uiso 1 1 calc R U . . .
C36 C 0.5036(3) 0.4740(2) 0.12937(18) 0.0246(5) Uani 1 1 d . . . . .
C37 C 0.5956(3) 0.5786(2) 0.15334(19) 0.0269(6) Uani 1 1 d . . . . .
H37 H 0.6904 0.5903 0.1361 0.032 Uiso 1 1 calc R U . . .
C38 C 0.5511(3) 0.6669(2) 0.20232(18) 0.0226(5) Uani 1 1 d . . . . .
H38 H 0.6162 0.7379 0.2179 0.027 Uiso 1 1 calc R U . . .
C39 C 0.5498(4) 0.3776(2) 0.0755(2) 0.0363(7) Uani 1 1 d . . . . .
H39A H 0.4683 0.3350 0.0189 0.044 Uiso 1 1 calc R U . . .
H39B H 0.5653 0.3326 0.1135 0.044 Uiso 1 1 calc R U . . .
H39C H 0.6459 0.4026 0.0591 0.044 Uiso 1 1 calc R U . . .
C40 C 0.2688(3) 1.09373(18) 0.12233(16) 0.0168(5) Uani 1 1 d . . . . .
C41 C 0.1340(3) 1.12387(19) 0.09954(16) 0.0184(5) Uani 1 1 d . . . . .
H41 H 0.0699 1.1328 0.1413 0.022 Uiso 1 1 calc R U . . .
C42 C 0.0937(3) 1.14077(19) 0.01631(17) 0.0211(5) Uani 1 1 d . . . . .
H42 H 0.0018 1.1611 0.0018 0.025 Uiso 1 1 calc R U . . .
C43 C 0.1849(3) 1.1285(2) -0.04649(17) 0.0218(5) Uani 1 1 d . . . . .
C44 C 0.3209(3) 1.10186(19) -0.02223(17) 0.0218(5) Uani 1 1 d . . . . .
H44 H 0.3863 1.0948 -0.0633 0.026 Uiso 1 1 calc R U . . .
C45 C 0.3626(3) 1.08531(19) 0.06118(17) 0.0191(5) Uani 1 1 d . . . . .
H45 H 0.4567 1.0680 0.0766 0.023 Uiso 1 1 calc R U . . .
C46 C 0.1362(4) 1.1445(3) -0.13761(19) 0.0350(7) Uani 1 1 d . . . . .
H46A H 0.2088 1.1272 -0.1751 0.042 Uiso 1 1 calc R U . . .
H46B H 0.1354 1.2200 -0.1262 0.042 Uiso 1 1 calc R U . . .
H46C H 0.0326 1.0968 -0.1708 0.042 Uiso 1 1 calc R U . . .
O1 O -0.0099(5) 0.6138(6) 0.1376(8) 0.094(3) Uani 0.551(9) 1 d D U P A -1
H1 H -0.0422 0.5715 0.1647 0.113 Uiso 0.551(9) 1 calc R U P A -1
C47 C -0.0407(14) 0.5626(7) 0.0519(11) 0.089(4) Uani 0.551(9) 1 d D U P A -1
H47A H 0.0104 0.5046 0.0410 0.107 Uiso 0.551(9) 1 calc R U P A -1
H47B H -0.0041 0.6121 0.0203 0.107 Uiso 0.551(9) 1 calc R U P A -1
H47C H -0.1524 0.5313 0.0278 0.107 Uiso 0.551(9) 1 calc R U P A -1
O1A O -0.0184(8) 0.6034(4) 0.0541(5) 0.042(2) Uani 0.449(9) 1 d D U P A -2
H1A H 0.0036 0.6136 0.1111 0.064 Uiso 0.449(9) 1 calc R U P A -2
C47A C 0.0477(15) 0.5186(11) 0.0056(10) 0.092(4) Uani 0.449(9) 1 d D U P A -2
H47D H 0.0858 0.5375 -0.0440 0.138 Uiso 0.449(9) 1 calc R U P A -2
H47E H -0.0319 0.4492 -0.0210 0.138 Uiso 0.449(9) 1 calc R U P A -2
H47F H 0.1331 0.5130 0.0496 0.138 Uiso 0.449(9) 1 calc R U P A -2
loop_
_atom_site_aniso_label
_atom_site_aniso_U_11
_atom_site_aniso_U_22
_atom_site_aniso_U_33
_atom_site_aniso_U_23
_atom_site_aniso_U_13
_atom_site_aniso_U_12
Pd1 0.01408(9) 0.01013(8) 0.01419(9) 0.00371(6) 0.00457(6) 0.00399(6)
S1 0.0145(3) 0.0110(2) 0.0150(3) 0.0038(2) 0.0045(2) 0.0041(2)
N1 0.0138(9) 0.0102(8) 0.0165(9) 0.0050(7) 0.0044(7) 0.0042(7)
N2 0.0197(10) 0.0105(8) 0.0153(9) 0.0034(7) 0.0093(8) 0.0051(7)
C1 0.0167(11) 0.0134(10) 0.0143(10) 0.0017(8) 0.0017(9) 0.0058(9)
C2 0.0182(11) 0.0162(11) 0.0156(11) 0.0026(9) 0.0049(9) 0.0069(9)
C3 0.0158(11) 0.0161(11) 0.0123(10) 0.0031(8) 0.0029(9) 0.0039(9)
C4 0.0150(11) 0.0149(10) 0.0131(10) 0.0052(8) 0.0029(8) 0.0037(8)
C5 0.0154(11) 0.0144(10) 0.0149(10) 0.0052(8) 0.0034(9) 0.0036(8)
C6 0.0141(11) 0.0125(10) 0.0147(10) 0.0043(8) 0.0015(8) 0.0025(8)
C7 0.0189(12) 0.0147(11) 0.0193(11) 0.0083(9) 0.0033(9) 0.0075(9)
C8 0.0165(11) 0.0130(10) 0.0191(11) 0.0051(9) 0.0025(9) 0.0050(9)
C9 0.0147(11) 0.0095(10) 0.0189(11) 0.0035(8) 0.0045(9) 0.0032(8)
C10 0.0165(11) 0.0114(10) 0.0194(11) 0.0031(9) 0.0051(9) 0.0046(8)
C11 0.0196(12) 0.0130(10) 0.0174(11) 0.0036(9) 0.0078(9) 0.0050(9)
C12 0.0252(13) 0.0165(11) 0.0184(11) 0.0042(9) 0.0082(10) 0.0067(10)
C13 0.0217(12) 0.0167(11) 0.0143(11) 0.0029(9) 0.0047(9) 0.0054(9)
C14 0.0149(11) 0.0145(10) 0.0159(11) 0.0051(9) 0.0059(9) 0.0034(8)
C15 0.0141(11) 0.0147(10) 0.0173(11) 0.0065(9) 0.0056(9) 0.0037(8)
C16 0.0139(11) 0.0116(10) 0.0167(11) 0.0049(8) 0.0024(9) 0.0037(8)
C17 0.0121(10) 0.0108(10) 0.0173(11) 0.0050(8) 0.0014(8) 0.0024(8)
C18 0.0129(11) 0.0119(10) 0.0180(11) 0.0041(9) 0.0010(9) 0.0035(8)
C19 0.0137(11) 0.0124(10) 0.0167(11) 0.0025(8) 0.0006(9) 0.0044(8)
C20 0.0218(12) 0.0156(11) 0.0216(12) 0.0030(9) 0.0057(10) 0.0074(9)
C21 0.0259(13) 0.0132(11) 0.0235(12) 0.0013(9) 0.0050(10) 0.0091(10)
C22 0.0238(13) 0.0125(11) 0.0238(12) 0.0061(9) 0.0034(10) 0.0058(9)
C23 0.0168(11) 0.0126(10) 0.0185(11) 0.0037(9) -0.0001(9) 0.0045(9)
C24 0.0220(12) 0.0127(10) 0.0227(12) 0.0076(9) 0.0021(10) 0.0037(9)
C25 0.0205(12) 0.0162(11) 0.0188(11) 0.0085(9) 0.0032(9) 0.0037(9)
C26 0.0157(11) 0.0169(11) 0.0178(11) 0.0088(9) 0.0063(9) 0.0071(9)
C27 0.0202(12) 0.0184(11) 0.0181(11) 0.0060(9) 0.0029(9) 0.0050(9)
C28 0.0209(12) 0.0162(11) 0.0255(13) 0.0092(10) 0.0057(10) 0.0043(9)
C29 0.0179(12) 0.0233(12) 0.0233(12) 0.0125(10) 0.0096(10) 0.0103(10)
C30 0.0206(12) 0.0234(12) 0.0167(11) 0.0070(10) 0.0048(9) 0.0054(10)
C31 0.0201(12) 0.0170(11) 0.0189(11) 0.0060(9) 0.0056(9) 0.0040(9)
C32 0.0306(14) 0.0273(13) 0.0308(14) 0.0168(11) 0.0146(12) 0.0095(11)
C33 0.0237(12) 0.0138(11) 0.0177(11) 0.0039(9) 0.0070(9) 0.0081(9)
C34 0.0267(14) 0.0165(12) 0.0306(14) 0.0058(10) 0.0128(11) 0.0054(10)
C35 0.0321(15) 0.0134(11) 0.0316(14) 0.0035(10) 0.0095(12) 0.0053(10)
C36 0.0340(15) 0.0190(12) 0.0214(12) 0.0033(10) 0.0061(11) 0.0143(11)
C37 0.0267(14) 0.0237(13) 0.0316(14) 0.0058(11) 0.0132(12) 0.0107(11)
C38 0.0252(13) 0.0159(11) 0.0264(13) 0.0047(10) 0.0101(11) 0.0057(10)
C39 0.0412(17) 0.0232(14) 0.0409(17) -0.0005(12) 0.0121(14) 0.0171(13)
C40 0.0191(12) 0.0128(10) 0.0173(11) 0.0041(9) 0.0047(9) 0.0035(9)
C41 0.0195(12) 0.0176(11) 0.0188(11) 0.0063(9) 0.0061(9) 0.0050(9)
C42 0.0195(12) 0.0199(12) 0.0246(12) 0.0093(10) 0.0030(10) 0.0065(10)
C43 0.0277(13) 0.0186(11) 0.0175(11) 0.0076(9) 0.0032(10) 0.0031(10)
C44 0.0275(13) 0.0197(12) 0.0197(12) 0.0072(10) 0.0109(10) 0.0048(10)
C45 0.0180(12) 0.0177(11) 0.0235(12) 0.0077(9) 0.0080(10) 0.0056(9)
C46 0.0421(17) 0.0435(17) 0.0223(14) 0.0168(13) 0.0067(13) 0.0115(14)
O1 0.012(2) 0.078(4) 0.234(9) 0.121(5) 0.015(4) 0.013(2)
C47 0.041(5) 0.037(6) 0.198(10) 0.065(6) 0.002(6) 0.014(5)
O1A 0.036(3) 0.012(3) 0.065(4) 0.001(3) 0.002(3) 0.004(3)
C47A 0.119(10) 0.102(8) 0.051(5) 0.055(5) -0.009(7) 0.008(7)
loop_
_atom_type_symbol
_atom_type_description
_atom_type_scat_dispersion_real
_atom_type_scat_dispersion_imag
_atom_type_scat_source
C C 0.0033 0.0016 'International Tables Vol C Tables 4.2.6.8 and 6.1.1.4'
H H 0.0000 0.0000 'International Tables Vol C Tables 4.2.6.8 and 6.1.1.4'
N N 0.0061 0.0033 'International Tables Vol C Tables 4.2.6.8 and 6.1.1.4'
Pd Pd -0.9988 1.0072 'International Tables Vol C Tables 4.2.6.8 and 6.1.1.4'
S S 0.1246 0.1234 'International Tables Vol C Tables 4.2.6.8 and 6.1.1.4'
O O 0.0106 0.0060 'International Tables Vol C Tables 4.2.6.8 and 6.1.1.4'
loop_
_geom_angle_atom_site_label_1
_geom_angle_atom_site_label_2
_geom_angle_atom_site_label_3
_geom_angle
N2 Pd1 C17 94.25(8)
N2 Pd1 N1 89.74(7)
C17 Pd1 N1 175.74(8)
N2 Pd1 S1 171.12(6)
C17 Pd1 S1 90.16(7)
N1 Pd1 S1 86.10(5)
C1 S1 C4 93.28(11)
C1 S1 Pd1 112.31(8)
C4 S1 Pd1 113.54(8)
C9 N1 C6 105.81(18)
C9 N1 Pd1 123.17(15)
C6 N1 Pd1 129.79(14)
C14 N2 C11 108.01(19)
C14 N2 Pd1 125.32(15)
C11 N2 Pd1 125.86(15)
C2 C1 C19 132.6(2)
C2 C1 S1 109.92(17)
C19 C1 S1 117.22(17)
C1 C2 C3 113.3(2)
C1 C2 H2 123.3
C3 C2 H2 123.3
C4 C3 C2 113.6(2)
C4 C3 H3 123.2
C2 C3 H3 123.2
C3 C4 C5 131.9(2)
C3 C4 S1 108.85(17)
C5 C4 S1 119.29(17)
C6 C5 C4 122.2(2)
C6 C5 C26 120.5(2)
C4 C5 C26 117.2(2)
C5 C6 N1 128.1(2)
C5 C6 C7 122.6(2)
N1 C6 C7 109.12(19)
C8 C7 C6 107.4(2)
C8 C7 H7 126.3
C6 C7 H7 126.3
C7 C8 C9 107.5(2)
C7 C8 H8 126.3
C9 C8 H8 126.3
N1 C9 C10 126.4(2)
N1 C9 C8 110.1(2)
C10 C9 C8 123.4(2)
C9 C10 C11 124.4(2)
C9 C10 C33 118.8(2)
C11 C10 C33 116.8(2)
N2 C11 C10 127.8(2)
N2 C11 C12 108.6(2)
C10 C11 C12 123.5(2)
C13 C12 C11 107.4(2)
C13 C12 H12 126.3
C11 C12 H12 126.3
C12 C13 C14 107.2(2)
C12 C13 H13 126.4
C14 C13 H13 126.4
N2 C14 C15 124.8(2)
N2 C14 C13 108.69(19)
C15 C14 C13 126.4(2)
C14 C15 C16 126.4(2)
C14 C15 C40 116.1(2)
C16 C15 C40 117.52(19)
C17 C16 C25 121.0(2)
C17 C16 C15 126.7(2)
C25 C16 C15 112.3(2)
C16 C17 C18 115.23(19)
C16 C17 Pd1 118.04(16)
C18 C17 Pd1 126.41(16)
C23 C18 C19 112.76(19)
C23 C18 C17 120.3(2)
C19 C18 C17 126.8(2)
C20 C19 C1 114.7(2)
C20 C19 C18 122.2(2)
C1 C19 C18 123.0(2)
C21 C20 C19 122.2(2)
C21 C20 H20 118.9
C19 C20 H20 118.9
C22 C21 C20 117.9(2)
C22 C21 H21 121.1
C20 C21 H21 121.1
C21 C22 C23 122.1(2)
C21 C22 H22 119.0
C23 C22 H22 119.0
C22 C23 C24 117.3(2)
C22 C23 C18 122.8(2)
C24 C23 C18 119.9(2)
C25 C24 C23 119.9(2)
C25 C24 H24 120.0
C23 C24 H24 120.0
C24 C25 C16 122.0(2)
C24 C25 H25 119.0
C16 C25 H25 119.0
C31 C26 C27 118.7(2)
C31 C26 C5 120.6(2)
C27 C26 C5 120.6(2)
C28 C27 C26 120.3(2)
C28 C27 H27 119.9
C26 C27 H27 119.9
C27 C28 C29 121.1(2)
C27 C28 H28 119.5
C29 C28 H28 119.5
C30 C29 C28 118.4(2)
C30 C29 C32 121.5(2)
C28 C29 C32 120.2(2)
C29 C30 C31 121.1(2)
C29 C30 H30 119.5
C31 C30 H30 119.5
C26 C31 C30 120.5(2)
C26 C31 H31 119.8
C30 C31 H31 119.8
C29 C32 H32A 109.5
C29 C32 H32B 109.5
H32A C32 H32B 109.5
C29 C32 H32C 109.5
H32A C32 H32C 109.5
H32B C32 H32C 109.5
C38 C33 C34 117.6(2)
C38 C33 C10 119.7(2)
C34 C33 C10 122.7(2)
C35 C34 C33 121.0(2)
C35 C34 H34 119.5
C33 C34 H34 119.5
C36 C35 C34 121.2(2)
C36 C35 H35 119.4
C34 C35 H35 119.4
C35 C36 C37 118.0(2)
C35 C36 C39 120.5(2)
C37 C36 C39 121.5(3)
C36 C37 C38 121.0(2)
C36 C37 H37 119.5
C38 C37 H37 119.5
C33 C38 C37 121.2(2)
C33 C38 H38 119.4
C37 C38 H38 119.4
C36 C39 H39A 109.5
C36 C39 H39B 109.5
H39A C39 H39B 109.5
C36 C39 H39C 109.5
H39A C39 H39C 109.5
H39B C39 H39C 109.5
C45 C40 C41 118.3(2)
C45 C40 C15 123.2(2)
C41 C40 C15 118.5(2)
C42 C41 C40 120.3(2)
C42 C41 H41 119.8
C40 C41 H41 119.8
C41 C42 C43 121.4(2)
C41 C42 H42 119.3
C43 C42 H42 119.3
C44 C43 C42 118.0(2)
C44 C43 C46 121.7(2)
C42 C43 C46 120.3(2)
C45 C44 C43 121.0(2)
C45 C44 H44 119.5
C43 C44 H44 119.5
C40 C45 C44 121.0(2)
C40 C45 H45 119.5
C44 C45 H45 119.5
C43 C46 H46A 109.5
C43 C46 H46B 109.5
H46A C46 H46B 109.5
C43 C46 H46C 109.5
H46A C46 H46C 109.5
H46B C46 H46C 109.5
C47 O1 H1 109.5
O1 C47 H47A 109.5
O1 C47 H47B 109.5
H47A C47 H47B 109.5
O1 C47 H47C 109.5
H47A C47 H47C 109.5
H47B C47 H47C 109.5
C47A O1A H1A 109.5
O1A C47A H47D 109.5
O1A C47A H47E 109.5
H47D C47A H47E 109.5
O1A C47A H47F 109.5
H47D C47A H47F 109.5
H47E C47A H47F 109.5
loop_
_geom_bond_atom_site_label_1
_geom_bond_atom_site_label_2
_geom_bond_distance
Pd1 N2 2.0252(19)
Pd1 C17 2.097(2)
Pd1 N1 2.1391(19)
Pd1 S1 2.1951(9)
S1 C1 1.718(2)
S1 C4 1.736(2)
N1 C9 1.373(3)
N1 C6 1.400(3)
N2 C14 1.365(3)
N2 C11 1.366(3)
C1 C2 1.375(3)
C1 C19 1.440(3)
C2 C3 1.414(3)
C2 H2 0.9500
C3 C4 1.382(3)
C3 H3 0.9500
C4 C5 1.422(3)
C5 C6 1.389(3)
C5 C26 1.486(3)
C6 C7 1.453(3)
C7 C8 1.343(3)
C7 H7 0.9500
C8 C9 1.449(3)
C8 H8 0.9500
C9 C10 1.393(3)
C10 C11 1.399(3)
C10 C33 1.495(3)
C11 C12 1.447(3)
C12 C13 1.348(3)
C12 H12 0.9500
C13 C14 1.449(3)
C13 H13 0.9500
C14 C15 1.375(3)
C15 C16 1.454(3)
C15 C40 1.497(3)
C16 C17 1.417(3)
C16 C25 1.440(3)
C17 C18 1.472(3)
C18 C23 1.442(3)
C18 C19 1.454(3)
C19 C20 1.400(3)
C20 C21 1.385(3)
C20 H20 0.9500
C21 C22 1.368(4)
C21 H21 0.9500
C22 C23 1.408(3)
C22 H22 0.9500
C23 C24 1.409(3)
C24 C25 1.345(3)
C24 H24 0.9500
C25 H25 0.9500
C26 C31 1.390(3)
C26 C27 1.400(3)
C27 C28 1.389(3)
C27 H27 0.9500
C28 C29 1.392(3)
C28 H28 0.9500
C29 C30 1.390(3)
C29 C32 1.512(3)
C30 C31 1.391(3)
C30 H30 0.9500
C31 H31 0.9500
C32 H32A 0.9800
C32 H32B 0.9800
C32 H32C 0.9800
C33 C38 1.388(3)
C33 C34 1.394(3)
C34 C35 1.390(3)
C34 H34 0.9500
C35 C36 1.384(4)
C35 H35 0.9500
C36 C37 1.386(4)
C36 C39 1.510(3)
C37 C38 1.392(3)
C37 H37 0.9500
C38 H38 0.9500
C39 H39A 0.9800
C39 H39B 0.9800
C39 H39C 0.9800
C40 C45 1.388(3)
C40 C41 1.400(3)
C41 C42 1.386(3)
C41 H41 0.9500
C42 C43 1.391(4)
C42 H42 0.9500
C43 C44 1.390(4)
C43 C46 1.507(4)
C44 C45 1.388(3)
C44 H44 0.9500
C45 H45 0.9500
C46 H46A 0.9800
C46 H46B 0.9800
C46 H46C 0.9800
O1 C47 1.260(13)
O1 H1 0.8400
C47 H47A 0.9800
C47 H47B 0.9800
C47 H47C 0.9800
O1A C47A 1.476(16)
O1A H1A 0.8400
C47A H47D 0.9800
C47A H47E 0.9800
C47A H47F 0.9800
loop_
_geom_torsion_atom_site_label_1
_geom_torsion_atom_site_label_2
_geom_torsion_atom_site_label_3
_geom_torsion_atom_site_label_4
_geom_torsion
C4 S1 C1 C2 8.98(18)
Pd1 S1 C1 C2 126.10(15)
C4 S1 C1 C19 -176.00(18)
Pd1 S1 C1 C19 -58.88(19)
C19 C1 C2 C3 179.7(2)
S1 C1 C2 C3 -6.3(3)
C1 C2 C3 C4 -0.8(3)
C2 C3 C4 C5 -173.0(2)
C2 C3 C4 S1 7.4(2)
C1 S1 C4 C3 -9.31(18)
Pd1 S1 C4 C3 -125.39(15)
C1 S1 C4 C5 170.95(19)
Pd1 S1 C4 C5 54.9(2)
C3 C4 C5 C6 152.1(2)
S1 C4 C5 C6 -28.3(3)
C3 C4 C5 C26 -25.2(4)
S1 C4 C5 C26 154.42(17)
C4 C5 C6 N1 -11.7(4)
C26 C5 C6 N1 165.5(2)
C4 C5 C6 C7 172.7(2)
C26 C5 C6 C7 -10.1(3)
C9 N1 C6 C5 -173.3(2)
Pd1 N1 C6 C5 19.4(3)
C9 N1 C6 C7 2.8(2)
Pd1 N1 C6 C7 -164.57(15)
C5 C6 C7 C8 174.9(2)
N1 C6 C7 C8 -1.4(3)
C6 C7 C8 C9 -0.5(3)
C6 N1 C9 C10 175.5(2)
Pd1 N1 C9 C10 -16.1(3)
C6 N1 C9 C8 -3.1(2)
Pd1 N1 C9 C8 165.30(14)
C7 C8 C9 N1 2.3(3)
C7 C8 C9 C10 -176.4(2)
N1 C9 C10 C11 1.9(4)
C8 C9 C10 C11 -179.6(2)
N1 C9 C10 C33 -177.3(2)
C8 C9 C10 C33 1.1(3)
C14 N2 C11 C10 -179.3(2)
Pd1 N2 C11 C10 -9.3(4)
C14 N2 C11 C12 -0.8(3)
Pd1 N2 C11 C12 169.23(16)
C9 C10 C11 N2 12.5(4)
C33 C10 C11 N2 -168.3(2)
C9 C10 C11 C12 -165.8(2)
C33 C10 C11 C12 13.5(3)
N2 C11 C12 C13 -1.2(3)
C10 C11 C12 C13 177.4(2)
C11 C12 C13 C14 2.6(3)
C11 N2 C14 C15 -173.3(2)
Pd1 N2 C14 C15 16.6(3)
C11 N2 C14 C13 2.5(3)
Pd1 N2 C14 C13 -167.67(15)
C12 C13 C14 N2 -3.2(3)
C12 C13 C14 C15 172.4(2)
N2 C14 C15 C16 0.6(4)
C13 C14 C15 C16 -174.4(2)
N2 C14 C15 C40 -176.9(2)
C13 C14 C15 C40 8.1(3)
C14 C15 C16 C17 -21.8(4)
C40 C15 C16 C17 155.6(2)
C14 C15 C16 C25 158.6(2)
C40 C15 C16 C25 -23.9(3)
C25 C16 C17 C18 13.9(3)
C15 C16 C17 C18 -165.6(2)
C25 C16 C17 Pd1 -160.04(17)
C15 C16 C17 Pd1 20.5(3)
C16 C17 C18 C23 -9.4(3)
Pd1 C17 C18 C23 163.95(17)
C16 C17 C18 C19 167.1(2)
Pd1 C17 C18 C19 -19.5(3)
C2 C1 C19 C20 31.5(4)
S1 C1 C19 C20 -142.12(19)
C2 C1 C19 C18 -150.8(3)
S1 C1 C19 C18 35.5(3)
C23 C18 C19 C20 1.2(3)
C17 C18 C19 C20 -175.6(2)
C23 C18 C19 C1 -176.3(2)
C17 C18 C19 C1 6.9(4)
C1 C19 C20 C21 175.0(2)
C18 C19 C20 C21 -2.7(4)
C19 C20 C21 C22 1.8(4)
C20 C21 C22 C23 0.6(4)
C21 C22 C23 C24 177.4(2)
C21 C22 C23 C18 -2.2(4)
C19 C18 C23 C22 1.2(3)
C17 C18 C23 C22 178.2(2)
C19 C18 C23 C24 -178.4(2)
C17 C18 C23 C24 -1.4(3)
C22 C23 C24 C25 -171.3(2)
C18 C23 C24 C25 8.3(4)
C23 C24 C25 C16 -3.9(4)
C17 C16 C25 C24 -7.8(4)
C15 C16 C25 C24 171.8(2)
C6 C5 C26 C31 129.8(2)
C4 C5 C26 C31 -52.8(3)
C6 C5 C26 C27 -51.4(3)
C4 C5 C26 C27 126.0(2)
C31 C26 C27 C28 -0.7(4)
C5 C26 C27 C28 -179.4(2)
C26 C27 C28 C29 0.1(4)
C27 C28 C29 C30 0.3(4)
C27 C28 C29 C32 178.7(2)
C28 C29 C30 C31 -0.2(4)
C32 C29 C30 C31 -178.6(2)
C27 C26 C31 C30 0.8(4)
C5 C26 C31 C30 179.6(2)
C29 C30 C31 C26 -0.4(4)
C9 C10 C33 C38 -118.7(3)
C11 C10 C33 C38 62.0(3)
C9 C10 C33 C34 61.5(3)
C11 C10 C33 C34 -117.7(3)
C38 C33 C34 C35 -1.1(4)
C10 C33 C34 C35 178.7(2)
C33 C34 C35 C36 -0.1(4)
C34 C35 C36 C37 1.2(4)
C34 C35 C36 C39 -179.4(3)
C35 C36 C37 C38 -1.1(4)
C39 C36 C37 C38 179.4(3)
C34 C33 C38 C37 1.1(4)
C10 C33 C38 C37 -178.6(2)
C36 C37 C38 C33 0.0(4)
C14 C15 C40 C45 -60.1(3)
C16 C15 C40 C45 122.2(2)
C14 C15 C40 C41 117.3(2)
C16 C15 C40 C41 -60.4(3)
C45 C40 C41 C42 2.3(3)
C15 C40 C41 C42 -175.2(2)
C40 C41 C42 C43 -0.1(4)
C41 C42 C43 C44 -1.9(4)
C41 C42 C43 C46 178.4(2)
C42 C43 C44 C45 1.5(4)
C46 C43 C44 C45 -178.7(2)
C41 C40 C45 C44 -2.7(3)
C15 C40 C45 C44 174.8(2)
C43 C44 C45 C40 0.7(4)
