#------------------------------------------------------------------------------
#$Date: 2019-11-02 06:20:27 +0200 (Sat, 02 Nov 2019) $
#$Revision: 220802 $
#$URL: file:///home/coder/svn-repositories/cod/cif/4/12/75/4127590.cif $
#------------------------------------------------------------------------------
#
# This file is available in the Crystallography Open Database (COD),
# http://www.crystallography.net/
#
# All data on this site have been placed in the public domain by the
# contributors.
#
data_4127590
loop_
_publ_author_name
'Wang, Hai-Xu'
'Wan, Qingyun'
'Wu, Kai'
'Low, Kam-Hung'
'Yang, Chen'
'Zhou, Cong-Ying'
'Huang, Jie-Sheng'
'Che, Chi-Ming'
_publ_section_title
;
 Ruthenium(II) Porphyrin Quinoid Carbene Complexes: Synthesis, Crystal
 Structure, and Reactivity toward Carbene Transfer and Hydrogen Atom
 Transfer Reactions.
;
_journal_issue                   22
_journal_name_full               'Journal of the American Chemical Society'
_journal_page_first              9027
_journal_page_last               9046
_journal_paper_doi               10.1021/jacs.9b03357
_journal_volume                  141
_journal_year                    2019
_chemical_formula_moiety         'C66 H64 N4 O3 Ru, C6 H14'
_chemical_formula_sum            'C72 H78 N4 O3 Ru'
_chemical_formula_weight         1148.45
_space_group_crystal_system      monoclinic
_space_group_IT_number           14
_space_group_name_Hall           '-P 2yn'
_space_group_name_H-M_alt        'P 1 21/n 1'
_symmetry_space_group_name_Hall  '-P 2yn'
_symmetry_space_group_name_H-M   'P 1 21/n 1'
_atom_sites_solution_hydrogens   geom
_atom_sites_solution_primary     direct
_audit_creation_date             2019-01-03
_audit_creation_method
;
Olex2 1.2
(compiled 2018.05.29 svn.r3508 for OlexSys, GUI svn.r5506)
;
_cell_angle_alpha                90
_cell_angle_beta                 108.391(3)
_cell_angle_gamma                90
_cell_formula_units_Z            4
_cell_length_a                   17.3283(8)
_cell_length_b                   18.8683(10)
_cell_length_c                   20.1718(10)
_cell_measurement_reflns_used    351
_cell_measurement_temperature    100
_cell_measurement_theta_max      65.24
_cell_measurement_theta_min      3.96
_cell_volume                     6258.4(5)
_computing_molecular_graphics    'Olex2 (Dolomanov et al., 2009)'
_computing_publication_material  'Olex2 (Dolomanov et al., 2009)'
_computing_structure_refinement  'ShelXL (Sheldrick, 2015)'
_computing_structure_solution    'ShelXS (Sheldrick, 2008)'
_diffrn_ambient_temperature      100
_diffrn_measured_fraction_theta_full 0.968
_diffrn_measured_fraction_theta_max 0.968
_diffrn_measurement_device_type  'Bruker P4'
_diffrn_measurement_method       '\w scans'
_diffrn_radiation_monochromator  graphite
_diffrn_radiation_type           CuK\a
_diffrn_radiation_wavelength     1.54178
_diffrn_reflns_av_R_equivalents  0.0615
_diffrn_reflns_av_unetI/netI     0.0419
_diffrn_reflns_Laue_measured_fraction_full 0.968
_diffrn_reflns_Laue_measured_fraction_max 0.968
_diffrn_reflns_limit_h_max       15
_diffrn_reflns_limit_h_min       -15
_diffrn_reflns_limit_k_max       16
_diffrn_reflns_limit_k_min       -16
_diffrn_reflns_limit_l_max       17
_diffrn_reflns_limit_l_min       -17
_diffrn_reflns_number            24880
_diffrn_reflns_point_group_measured_fraction_full 0.968
_diffrn_reflns_point_group_measured_fraction_max 0.968
_diffrn_reflns_theta_full        43.421
_diffrn_reflns_theta_max         43.421
_diffrn_reflns_theta_min         3.289
_exptl_absorpt_coefficient_mu    2.405
_exptl_absorpt_correction_T_max  0.7485
_exptl_absorpt_correction_T_min  0.5222
_exptl_absorpt_correction_type   multi-scan
_exptl_absorpt_process_details   SADABS
_exptl_crystal_colour            'clear dark red'
_exptl_crystal_colour_lustre     clear
_exptl_crystal_colour_modifier   dark
_exptl_crystal_colour_primary    red
_exptl_crystal_density_diffrn    1.219
_exptl_crystal_description       block
_exptl_crystal_F_000             2424
_exptl_crystal_recrystallization_method EA/Hex
_exptl_crystal_size_max          0.06
_exptl_crystal_size_mid          0.03
_exptl_crystal_size_min          0.03
_refine_diff_density_max         0.704
_refine_diff_density_min         -0.675
_refine_diff_density_rms         0.080
_refine_ls_extinction_method     none
_refine_ls_goodness_of_fit_ref   1.049
_refine_ls_hydrogen_treatment    constr
_refine_ls_matrix_type           full
_refine_ls_number_parameters     735
_refine_ls_number_reflns         4495
_refine_ls_number_restraints     522
_refine_ls_restrained_S_all      1.073
_refine_ls_R_factor_all          0.0862
_refine_ls_R_factor_gt           0.0689
_refine_ls_shift/su_max          0.001
_refine_ls_shift/su_mean         0.000
_refine_ls_structure_factor_coef Fsqd
_refine_ls_weighting_details
'w=1/[\s^2^(Fo^2^)+(0.1284P)^2^+12.2666P] where P=(Fo^2^+2Fc^2^)/3'
_refine_ls_weighting_scheme      calc
_refine_ls_wR_factor_gt          0.1803
_refine_ls_wR_factor_ref         0.2020
_reflns_Friedel_coverage         0.000
_reflns_number_gt                3508
_reflns_number_total             4495
_reflns_threshold_expression     'I > 2\s(I)'
_cod_data_source_file            ja9b03357_si_002.cif
_cod_data_source_block           david271_0m-mon
_cod_database_code               4127590
_shelx_shelxl_version_number     2014/7
_shelx_space_group_comment
;
The symmetry employed for this shelxl refinement is uniquely defined
by the following loop, which should always be used as a source of
symmetry information in preference to the above space-group names.
They are only intended as comments.
;
_shelx_estimated_absorpt_t_max   0.931
_shelx_estimated_absorpt_t_min   0.869
_olex2_refinement_description
;
1. Fixed Uiso
 At 1.2 times of:
  All C(H) groups, All C(H,H) groups
 At 1.5 times of:
  All C(H,H,H) groups
2. Restrained distances
 C72-C71 = C71-C70 = C69-C70 = C68-C69 = C67-C68
 1.53 with sigma of 0.02
 C67-C69
 2.5 with sigma of 0.04
 C68-C70
 2.5 with sigma of 0.04
 C69-C71
 2.5 with sigma of 0.04
 C72-C70
 2.5 with sigma of 0.04
3. Restrained planarity
 C72, C71, C70, C69, C68, C67
 with sigma of 0.05
4. Uiso/Uaniso restraints and constraints
All non-hydrogen atoms have similar U: within 1.7A with sigma of 0.01 and sigma
for terminal atoms of 0.02
5.a Secondary CH2 refined with riding coordinates:
 C65(H65A,H65B), C70(H70A,H70B), C69(H69A,H69B), C68(H68A,H68B), C71(H71A,H71B)
5.b Aromatic/amide H refined with riding coordinates:
 C19(H19), C3(H3), C4(H4), C50(H50), C14(H14), C13(H13), C8(H8), C9(H9),
 C18(H18), C54(H54), C43(H43), C46(H46), C32(H32), C30(H30), C47(H47), C29(H29),
  C33(H33), C44(H44), C22(H22), C40(H40), C36(H36), C26(H26), C39(H39),
 C25(H25), C37(H37), C23(H23)
5.c Idealised Me refined as rotating group:
 C57(H57A,H57B,H57C), C58(H58A,H58B,H58C), C62(H62A,H62B,H62C), C61(H61A,H61B,
 H61C), C34(H34A,H34B,H34C), C56(H56A,H56B,H56C), C48(H48A,H48B,H48C), C60(H60A,
 H60B,H60C), C41(H41A,H41B,H41C), C27(H27A,H27B,H27C), C64(H64A,H64B,H64C),
 C66(H66A,H66B,H66C), C72(H72A,H72B,H72C), C67(H67A,H67B,H67C)
;
_shelx_res_file
;
    david271_0m-mon.res created by SHELXL-2014/7

TITL David271_0m-Mon in P21/n #14
REM reset to P21/n #14
CELL 1.54178 17.3283 18.8683 20.1718 90 108.391 90
ZERR 4 0.0008 0.001 0.001 0 0.003 0
LATT 1
SYMM 0.5-X,0.5+Y,0.5-Z
SFAC C H N O Ru
UNIT 288 312 16 12 4
DFIX 1.53 C72 C71 C71 C70 C69 C70 C68 C69 C67 C68
DANG 2.5 C67 C69
DANG 2.5 C68 C70
DANG 2.5 C69 C71
DANG 2.5 C72 C70
FLAT 0.05 C72 C71 C70 C69 C68 C67
SIMU 0.01 0.02 1.7

L.S. 20 0 0
PLAN  5
SIZE 0.03 0.03 0.06
TEMP -173.15
BOND
fmap 2 53
acta
OMIT 2 2 2
OMIT -10 1 8
OMIT 4 0 0
OMIT 4 2 0
OMIT 0 1 2
OMIT 4 1 0
OMIT -1 4 2
OMIT -4 1 8
OMIT -12 1 8
OMIT -3 0 1
OMIT 0 2 2
OMIT 1 5 2
OMIT -2 1 2
OMIT -1 2 2
OMIT 1 4 2
OMIT 2 1 0
OMIT -2 3 3
OMIT -2 3 1
OMIT -5 1 9
OMIT 0 3 3
OMIT 6 2 1
OMIT 7 1 6
OMIT -8 1 10
OMIT -8 1 8
OMIT 1 1 3
OMIT -5 1 3
OMIT 1 2 2
OMIT 2 2 0
OMIT -6 2 2
OMIT -11 11 1
OMIT 11 1 6
OMIT -9 1 1
OMIT -7 0 5
OMIT -8 0 2
OMIT 0 16 3
OMIT 2 4 0
OMIT 2 16 1
OMIT -4 1 2
OMIT 2 16 3
OMIT 0 5 1
OMIT 6 0 4
OMIT 3 2 15
OMIT -4 4 4
OMIT 3 0 1
OMIT 7 5 2
OMIT 2 1 4
OMIT -1 0 3
OMIT 7 7 4
OMIT 0 1 4
OMIT 10 7 6
REM <olex2.extras>
REM <HklSrc "%.\\David271_0m-Mon.hkl">
REM </olex2.extras>

WGHT    0.128400   12.266600
FVAR       0.03854
RU1   5    0.508111    0.853736    0.759017    11.00000    0.03652    0.08315 =
         0.06371   -0.00124    0.01304   -0.00015
C2    1    0.374575    0.862681    0.829812    11.00000    0.04231    0.08863 =
         0.06875   -0.00121    0.02035    0.00862
C35   1    0.620897    0.863243    0.562075    11.00000    0.08169    0.09349 =
         0.07963   -0.00890    0.04267   -0.01328
C21   1    0.397565    0.866911    0.955844    11.00000    0.07672    0.08967 =
         0.08031   -0.00490    0.03722    0.01235
C20   1    0.516346    0.866645    0.912740    11.00000    0.04776    0.07984 =
         0.06009   -0.00620    0.01619   -0.00319
C42   1    0.787905    0.867305    0.925469    11.00000    0.04081    0.08893 =
         0.07719    0.00053    0.01548   -0.00744
C19   1    0.571868    0.872888    0.981055    11.00000    0.04780    0.09706 =
         0.06040   -0.00425    0.01434   -0.00197
AFIX  43
H19   2    0.558414    0.875962    1.023119    11.00000   -1.20000
AFIX   0
C3    1    0.287432    0.863085    0.813160    11.00000    0.04439    0.10590 =
         0.07264   -0.00084    0.02401    0.01007
AFIX  43
H3    2    0.257864    0.862170    0.845598    11.00000   -1.20000
AFIX   0
C4    1    0.255714    0.864997    0.743205    11.00000    0.04094    0.10395 =
         0.06953    0.00296    0.01575    0.00784
AFIX  43
H4    2    0.199402    0.865776    0.717438    11.00000   -1.20000
AFIX   0
C50   1    0.429316    0.713697    0.733263    11.00000    0.02557    0.09477 =
         0.06234    0.00582    0.01163    0.00713
AFIX  43
H50   2    0.379981    0.739355    0.714929    11.00000   -1.20000
AFIX   0
N2    3    0.458922    0.863008    0.654080    11.00000    0.04453    0.07523 =
         0.06156   -0.00358    0.01218   -0.00017
N4    3    0.557198    0.862694    0.865179    11.00000    0.04729    0.07555 =
         0.06131   -0.00729    0.01385   -0.00159
N1    3    0.393904    0.863152    0.768719    11.00000    0.02080    0.08648 =
         0.07192   -0.00669    0.01693    0.00840
C15   1    0.694803    0.860123    0.804165    11.00000    0.03179    0.09123 =
         0.07534    0.00024    0.02381   -0.00803
C5    1    0.320759    0.865661    0.714181    11.00000    0.03974    0.09106 =
         0.06769   -0.00684    0.01376    0.00645
C1    1    0.431993    0.864298    0.897236    11.00000    0.04953    0.08154 =
         0.06641   -0.00386    0.02061    0.00460
C16   1    0.702896    0.864224    0.874505    11.00000    0.03684    0.08774 =
         0.06619    0.00009    0.01740   -0.00362
C11   1    0.585487    0.861731    0.621039    11.00000    0.06537    0.08553 =
         0.07204   -0.00305    0.02414   -0.00993
C7    1    0.377348    0.869570    0.615149    11.00000    0.04681    0.07901 =
         0.06060   -0.00266    0.00865    0.00510
C10   1    0.500659    0.867025    0.606355    11.00000    0.05200    0.08207 =
         0.06444   -0.00577    0.01710    0.00178
C12   1    0.641819    0.857543    0.689106    11.00000    0.04186    0.09340 =
         0.06955   -0.00455    0.02711   -0.01051
C14   1    0.759781    0.858666    0.774345    11.00000    0.04263    0.10925 =
         0.07578   -0.00374    0.01741   -0.01089
AFIX  43
H14   2    0.816136    0.858780    0.799993    11.00000   -1.20000
AFIX   0
C13   1    0.728387    0.857120    0.704663    11.00000    0.04797    0.11187 =
         0.06938   -0.00425    0.02450   -0.01306
AFIX  43
H13   2    0.757670    0.855971    0.672016    11.00000   -1.20000
AFIX   0
C28   1    0.228887    0.870444    0.592709    11.00000    0.04389    0.08293 =
         0.07090   -0.00238    0.01374    0.01428
C8    1    0.370574    0.878667    0.543037    11.00000    0.05556    0.09423 =
         0.06229    0.00094    0.01230    0.00114
AFIX  43
H8    2    0.321524    0.885457    0.505682    11.00000   -1.20000
AFIX   0
C9    1    0.445591    0.875916    0.537521    11.00000    0.06229    0.09770 =
         0.06414   -0.00179    0.01870   -0.00048
AFIX  43
H9    2    0.459432    0.879259    0.495655    11.00000   -1.20000
AFIX   0
C6    1    0.312952    0.868921    0.643719    11.00000    0.04253    0.08221 =
         0.06801   -0.00488    0.01435    0.01162
C18   1    0.647232    0.873671    0.975491    11.00000    0.05210    0.09809 =
         0.06154   -0.00612    0.01050   -0.00935
AFIX  43
H18   2    0.696631    0.878296    1.012915    11.00000   -1.20000
AFIX   0
C17   1    0.639677    0.866334    0.903546    11.00000    0.04204    0.08396 =
         0.06198   -0.00523    0.00814   -0.00479
C49   1    0.505975    0.756190    0.759814    11.00000    0.01916    0.10333 =
         0.03224    0.00115    0.00750    0.00210
C51   1    0.423936    0.642900    0.732995    11.00000    0.04004    0.08462 =
         0.06201    0.00844    0.01716    0.00182
C53   1    0.579766    0.639924    0.784388    11.00000    0.04502    0.08600 =
         0.06095   -0.00106    0.01078    0.00435
C52   1    0.500551    0.601204    0.756711    11.00000    0.04891    0.08435 =
         0.07456    0.00108    0.01772    0.01039
C54   1    0.577669    0.710734    0.784868    11.00000    0.04077    0.08805 =
         0.06080   -0.00335    0.00700   -0.00337
AFIX  43
H54   2    0.628450    0.734155    0.803585    11.00000   -1.20000
AFIX   0
O1    4    0.499078    0.536352    0.753355    11.00000    0.06099    0.07900 =
         0.16885   -0.00411    0.01176    0.00127
C55   1    0.342568    0.604728    0.709289    11.00000    0.04310    0.09349 =
         0.08336    0.00519    0.01116   -0.00930
C57   1    0.334337    0.559102    0.769672    11.00000    0.05770    0.11759 =
         0.09514    0.01131    0.02079   -0.01686
AFIX 137
H57A  2    0.374636    0.520857    0.779406    11.00000   -1.50000
H57B  2    0.279569    0.538718    0.756724    11.00000   -1.50000
H57C  2    0.343549    0.588592    0.811450    11.00000   -1.50000
AFIX   0
C58   1    0.335606    0.557396    0.645602    11.00000    0.08218    0.14590 =
         0.09123   -0.02163    0.01021   -0.03809
AFIX 137
H58A  2    0.345214    0.585941    0.608382    11.00000   -1.50000
H58B  2    0.281016    0.536664    0.628809    11.00000   -1.50000
H58C  2    0.376151    0.519417    0.659029    11.00000   -1.50000
AFIX   0
C59   1    0.658252    0.596478    0.807924    11.00000    0.05273    0.10035 =
         0.08266    0.00641    0.01105    0.01841
C62   1    0.731299    0.646070    0.837606    11.00000    0.04912    0.14199 =
         0.15338   -0.01966   -0.00964    0.01904
AFIX 137
H62A  2    0.739395    0.674557    0.799716    11.00000   -1.50000
H62B  2    0.780185    0.617829    0.859483    11.00000   -1.50000
H62C  2    0.720936    0.677473    0.872561    11.00000   -1.50000
AFIX   0
C61   1    0.668471    0.554291    0.745942    11.00000    0.05890    0.13252 =
         0.10185   -0.01092    0.01572    0.03121
AFIX 137
H61A  2    0.626168    0.517821    0.731751    11.00000   -1.50000
H61B  2    0.722142    0.531717    0.759906    11.00000   -1.50000
H61C  2    0.663612    0.586468    0.706694    11.00000   -1.50000
AFIX   0
C45   1    0.941970    0.873918    1.025352    11.00000    0.04557    0.11046 =
         0.08578   -0.00315    0.01374   -0.01099
C43   1    0.822233    0.809360    0.963669    11.00000    0.05455    0.09377 =
         0.09517   -0.00364    0.00406   -0.00884
AFIX  43
H43   2    0.793111    0.765889    0.956828    11.00000   -1.20000
AFIX   0
C31   1    0.073355    0.872501    0.495055    11.00000    0.05899    0.10843 =
         0.08734    0.00210    0.01107    0.00953
C46   1    0.907245    0.931926    0.986937    11.00000    0.05227    0.10521 =
         0.10659   -0.00404    0.00594   -0.01832
AFIX  43
H46   2    0.935902    0.975644    0.994569    11.00000   -1.20000
AFIX   0
C32   1    0.101337    0.929427    0.537158    11.00000    0.06261    0.10777 =
         0.10009   -0.00457    0.00621    0.02385
AFIX  43
H32   2    0.067640    0.969914    0.533439    11.00000   -1.20000
AFIX   0
C30   1    0.119991    0.815647    0.501466    11.00000    0.06528    0.09551 =
         0.09237    0.00017    0.00300    0.00490
AFIX  43
H30   2    0.099616    0.775421    0.473001    11.00000   -1.20000
AFIX   0
C47   1    0.831844    0.928362    0.937563    11.00000    0.04677    0.09515 =
         0.10463    0.00572    0.00084   -0.01804
AFIX  43
H47   2    0.809824    0.969497    0.911217    11.00000   -1.20000
AFIX   0
C29   1    0.198826    0.813538    0.549379    11.00000    0.05773    0.08906 =
         0.08382    0.00045    0.00900    0.01361
AFIX  43
H29   2    0.231674    0.772671    0.551977    11.00000   -1.20000
AFIX   0
C33   1    0.178889    0.928771    0.585583    11.00000    0.05977    0.09767 =
         0.08741   -0.01000    0.00297    0.01533
AFIX  43
H33   2    0.197783    0.969148    0.614249    11.00000   -1.20000
AFIX   0
C34   1   -0.012363    0.874031    0.439559    11.00000    0.05360    0.15087 =
         0.11253    0.00454   -0.00922    0.00603
AFIX 137
H34A  2   -0.053960    0.870877    0.462952    11.00000   -1.50000
H34B  2   -0.017986    0.833797    0.407655    11.00000   -1.50000
H34C  2   -0.019244    0.918385    0.413044    11.00000   -1.50000
AFIX   0
C44   1    0.900337    0.813078    1.013170    11.00000    0.05811    0.10541 =
         0.09284    0.00404    0.00266   -0.00319
AFIX  43
H44   2    0.923836    0.771696    1.038320    11.00000   -1.20000
AFIX   0
C56   1    0.271940    0.656803    0.689842    11.00000    0.04425    0.12052 =
         0.15353    0.01541    0.00379   -0.01822
AFIX 137
H56A  2    0.272021    0.683969    0.731272    11.00000   -1.50000
H56B  2    0.220627    0.630727    0.671969    11.00000   -1.50000
H56C  2    0.277673    0.689261    0.653757    11.00000   -1.50000
AFIX   0
C22   1    0.379141    0.808516    0.985826    11.00000    0.11259    0.11747 =
         0.10793    0.00335    0.06147    0.00964
AFIX  43
H22   2    0.387505    0.763458    0.968214    11.00000   -1.20000
AFIX   0
C40   1    0.638033    0.924055    0.535283    11.00000    0.11603    0.11592 =
         0.10903   -0.01098    0.06519   -0.02252
AFIX  43
H40   2    0.628109    0.968076    0.553972    11.00000   -1.20000
AFIX   0
C48   1    1.024657    0.877355    1.081383    11.00000    0.05170    0.16175 =
         0.09237   -0.00270   -0.00405   -0.01216
AFIX 137
H48A  2    1.067588    0.874536    1.059424    11.00000   -1.50000
H48B  2    1.030105    0.837614    1.113823    11.00000   -1.50000
H48C  2    1.029560    0.922128    1.107008    11.00000   -1.50000
AFIX   0
C24   1    0.330776    0.872092    1.066127    11.00000    0.11204    0.13456 =
         0.10035    0.01394    0.06221    0.01911
C36   1    0.634615    0.803502    0.532348    11.00000    0.12131    0.11586 =
         0.10921   -0.00652    0.06518   -0.00843
AFIX  43
H36   2    0.623213    0.759210    0.549633    11.00000   -1.20000
AFIX   0
C26   1    0.376874    0.926711    0.980312    11.00000    0.12525    0.11987 =
         0.10653    0.00643    0.06646    0.00863
AFIX  43
H26   2    0.384087    0.969926    0.958827    11.00000   -1.20000
AFIX   0
C38   1    0.684807    0.864819    0.451522    11.00000    0.12551    0.13179 =
         0.11045   -0.00958    0.07155   -0.01730
C39   1    0.669973    0.923028    0.480763    11.00000    0.13444    0.12804 =
         0.11894    0.00240    0.07381   -0.02771
AFIX  43
H39   2    0.681920    0.967087    0.463391    11.00000   -1.20000
AFIX   0
C25   1    0.345223    0.929888    1.035599    11.00000    0.12984    0.13412 =
         0.11952   -0.00669    0.07474    0.02009
AFIX  43
H25   2    0.333794    0.974795    1.051654    11.00000   -1.20000
AFIX   0
C60   1    0.656963    0.545714    0.866126    11.00000    0.08872    0.13558 =
         0.11571    0.02654    0.01501    0.05160
AFIX 137
H60A  2    0.647692    0.572422    0.904590    11.00000   -1.50000
H60B  2    0.709213    0.520909    0.883088    11.00000   -1.50000
H60C  2    0.613153    0.511099    0.848206    11.00000   -1.50000
AFIX   0
C37   1    0.665492    0.804928    0.476175    11.00000    0.14106    0.12852 =
         0.11787   -0.01868    0.07175   -0.00351
AFIX  43
H37   2    0.672793    0.761480    0.455112    11.00000   -1.20000
AFIX   0
C23   1    0.348383    0.811334    1.041484    11.00000    0.12349    0.13363 =
         0.11667    0.01810    0.06239    0.00927
AFIX  43
H23   2    0.339699    0.768309    1.062545    11.00000   -1.20000
AFIX   0
C41   1    0.721073    0.863683    0.391182    11.00000    0.14094    0.19356 =
         0.13037   -0.00311    0.08739   -0.00711
AFIX 137
H41A  2    0.681557    0.883257    0.349049    11.00000   -1.50000
H41B  2    0.734011    0.814758    0.382250    11.00000   -1.50000
H41C  2    0.770790    0.892310    0.403751    11.00000   -1.50000
AFIX   0
C27   1    0.290950    0.875249    1.124321    11.00000    0.13918    0.20164 =
         0.12233    0.02011    0.07080    0.01737
AFIX 137
H27A  2    0.319870    0.909751    1.159782    11.00000   -1.50000
H27B  2    0.293675    0.828388    1.145892    11.00000   -1.50000
H27C  2    0.233948    0.889619    1.104341    11.00000   -1.50000
AFIX   0
N3    3    0.622680    0.858725    0.749527    11.00000    0.02070    0.09148 =
         0.07446   -0.00035    0.01689   -0.00300
O2    4    0.516495    0.978332    0.755309    11.00000    0.07009    0.13951 =
         0.13281   -0.01832    0.01717    0.01354
O3    4    0.498110    1.093562    0.737545    11.00000    0.14254    0.16505 =
         0.19035    0.01780    0.07246    0.02682
C64   1    0.443268    1.047081    0.815477    11.00000    0.15849    0.20223 =
         0.21071    0.01276    0.09540    0.03675
AFIX 137
H64A  2    0.391699    1.021047    0.801968    11.00000   -1.50000
H64B  2    0.432301    1.098130    0.813006    11.00000   -1.50000
H64C  2    0.475289    1.034251    0.863334    11.00000   -1.50000
AFIX   0
C65   1    0.544937    1.083588    0.678936    11.00000    0.16797    0.17989 =
         0.20494    0.03301    0.08303    0.01641
AFIX  23
H65A  2    0.599600    1.062460    0.699465    11.00000   -1.20000
H65B  2    0.512814    1.054266    0.639073    11.00000   -1.20000
AFIX   0
C66   1    0.550055    1.162999    0.656879    11.00000    0.23513    0.22077 =
         0.24998    0.05708    0.05712    0.00819
AFIX 137
H66A  2    0.545255    1.165088    0.607192    11.00000   -1.50000
H66B  2    0.602376    1.183199    0.684633    11.00000   -1.50000
H66C  2    0.505723    1.190169    0.665073    11.00000   -1.50000
AFIX   0
C63   1    0.491430    1.027847    0.765165    11.00000    0.10295    0.15848 =
         0.15655    0.01430    0.04848    0.01502

C70   1    0.050231    0.852449    0.794150    11.00000    0.24993    0.32061 =
         0.38205    0.05575    0.15027    0.03835
AFIX  23
H70A  2    0.089598    0.887819    0.787958    11.00000   -1.20000
H70B  2    0.076585    0.805277    0.801840    11.00000   -1.20000
AFIX   0
C69   1   -0.025031    0.851371    0.731894    11.00000    0.25574    0.33770 =
         0.39343    0.03568    0.13991    0.01924
AFIX  23
H69A  2   -0.052493    0.898048    0.725565    11.00000   -1.20000
H69B  2   -0.063452    0.814817    0.737565    11.00000   -1.20000
AFIX   0
C68   1    0.004027    0.833841    0.668636    11.00000    0.25941    0.36188 =
         0.40411    0.02460    0.12961    0.00227
AFIX  23
H68A  2    0.021811    0.783942    0.668988    11.00000   -1.20000
H68B  2    0.047865    0.865987    0.665431    11.00000   -1.20000
AFIX   0
C71   1    0.020493    0.872582    0.854840    11.00000    0.25891    0.31882 =
         0.37792    0.07626    0.14911    0.05136
AFIX  23
H71A  2   -0.002655    0.921017    0.848892    11.00000   -1.20000
H71B  2   -0.021096    0.838772    0.859667    11.00000   -1.20000
AFIX   0
C72   1    0.095498    0.868749    0.915953    11.00000    0.28289    0.33045 =
         0.36562    0.07494    0.14474    0.07346
AFIX 137
H72A  2    0.143251    0.869766    0.899842    11.00000   -1.50000
H72B  2    0.095439    0.824648    0.941601    11.00000   -1.50000
H72C  2    0.097327    0.909302    0.946766    11.00000   -1.50000
AFIX   0
C67   1   -0.078511    0.848343    0.609733    11.00000    0.30813    0.39518 =
         0.44680    0.00576    0.12111    0.04336
AFIX 137
H67A  2   -0.076439    0.827963    0.565640    11.00000   -1.50000
H67B  2   -0.087541    0.899575    0.604168    11.00000   -1.50000
H67C  2   -0.123126    0.826554    0.622585    11.00000   -1.50000
AFIX   0
HKLF 4

REM  David271_0m-Mon in P21/n #14
REM R1 =  0.0689 for    3508 Fo > 4sig(Fo)  and  0.0862 for all    4495 data
REM    735 parameters refined using    522 restraints

END

WGHT      0.1286     12.2363

REM Highest difference peak  0.704,  deepest hole -0.675,  1-sigma level  0.080
Q1    1   0.5069  0.9238  0.7604  11.00000  0.05    0.70
Q2    1   0.0464  0.7601  0.6610  11.00000  0.05    0.68
Q3    1   0.5068  0.7774  0.7596  11.00000  0.05    0.67
Q4    1   0.5116  0.7212  0.7600  11.00000  0.05    0.50
Q5    1   0.5089  0.8562  0.6992  11.00000  0.05    0.37
;
_shelx_res_checksum              45606
_shelx_hkl_file
;
  -2   0   0  183.35   12.75
  -3   0   0   -0.19    0.03
  -3   0   0   -0.21    0.03
  -3   0   0   -0.16    0.04
  -3   0   0   -0.19    0.04
  -4   0   0   21.27    1.67
   4   0   0   25.10    1.85
  -4   0   0   25.45    1.63
  -4   0   0   26.37    1.58
  -4   0   0   26.68    1.77
  -5   0   0    0.00    0.06
   5   0   0   -0.04    0.07
  -5   0   0    0.00    0.05
  -5   0   0   -0.10    0.05
  -5   0   0    0.00    0.06
   6   0   0  105.24    7.93
  -6   0   0  111.06    7.15
  -6   0   0  105.58    6.99
  -6   0   0  110.23    6.76
  -7   0   0   -0.06    0.06
   7   0   0    0.02    0.09
  -7   0   0   -0.14    0.07
  -7   0   0    0.00    0.06
  -8   0   0   27.36    1.89
   8   0   0   30.14    2.15
  -8   0   0   28.02    1.83
  -8   0   0   29.85    1.94
  -9   0   0   -0.02    0.06
  -9   0   0    0.04    0.08
  -9   0   0   -0.12    0.09
   9   0   0    0.01    0.11
 -10   0   0   22.62    1.51
  10   0   0   23.75    1.68
 -10   0   0   20.27    1.43
 -11   0   0    0.02    0.09
  11   0   0   -0.10    0.11
 -11   0   0   -0.07    0.10
 -12   0   0   17.13    1.13
 -12   0   0   14.57    1.07
  12   0   0   16.90    1.26
 -13   0   0    0.07    0.11
  13   0   0   -0.12    0.12
 -14   0   0    7.60    0.58
  14   0   0    8.07    0.66
  -2  -1   0    0.80    0.10
  -3  -1   0    5.86    0.41
  -3  -1   0    5.23    0.38
  -3  -1   0    6.07    0.37
  -3  -1   0    5.93    0.39
   3   1   0    5.36    0.43
  -3   1   0    5.69    0.39
  -3   1   0    5.19    0.41
  -3   1   0    5.19    0.36
  -3   1   0    5.72    0.38
  -4  -1   0    0.30    0.06
  -4  -1   0    0.36    0.08
  -4  -1   0    0.40    0.07
  -4  -1   0    0.31    0.06
  -4  -1   0    0.35    0.07
   4  -1   0    0.30    0.05
  -4   1   0    0.35    0.06
  -4   1   0    0.38    0.06
   4   1   0    0.26    0.08
  -4   1   0    0.36    0.07
  -4   1   0    0.46    0.07
   5  -1   0    3.40    0.33
  -5  -1   0    3.38    0.27
  -5  -1   0    4.03    0.30
  -5  -1   0    3.53    0.31
   5  -1   0    3.48    0.25
  -5  -1   0    3.60    0.27
   5   1   0    4.25    0.33
  -5   1   0    4.07    0.28
  -5   1   0    3.56    0.27
  -5   1   0    3.67    0.27
   6  -1   0    1.59    0.14
  -6  -1   0    1.51    0.16
  -6  -1   0    1.56    0.19
   6  -1   0    1.70    0.23
  -6  -1   0    1.58    0.17
  -6   1   0    1.59    0.16
   6   1   0    1.94    0.22
  -6   1   0    1.46    0.16
   7  -1   0   18.13    1.46
  -7  -1   0   20.14    1.32
  -7  -1   0   18.10    1.28
  -7  -1   0   19.52    1.24
  -7   1   0   18.64    1.28
  -7   1   0   20.51    1.31
  -7   1   0   20.28    1.25
   7   1   0   20.29    1.46
   8  -1   0    3.17    0.31
  -8  -1   0    3.49    0.25
  -8   1   0    2.58    0.27
   8   1   0    3.16    0.31
  -8   1   0    3.17    0.25
  -8   1   0    2.51    0.25
   9  -1   0   12.87    1.04
  -9  -1   0   12.59    0.88
  -9  -1   0   13.74    0.93
  -9   1   0   14.63    0.93
  -9   1   0   13.51    0.90
   9   1   0   13.91    1.04
  -9   1   0   12.90    0.88
 -10  -1   0    4.71    0.39
  10  -1   0    4.82    0.45
 -10  -1   0    5.38    0.37
 -10   1   0    5.17    0.37
 -10   1   0    4.80    0.37
 -10   1   0    4.56    0.39
  10   1   0    4.58    0.44
  11  -1   0    0.06    0.13
 -11  -1   0    0.09    0.09
 -11  -1   0    0.15    0.11
 -11   1   0    0.13    0.10
  11   1   0    0.04    0.12
 -11   1   0    0.08    0.10
  12  -1   0    1.54    0.25
 -12   1   0    1.06    0.17
 -12   1   0    1.00    0.16
  13  -1   0    0.26    0.15
 -13  -1   0    0.58    0.13
 -13   1   0    0.68    0.14
  13   1   0    0.30    0.15
  14  -1   0    1.93    0.30
 -14   1   0    1.79    0.23
  -2  -2   0    0.77    0.08
  -2  -2   0    0.69    0.07
   2  -2   0    0.65    0.06
  -2  -2   0    0.45    0.09
  -3  -2   0    2.20    0.21
  -3  -2   0    2.50    0.20
  -3  -2   0    2.20    0.20
   3  -2   0    2.04    0.18
  -3  -2   0    2.66    0.18
  -3   2   0    2.49    0.18
   3   2   0    2.06    0.21
  -3   2   0    2.60    0.19
  -3   2   0    2.88    0.18
  -4  -2   0    3.39    0.27
  -4  -2   0    3.52    0.25
   4  -2   0    3.54    0.25
  -4  -2   0    2.83    0.28
  -4  -2   0    3.47    0.27
  -4   2   0    3.39    0.25
   4   2   0    3.47    0.30
  -4   2   0    3.49    0.25
  -4   2   0    3.73    0.26
   5  -2   0    0.14    0.05
  -5  -2   0    0.30    0.08
  -5  -2   0    0.29    0.07
  -5  -2   0    0.23    0.06
  -5   2   0    0.22    0.05
   5   2   0    0.20    0.08
  -5   2   0    0.21    0.06
  -5   2   0    0.09    0.06
  -6  -2   0   14.10    0.94
  -6  -2   0   14.57    0.89
   6  -2   0   13.78    1.06
   6  -2   0   13.76    0.87
   6   2   0   12.78    1.04
  -6   2   0   13.78    0.94
  -6   2   0   13.97    0.89
  -6   2   0   13.79    0.91
  -7  -2   0    8.85    0.54
  -7  -2   0    8.23    0.58
   7  -2   0    8.39    0.65
   7  -2   0    7.48    0.52
  -7   2   0    7.64    0.54
  -7   2   0    8.11    0.57
   7   2   0    8.04    0.64
  -7   2   0    7.97    0.55
  -8  -2   0    0.34    0.08
  -8  -2   0    0.27    0.10
   8  -2   0    0.35    0.12
  -8   2   0    0.27    0.08
  -8   2   0    0.43    0.09
  -8   2   0    0.39    0.07
   8   2   0    0.35    0.10
  -9  -2   0    4.77    0.32
   9  -2   0    3.89    0.40
  -9  -2   0    4.02    0.35
   9   2   0    3.77    0.38
  -9   2   0    3.87    0.32
  -9   2   0    4.50    0.34
  -9   2   0    4.28    0.33
 -10  -2   0    0.93    0.15
 -10  -2   0    0.87    0.13
  10  -2   0    0.98    0.17
 -10   2   0    0.86    0.13
  10   2   0    0.78    0.15
 -10   2   0    1.07    0.14
 -10   2   0    0.92    0.12
 -11  -2   0    1.18    0.16
  11  -2   0    0.86    0.18
 -11   2   0    1.11    0.16
 -11   2   0    0.84    0.14
  11   2   0    0.79    0.16
 -11   2   0    1.04    0.13
 -12  -2   0    0.10    0.11
  12  -2   0    0.30    0.14
  12   2   0    0.05    0.13
 -12   2   0   -0.03    0.11
 -12   2   0   -0.04    0.10
 -13  -2   0    0.96    0.15
  13  -2   0    0.58    0.18
 -13   2   0    0.89    0.15
 -14  -2   0    0.64    0.14
  14  -2   0    0.67    0.17
 -14   2   0    0.80    0.16
   0  -3   0   -0.13    0.03
   1  -3   0   69.17    4.31
   1  -3   0   59.13    4.11
  -1  -3   0   67.08    4.41
  -1  -3   0   65.30    4.31
  -1   3   0   72.91    4.31
  -2  -3   0   -0.01    0.04
  -2  -3   0   -0.07    0.05
   2  -3   0   -0.03    0.04
  -2  -3   0    0.00    0.03
  -2   3   0   -0.03    0.03
  -2   3   0   -0.06    0.03
  -3  -3   0   22.31    1.80
  -3  -3   0   23.91    1.82
  -3  -3   0   27.76    1.72
   3  -3   0   25.87    1.60
  -3  -3   0   24.57    1.67
  -3  -3   0   25.97    1.62
  -3   3   0   28.67    1.67
  -3   3   0   28.04    1.62
   3   3   0   25.12    1.90
  -4  -3   0    0.39    0.06
   4  -3   0    0.30    0.06
  -4  -3   0    0.31    0.05
  -4  -3   0    0.52    0.08
  -4  -3   0    0.37    0.06
  -4  -3   0    0.34    0.07
  -4   3   0    0.41    0.05
   4   3   0    0.34    0.07
  -4   3   0    0.44    0.06
  -4   3   0    0.43    0.06
  -5  -3   0   12.10    0.99
  -5  -3   0   15.79    0.90
  -5  -3   0   13.83    1.01
  -5  -3   0   14.61    0.95
  -5  -3   0   12.98    0.91
   5  -3   0   14.21    0.89
   5   3   0   12.92    1.05
  -5   3   0   15.36    0.95
  -5   3   0   14.25    0.90
  -5   3   0   14.53    0.93
  -6  -3   0    0.59    0.10
  -6  -3   0    0.47    0.08
   6  -3   0    0.51    0.08
  -6   3   0    0.39    0.08
   6   3   0    0.35    0.09
  -6   3   0    0.56    0.08
  -6   3   0    0.39    0.07
  -7  -3   0   50.57    3.17
   7  -3   0   49.57    3.12
  -7  -3   0   55.52    3.36
   7  -3   0   51.19    3.73
  -7   3   0   52.51    3.18
   7   3   0   45.86    3.72
  -7   3   0   46.99    3.35
  -7   3   0   51.23    3.28
  -8  -3   0    0.37    0.11
   8  -3   0    0.34    0.12
   8  -3   0    0.31    0.07
  -8  -3   0    0.35    0.09
  -8   3   0    0.38    0.09
   8   3   0    0.37    0.11
  -8   3   0    0.41    0.08
  -8   3   0    0.40    0.09
  -9  -3   0    9.66    0.61
   9  -3   0    9.38    0.73
  -9  -3   0    8.71    0.65
  -9   3   0    9.56    0.62
  -9   3   0    8.69    0.61
   9   3   0    9.07    0.71
  -9   3   0    8.11    0.64
 -10  -3   0    0.32    0.12
  10  -3   0    0.53    0.15
 -10   3   0    0.61    0.09
 -10   3   0    0.46    0.11
  10   3   0    0.30    0.13
 -10   3   0    0.39    0.10
 -11  -3   0    4.00    0.37
  11  -3   0    4.28    0.45
 -11   3   0    4.38    0.36
  11   3   0    4.52    0.42
 -11   3   0    5.23    0.38
 -11   3   0    4.60    0.36
 -12  -3   0    0.08    0.12
  12  -3   0    0.05    0.14
  12   3   0    0.43    0.13
 -12   3   0   -0.07    0.10
 -12   3   0    0.15    0.11
 -13  -3   0    0.03    0.12
  13  -3   0    0.38    0.14
 -13   3   0    0.25    0.11
 -13   3   0    0.10    0.11
 -14  -3   0    0.21    0.12
  14  -3   0    0.55    0.16
 -14   3   0    0.45    0.13
   0  -4   0 1000.00   62.10
   0  -4   0  927.19   59.20
  -1  -4   0    1.37    0.13
  -1  -4   0    0.89    0.15
  -1  -4   0    1.28    0.12
   1  -4   0    1.03    0.10
   1  -4   0    1.01    0.10
  -1   4   0    1.38    0.12
   2  -4   0    6.73    0.45
  -2  -4   0    6.90    0.45
  -2  -4   0    5.63    0.42
   2  -4   0    5.87    0.43
  -2   4   0    7.52    0.45
  -2   4   0    7.03    0.43
  -3  -4   0    0.17    0.05
  -3  -4   0    0.16    0.07
   3  -4   0    0.05    0.06
  -3  -4   0    0.19    0.04
  -3  -4   0    0.11    0.05
  -3   4   0    0.15    0.05
   3   4   0    0.08    0.05
  -3   4   0    0.18    0.04
  -4  -4   0   18.76    1.26
  -4  -4   0   17.37    1.33
  -4  -4   0   18.79    1.22
  -4  -4   0   16.26    1.32
   4  -4   0   19.02    1.18
  -4   4   0   19.36    1.19
  -4   4   0   20.78    1.26
  -4   4   0   21.08    1.23
   4   4   0   17.64    1.39
  -5  -4   0   -0.03    0.06
  -5  -4   0   -0.02    0.04
  -5  -4   0    0.02    0.05
   5  -4   0    0.02    0.06
  -5  -4   0    0.03    0.07
  -5   4   0    0.00    0.04
  -5   4   0    0.07    0.05
  -5   4   0   -0.02    0.05
   5   4   0   -0.05    0.06
   6  -4   0    3.93    0.29
  -6  -4   0    3.97    0.31
  -6   4   0    4.07    0.31
  -6   4   0    3.67    0.29
   6   4   0    4.47    0.34
  -6   4   0    3.68    0.29
   7  -4   0    0.26    0.11
  -7  -4   0    0.32    0.10
   7  -4   0    0.29    0.08
   7   4   0    0.33    0.09
  -7   4   0    0.22    0.06
  -7   4   0    0.30    0.07
  -7   4   0    0.19    0.08
  -8  -4   0    6.69    0.47
   8  -4   0    6.39    0.54
   8  -4   0    6.01    0.43
  -8   4   0    6.31    0.46
  -8   4   0    6.40    0.45
   8   4   0    6.49    0.52
  -8   4   0    5.97    0.44
  -9  -4   0    0.27    0.12
   9  -4   0    0.31    0.13
  -9   4   0    0.39    0.10
  -9   4   0    0.47    0.10
  -9   4   0    0.42    0.08
   9   4   0    0.49    0.11
  10  -4   0    4.89    0.45
 -10  -4   0    4.16    0.37
 -10   4   0    4.86    0.36
  10   4   0    5.04    0.42
 -10   4   0    4.84    0.37
 -10   4   0    3.86    0.35
 -11  -4   0    0.40    0.13
  11  -4   0    0.27    0.16
 -11   4   0    0.34    0.11
 -11   4   0    0.57    0.12
 -12  -4   0    1.36    0.19
  12  -4   0    1.42    0.24
 -12   4   0    1.80    0.21
 -12   4   0    1.24    0.17
 -13  -4   0    0.29    0.13
  13  -4   0    0.64    0.16
 -13   4   0    0.19    0.12
 -13   4   0    0.64    0.13
  14  -4   0    2.28    0.33
 -14  -4   0    2.74    0.26
 -14   4   0    2.30    0.27
   0  -5   0    0.02    0.05
   0  -5   0   -0.02    0.05
   0   5   0   -0.04    0.03
   0   5   0   -0.12    0.05
   1  -5   0   15.86    1.17
  -1  -5   0   17.65    1.12
  -1  -5   0   17.44    1.05
   1  -5   0   17.23    1.05
   1  -5   0   18.27    1.10
  -1  -5   0   14.42    1.17
  -1  -5   0   18.42    1.10
  -1   5   0   15.33    1.06
  -1   5   0   16.51    1.10
  -2  -5   0    0.04    0.04
   2  -5   0    0.08    0.06
  -2  -5   0    0.07    0.05
   2  -5   0   -0.03    0.05
  -2  -5   0    0.05    0.06
  -2  -5   0    0.10    0.04
  -2   5   0    0.12    0.04
  -2   5   0    0.12    0.04
  -3  -5   0    2.49    0.20
  -3  -5   0    1.83    0.16
  -3  -5   0    1.99    0.17
  -3  -5   0    1.73    0.14
   3  -5   0    1.97    0.18
   3  -5   0    1.87    0.18
  -3   5   0    1.98    0.16
  -3   5   0    2.15    0.16
  -4  -5   0    0.01    0.07
   4  -5   0    0.04    0.06
  -4  -5   0    0.05    0.05
  -4  -5   0    0.06    0.05
   4  -5   0    0.05    0.05
   4   5   0    0.03    0.05
  -4   5   0   -0.05    0.05
  -4   5   0    0.07    0.04
  -5  -5   0    0.06    0.08
   5  -5   0    0.12    0.06
  -5  -5   0    0.03    0.04
  -5  -5   0    0.10    0.05
   5  -5   0    0.12    0.05
   5   5   0    0.20    0.07
  -5   5   0    0.15    0.05
  -5   5   0    0.12    0.06
  -5   5   0    0.09    0.05
   6  -5   0    0.16    0.05
  -6  -5   0    0.13    0.08
   6  -5   0    0.23    0.07
  -6  -5   0    0.11    0.04
   6   5   0    0.18    0.08
  -6   5   0    0.09    0.06
  -6   5   0    0.12    0.06
  -6   5   0    0.13    0.05
   7  -5   0    1.48    0.17
   7  -5   0    1.32    0.18
  -7  -5   0    1.70    0.18
   7  -5   0    1.34    0.15
   7   5   0    1.86    0.20
  -7   5   0    1.55    0.18
  -7   5   0    1.50    0.16
  -7   5   0    1.54    0.16
   8  -5   0    1.03    0.16
  -8  -5   0    1.10    0.14
   8  -5   0    0.99    0.13
  -8   5   0    1.36    0.15
   8   5   0    1.57    0.19
  -8   5   0    1.19    0.17
  -8   5   0    1.11    0.15
   9  -5   0    1.27    0.19
  -9  -5   0    1.49    0.20
   9  -5   0    1.57    0.17
  -9   5   0    1.39    0.18
  -9   5   0    1.46    0.17
  -9   5   0    1.37    0.17
 -10  -5   0    1.63    0.23
  10  -5   0    1.85    0.24
 -10   5   0    1.77    0.20
 -10   5   0    2.10    0.22
 -11  -5   0    0.04    0.12
  11  -5   0   -0.05    0.14
 -11   5   0    0.03    0.09
 -11   5   0   -0.04    0.10
 -12  -5   0    0.35    0.14
  12  -5   0    0.16    0.18
 -12   5   0    0.32    0.11
 -12   5   0    0.28    0.12
 -13  -5   0    0.46    0.14
 -13   5   0    0.44    0.13
 -13   5   0    0.05    0.12
   0  -6   0   56.90    3.16
   0  -6   0   46.85    3.56
   0   6   0   53.40    3.32
   0   6   0   47.51    3.20
   1  -6   0    0.04    0.06
   1  -6   0    0.11    0.04
  -1  -6   0    0.11    0.06
  -1  -6   0    0.11    0.06
  -1  -6   0    0.19    0.07
   1  -6   0   -0.03    0.06
  -1   6   0    0.13    0.04
  -1   6   0    0.10    0.05
  -2  -6   0    5.60    0.41
   2  -6   0    7.48    0.43
   2  -6   0    6.22    0.44
  -2  -6   0    7.24    0.45
  -2  -6   0    6.71    0.44
  -2   6   0    5.43    0.43
  -2   6   0    5.91    0.41
  -3  -6   0    0.58    0.08
   3  -6   0    0.46    0.08
  -3  -6   0    0.38    0.07
   3  -6   0    0.41    0.07
  -3  -6   0    0.38    0.05
  -3  -6   0    0.37    0.05
  -3   6   0    0.44    0.06
  -3   6   0    0.51    0.06
  -4  -6   0   20.31    1.43
  -4  -6   0   18.76    1.53
  -4  -6   0   24.73    1.47
   4  -6   0   23.49    1.37
   4  -6   0   20.41    1.43
  -4   6   0   22.72    1.43
  -4   6   0   23.28    1.39
  -5  -6   0    0.22    0.05
   5  -6   0    0.19    0.06
  -5  -6   0    0.29    0.08
   5  -6   0    0.23    0.07
  -5   6   0    0.20    0.06
  -5   6   0    0.30    0.05
  -5   6   0    0.34    0.07
   6  -6   0    0.41    0.07
   6  -6   0    0.48    0.09
  -6  -6   0    0.36    0.06
  -6  -6   0    0.46    0.10
  -6   6   0    0.50    0.08
  -6   6   0    0.42    0.07
  -6   6   0    0.52    0.08
   7  -6   0    0.21    0.06
   7  -6   0    0.27    0.08
   7  -6   0    0.21    0.11
  -7  -6   0    0.35    0.10
  -7   6   0    0.24    0.07
  -7   6   0    0.27    0.07
  -7   6   0    0.28    0.07
  -8  -6   0    9.18    0.64
   8  -6   0    9.16    0.59
   8  -6   0    9.47    0.73
  -8   6   0    9.41    0.63
  -8   6   0    7.85    0.60
  -8   6   0    8.71    0.61
   9  -6   0    1.19    0.16
   9  -6   0    0.93    0.17
  -9  -6   0    0.74    0.16
  -9   6   0    0.99    0.13
  -9   6   0    1.06    0.16
  -9   6   0    1.20    0.17
 -10  -6   0    4.74    0.40
  10  -6   0    4.95    0.47
 -10   6   0    5.21    0.39
 -10   6   0    4.51    0.36
  11  -6   0    0.60    0.18
 -11  -6   0    0.74    0.16
 -11   6   0    0.68    0.13
 -11   6   0    1.18    0.17
 -12  -6   0    0.34    0.14
  12  -6   0    0.02    0.17
 -12   6   0    0.03    0.10
 -13  -6   0   -0.08    0.12
 -13   6   0    0.16    0.11
   0  -7   0   -0.06    0.06
   0  -7   0   -0.02    0.06
   0   7   0   -0.08    0.05
  -1  -7   0   95.72    5.52
   1  -7   0   78.30    6.23
   1  -7   0   95.03    5.52
   1  -7   0   97.44    5.79
  -1  -7   0   93.19    5.79
   1   7   0   81.59    5.60
  -1   7   0   89.23    5.60
  -1   7   0   86.60    5.80
  -2  -7   0    0.31    0.06
   2  -7   0    0.33    0.07
   2  -7   0    0.36    0.07
   2  -7   0    0.38    0.05
  -2  -7   0    0.32    0.07
  -2  -7   0    0.33    0.08
  -2   7   0    0.31    0.06
  -2   7   0    0.35    0.05
  -3  -7   0    0.41    0.08
  -3  -7   0    0.42    0.06
   3  -7   0    0.50    0.08
  -3  -7   0    0.47    0.09
   3  -7   0    0.54    0.08
  -3   7   0    0.53    0.07
  -3   7   0    0.54    0.06
   4  -7   0    0.09    0.06
  -4  -7   0    0.09    0.07
   4  -7   0    0.05    0.07
  -4  -7   0    0.03    0.06
  -4   7   0    0.04    0.04
  -4   7   0    0.06    0.04
   5  -7   0   11.36    0.76
  -5  -7   0   11.52    0.79
  -5  -7   0   10.90    0.76
   5  -7   0   12.19    0.74
  -5   7   0   10.77    0.76
  -5   7   0   11.20    0.74
  -5   7   0   12.06    0.78
  -6  -7   0    0.23    0.09
   6  -7   0    0.10    0.08
  -6  -7   0    0.17    0.06
   6  -7   0    0.11    0.06
  -6   7   0    0.18    0.05
  -6   7   0    0.18    0.07
  -6   7   0    0.18    0.06
  -7  -7   0   11.20    0.82
   7  -7   0   12.53    0.77
   7  -7   0   12.55    0.92
   7  -7   0   10.73    0.79
  -7   7   0   12.84    0.81
  -7   7   0   12.08    0.79
  -7   7   0   10.66    0.77
  -8  -7   0    0.22    0.11
   8  -7   0    0.30    0.13
   8  -7   0    0.33    0.10
  -8   7   0    0.26    0.07
  -8   7   0    0.25    0.08
  -8   7   0    0.25    0.09
   9  -7   0    4.98    0.46
   9  -7   0    4.42    0.36
  -9  -7   0    4.79    0.40
  -9   7   0    4.93    0.36
  -9   7   0    5.03    0.38
  10  -7   0    0.22    0.15
 -10  -7   0   -0.01    0.13
 -10   7   0    0.22    0.10
 -11  -7   0    8.24    0.66
  11  -7   0    9.75    0.77
 -11   7   0    8.97    0.65
  12  -7   0    0.10    0.17
 -12  -7   0    0.21    0.13
 -12   7   0    0.10    0.11
 -13  -7   0    0.59    0.15
 -13   7   0    0.49    0.13
   0  -8   0   90.24    5.49
   0  -8   0   93.09    5.77
   0   8   0   84.10    5.77
  -1  -8   0    1.15    0.16
   1  -8   0    0.89    0.11
  -1  -8   0    0.91    0.10
   1  -8   0    0.94    0.11
   1   8   0    0.94    0.11
  -1   8   0    1.10    0.14
   2  -8   0   14.36    0.94
  -2  -8   0   13.40    0.89
  -2  -8   0   15.56    0.96
   2  -8   0   14.47    0.90
  -2  -8   0   12.86    0.93
  -2   8   0   13.73    0.93
  -3  -8   0    0.34    0.09
   3  -8   0    0.36    0.08
   3  -8   0    0.44    0.08
  -3  -8   0    0.29    0.06
  -3  -8   0    0.30    0.08
  -3   8   0    0.34    0.06
   4  -8   0   21.54    1.27
  -4  -8   0   21.40    1.33
  -4  -8   0   18.31    1.36
   4  -8   0   20.52    1.33
  -4   8   0   19.13    1.32
  -5  -8   0    1.97    0.21
   5  -8   0    1.89    0.19
  -5  -8   0    1.85    0.18
   5  -8   0    1.65    0.18
  -5   8   0    2.00    0.17
   6  -8   0    0.02    0.06
   6  -8   0    0.04    0.08
   6  -8   0   -0.01    0.10
  -6  -8   0    0.01    0.09
  -6  -8   0    0.10    0.06
  -6   8   0    0.14    0.05
  -6   8   0    0.09    0.06
   7  -8   0    0.70    0.10
   7  -8   0    0.81    0.12
   7  -8   0    0.96    0.16
  -7  -8   0    0.85    0.13
  -7   8   0    0.92    0.12
  -7   8   0    0.74    0.10
   8  -8   0    3.13    0.34
  -8  -8   0    2.87    0.28
   8  -8   0    2.87    0.26
  -8   8   0    3.24    0.27
   9  -8   0    1.61    0.20
   9  -8   0    2.09    0.29
  -9  -8   0    1.55    0.23
  -9   8   0    2.12    0.22
  10  -8   0    1.36    0.22
  10  -8   0    1.17    0.16
 -10  -8   0    1.38    0.18
 -10   8   0    1.73    0.19
  11  -8   0    2.48    0.33
 -11  -8   0    1.70    0.25
 -11   8   0    2.32    0.24
  12  -8   0    0.22    0.15
 -12  -8   0    0.07    0.12
 -12   8   0   -0.07    0.10
   0  -9   0   -0.16    0.08
   0  -9   0   -0.07    0.07
   0   9   0    0.00    0.06
   2  -9   0    0.70    0.11
  -2  -9   0    0.72    0.09
  -2  -9   0    0.78    0.11
   2  -9   0    0.70    0.11
  -2   9   0    0.67    0.09
  -3  -9   0    8.08    0.55
  -3  -9   0    7.61    0.56
   3  -9   0    8.52    0.53
  -3  -9   0    7.06    0.51
   3  -9   0    8.33    0.55
  -3   9   0    7.76    0.54
   4  -9   0    1.21    0.16
  -4  -9   0    1.20    0.16
   4  -9   0    1.20    0.17
  -4  -9   0    1.41    0.18
  -4   9   0    1.23    0.14
   5  -9   0    0.04    0.08
  -5  -9   0    0.05    0.07
  -5  -9   0    0.04    0.09
   5  -9   0    0.01    0.07
  -5   9   0    0.02    0.05
   6  -9   0    0.82    0.12
  -6  -9   0    0.78    0.12
  -6  -9   0    0.64    0.09
   6  -9   0    0.82    0.13
   6  -9   0    0.53    0.10
  -6   9   0    0.58    0.08
  -6   9   0    0.73    0.11
   7  -9   0    0.41    0.12
  -7  -9   0    0.35    0.11
   7  -9   0    0.43    0.10
   7  -9   0    0.31    0.08
  -7   9   0    0.34    0.09
   8  -9   0    1.96    0.27
  -8  -9   0    1.75    0.22
   8  -9   0    1.70    0.21
  -8   9   0    1.89    0.21
   9  -9   0    0.36    0.11
  -9  -9   0    0.22    0.14
   9  -9   0    0.38    0.15
  -9   9   0    0.49    0.11
 -10  -9   0    1.00    0.16
  10  -9   0    0.91    0.19
  10  -9   0    0.89    0.14
 -10   9   0    1.19    0.16
 -11  -9   0    0.07    0.13
  11  -9   0    0.18    0.14
 -11   9   0    0.06    0.10
   0 -10   0   61.03    3.65
   0 -10   0   60.74    3.83
   0  10   0   54.86    3.82
  -1 -10   0    0.13    0.08
  -1 -10   0    0.13    0.07
   1 -10   0   -0.17    0.08
   1 -10   0   -0.16    0.08
  -1  10   0    0.13    0.06
   1  10   0   -0.15    0.07
  -2 -10   0    6.55    0.44
   2 -10   0    6.33    0.43
  -2 -10   0    5.48    0.40
   2 -10   0    5.70    0.44
   2  10   0    5.73    0.43
  -2  10   0    6.10    0.42
   3 -10   0   -0.02    0.07
   3 -10   0   -0.08    0.08
  -3 -10   0    0.00    0.07
  -3  10   0    0.04    0.05
  -4 -10   0   10.67    0.78
   4 -10   0   11.70    0.77
  -4 -10   0   11.51    0.77
   4 -10   0   12.43    0.74
  -4  10   0   10.28    0.75
   5 -10   0   -0.09    0.08
  -5 -10   0    0.02    0.09
   5 -10   0   -0.01    0.07
  -5 -10   0    0.03    0.07
   5 -10   0    0.06    0.08
  -5  10   0   -0.01    0.05
   6 -10   0    2.57    0.24
  -6 -10   0    2.57    0.25
  -6 -10   0    2.42    0.23
   6 -10   0    2.93    0.28
   6 -10   0    2.36    0.23
  -6  10   0    2.73    0.24
  -7 -10   0    0.39    0.12
   7 -10   0    0.53    0.12
   7 -10   0    0.35    0.10
   7 -10   0    0.44    0.11
  -7  10   0    0.37    0.09
   8 -10   0    6.34    0.50
   8 -10   0    5.44    0.41
  -8 -10   0    4.97    0.43
  -8  10   0    5.52    0.42
   9 -10   0    0.13    0.10
  -9 -10   0    0.17    0.13
   9 -10   0    0.25    0.13
  -9  10   0    0.16    0.09
  10 -10   0    3.63    0.36
  10 -10   0    2.70    0.27
 -10 -10   0    2.73    0.30
 -10  10   0    3.32    0.29
 -11 -10   0    0.22    0.13
  11 -10   0    0.47    0.16
 -11  10   0    0.22    0.11
   0 -11   0    0.05    0.08
   0 -11   0   -0.01    0.08
   0  11   0   -0.09    0.06
   1 -11   0   18.83    1.20
  -1 -11   0   17.73    1.13
  -1 -11   0   19.72    1.20
   1 -11   0   17.04    1.14
   1  11   0   17.19    1.19
  -1  11   0   16.89    1.19
  -2 -11   0    0.09    0.07
   2 -11   0   -0.02    0.08
   2 -11   0    0.07    0.08
  -2 -11   0    0.08    0.08
   2  11   0    0.04    0.08
  -2  11   0    0.15    0.06
   3 -11   0    0.04    0.08
  -3 -11   0   -0.03    0.08
   3 -11   0   -0.07    0.08
  -3  11   0    0.05    0.06
   3  11   0    0.03    0.08
  -4 -11   0   -0.08    0.08
   4 -11   0   -0.10    0.08
   4 -11   0   -0.05    0.08
  -4  11   0    0.01    0.05
   5 -11   0    2.94    0.25
  -5 -11   0    2.53    0.26
   5 -11   0    2.76    0.24
  -5 -11   0    2.58    0.24
  -5  11   0    2.41    0.22
   6 -11   0    0.05    0.09
   6 -11   0   -0.02    0.09
  -6 -11   0    0.04    0.10
  -6  11   0    0.04    0.08
   7 -11   0    3.89    0.31
  -7 -11   0    3.59    0.32
   7 -11   0    3.68    0.31
  -7  11   0    4.08    0.32
   8 -11   0    0.22    0.10
  -8 -11   0    0.14    0.12
  -8  11   0    0.31    0.09
  -9 -11   0    2.69    0.28
   9 -11   0    2.60    0.26
  -9  11   0    3.47    0.28
  10 -11   0    0.03    0.10
  10 -11   0    0.38    0.14
 -10 -11   0    0.25    0.13
 -10  11   0    0.45    0.11
   0 -12   0   24.42    1.52
   0 -12   0   26.68    1.60
   0  12   0   21.40    1.59
  -1 -12   0    0.57    0.11
   1 -12   0    0.28    0.11
  -1 -12   0    0.66    0.11
   1 -12   0    0.18    0.12
  -1  12   0    0.48    0.09
   1  12   0    0.29    0.10
   2 -12   0    0.31    0.10
  -2 -12   0    0.24    0.08
   2 -12   0    0.29    0.10
  -2 -12   0    0.32    0.10
   2  12   0    0.13    0.09
  -2  12   0    0.25    0.07
  -3 -12   0    0.01    0.09
   3 -12   0    0.02    0.09
   3 -12   0    0.04    0.09
  -3  12   0    0.10    0.06
   3  12   0    0.01    0.08
   4 -12   0    0.17    0.10
   4 -12   0    0.18    0.10
  -4 -12   0    0.14    0.10
   4  12   0    0.11    0.10
  -4  12   0    0.14    0.06
  -5 -12   0    0.06    0.09
   5 -12   0    0.12    0.09
   5 -12   0    0.03    0.09
  -6 -12   0    0.15    0.12
   6 -12   0    0.21    0.09
   6 -12   0    0.13    0.10
  -6  12   0    0.13    0.08
  -7 -12   0    0.41    0.14
   7 -12   0    0.28    0.11
   7 -12   0    0.34    0.10
  -7  12   0    0.47    0.10
   8 -12   0    0.09    0.10
  -8 -12   0    0.01    0.13
  -8  12   0    0.26    0.08
   9 -12   0    0.48    0.12
  -9 -12   0    0.57    0.14
  -9  12   0    0.83    0.13
 -10 -12   0    0.07    0.13
  10 -12   0    0.09    0.10
 -10  12   0    0.13    0.09
   0 -13   0   -0.12    0.09
   0 -13   0   -0.10    0.10
   0  13   0   -0.14    0.08
   1 -13   0    4.28    0.33
   1 -13   0    4.66    0.35
  -1 -13   0    4.72    0.35
  -1 -13   0    3.89    0.32
  -1  13   0    4.13    0.33
   1  13   0    3.46    0.34
   2 -13   0   -0.13    0.09
  -2 -13   0    0.02    0.10
   2 -13   0   -0.24    0.09
   2  13   0   -0.16    0.09
  -2  13   0   -0.02    0.07
   3 -13   0    2.82    0.27
  -3 -13   0    3.37    0.28
   3 -13   0    2.99    0.27
   3  13   0    3.02    0.27
  -3  13   0    2.81    0.24
   4 -13   0   -0.01    0.10
  -4 -13   0    0.00    0.09
   4 -13   0    0.00    0.09
   4  13   0    0.13    0.10
  -5 -13   0    3.37    0.29
   5 -13   0    3.18    0.29
   5 -13   0    3.27    0.29
   5  13   0    3.51    0.30
   6 -13   0    0.05    0.10
   6 -13   0    0.10    0.09
  -6  13   0   -0.01    0.08
   6  13   0   -0.03    0.11
   7 -13   0    2.58    0.25
   7 -13   0    2.62    0.25
  -7  13   0    2.91    0.25
   8 -13   0   -0.06    0.09
  -8  13   0    0.33    0.08
   9 -13   0    1.38    0.19
   0 -14   0   16.66    1.12
   0 -14   0   19.49    1.19
   0  14   0   16.53    1.17
  -1 -14   0    0.17    0.09
  -1 -14   0    0.16    0.11
   1 -14   0   -0.15    0.09
   1 -14   0   -0.20    0.11
   1  14   0   -0.01    0.09
  -1  14   0    0.08    0.08
  -2 -14   0    1.14    0.16
   2 -14   0    0.95    0.15
   2 -14   0    1.13    0.15
   2  14   0    1.28    0.18
  -2  14   0    0.93    0.15
  -3 -14   0   -0.07    0.10
   3 -14   0   -0.07    0.10
   3 -14   0   -0.11    0.09
   3  14   0   -0.01    0.09
   4 -14   0    0.41    0.12
   4 -14   0    0.54    0.13
  -4 -14   0    0.70    0.13
   4  14   0    0.66    0.13
   5 -14   0    0.08    0.10
  -5 -14   0    0.15    0.10
   5 -14   0    0.05    0.10
   5  14   0    0.27    0.11
   6 -14   0    0.05    0.10
   6 -14   0    0.11    0.09
   6  14   0   -0.03    0.10
  -6  14   0    0.06    0.08
   7 -14   0   -0.03    0.08
   7 -14   0   -0.19    0.09
   7  14   0    0.10    0.11
  -7  14   0   -0.03    0.08
   0 -15   0   -0.11    0.10
   0 -15   0    0.08    0.09
   0  15   0   -0.07    0.09
   1 -15   0    3.35    0.29
   1 -15   0    3.41    0.31
  -1 -15   0    4.05    0.32
  -1  15   0    3.14    0.28
   1  15   0    3.16    0.30
  -2 -15   0    0.16    0.11
   2 -15   0    0.00    0.11
   2 -15   0    0.18    0.11
   2  15   0    0.23    0.10
   3 -15   0    0.15    0.11
  -3 -15   0    0.34    0.12
   3 -15   0    0.07    0.11
   3  15   0    0.29    0.10
   4 -15   0    0.07    0.10
   4 -15   0   -0.11    0.09
  -4 -15   0   -0.22    0.10
   4  15   0    0.09    0.10
   5 -15   0    0.11    0.11
   5 -15   0    0.17    0.11
  -5  15   0    0.10    0.08
   5  15   0    0.10    0.10
   6 -15   0    0.05    0.10
   6 -15   0   -0.07    0.10
  -6  15   0   -0.04    0.08
   6  15   0    0.07    0.10
   0 -16   0    1.80    0.23
   1 -16   0   -0.23    0.11
   1 -16   0   -0.02    0.11
  -1 -16   0    0.18    0.12
   1  16   0    0.16    0.10
   2 -16   0    1.23    0.18
   2 -16   0    1.55    0.20
  -2 -16   0    1.77    0.22
   2  16   0    1.28    0.18
   3 -16   0   -0.21    0.10
   3 -16   0   -0.07    0.10
  -3 -16   0   -0.07    0.10
   3  16   0   -0.12    0.10
  -4 -16   0    2.89    0.26
   4 -16   0    2.03    0.25
 -14   0   1    0.23    0.11
  14   0  -1    0.12    0.13
 -13   0   1    0.32    0.12
  13   0  -1    0.51    0.15
 -13   0   1    0.56    0.13
 -12   0   1    0.08    0.11
  12   0  -1   -0.02    0.12
 -12   0   1   -0.03    0.09
  11   0  -1    3.11    0.35
 -11   0   1    3.38    0.28
 -11   0   1    2.78    0.30
  10   0  -1   -0.03    0.11
 -10   0   1   -0.06    0.09
 -10   0   1   -0.04    0.08
  -9   0   1    4.09    0.29
  -9   0   1    3.16    0.31
   9   0  -1    3.61    0.35
   8   0  -1   -0.03    0.09
  -8   0   1   -0.16    0.08
  -8   0   1    0.01    0.07
   7   0  -1    6.35    0.50
  -7   0   1    6.26    0.42
  -7   0   1    5.32    0.44
  -7   0   1    6.46    0.42
  -7   0   1    5.62    0.48
  -6   0   1   -0.09    0.06
   6   0  -1   -0.03    0.04
  -6   0   1   -0.01    0.05
  -6   0   1   -0.05    0.07
  -6   0   1   -0.08    0.05
  -5   0   1    1.84    0.18
  -5   0   1    1.81    0.20
  -5   0   1    2.02    0.16
  -5   0   1    1.84    0.16
   5   0  -1    1.39    0.14
  -4   0   1    0.93    0.12
  -4   0   1    1.06    0.16
  -4   0   1    1.38    0.15
  -4   0   1    1.18    0.12
  -3   0   1    0.04    0.05
  -3   0   1    0.01    0.04
  -3   0   1    0.01    0.04
  -1   0  -1    0.48    0.06
   2   0   1   -0.59    0.05
  -2   0  -1   -0.57    0.04
  -2   0  -1   -0.60    0.03
  -2   0  -1   -0.59    0.04
  -2   0  -1   -0.56    0.03
  -3   0  -1   -0.01    0.04
  -3   0  -1    0.08    0.04
  -3   0  -1    0.03    0.05
  -3   0  -1    0.09    0.05
   3   0   1    0.05    0.06
  -4   0  -1   -0.02    0.05
  -4   0  -1   -0.05    0.06
   4   0   1   -0.09    0.07
  -4   0  -1   -0.07    0.06
  -4   0  -1   -0.10    0.05
  -5   0  -1   -0.03    0.06
   5   0   1   -0.09    0.07
  -5   0  -1    0.05    0.07
  -5   0  -1    0.02    0.05
  -5   0  -1   -0.06    0.05
   6   0   1   -0.06    0.08
  -6   0  -1   -0.05    0.06
  -6   0  -1   -0.05    0.05
  -6   0  -1   -0.14    0.07
   7   0   1    3.59    0.33
  -7   0  -1    3.31    0.28
  -7   0  -1    3.17    0.30
  -7   0  -1    3.93    0.27
  -8   0  -1   -0.06    0.07
   8   0   1    0.01    0.10
  -8   0  -1   -0.09    0.08
  -8   0  -1    0.02    0.06
  -9   0  -1   14.98    1.05
  -9   0  -1   16.30    1.00
  -9   0  -1   15.55    1.02
   9   0   1   14.16    1.17
 -10   0  -1   -0.04    0.09
 -10   0  -1   -0.01    0.10
  10   0   1    0.04    0.11
  11   0   1    4.32    0.41
 -11   0  -1    4.07    0.35
 -12   0  -1    0.20    0.12
  12   0   1   -0.04    0.13
 -13   0  -1    6.06    0.50
  13   0   1    6.76    0.56
  14   0   1    1.67    0.26
  14  -1  -1    0.13    0.14
 -14  -1   1    0.38    0.13
 -14   1   1    0.42    0.13
  14   1  -1    0.31    0.14
  13  -1  -1    4.67    0.42
 -13  -1   1    4.27    0.36
  13   1  -1    4.12    0.41
 -13   1   1    3.54    0.34
 -13   1   1    4.29    0.36
  12  -1  -1    0.17    0.14
 -12  -1   1    0.26    0.13
 -12  -1   1    0.19    0.11
 -12   1   1    0.26    0.11
  12   1  -1    0.39    0.13
 -12   1   1    0.30    0.12
  11  -1  -1    4.52    0.43
 -11  -1   1    4.32    0.37
 -11  -1   1    4.47    0.35
 -11   1   1    4.37    0.37
  11   1  -1    4.49    0.42
 -11   1   1    4.38    0.35
 -10  -1   1    2.32    0.25
 -10  -1   1    2.78    0.24
  10  -1  -1    2.68    0.30
 -10   1   1    2.39    0.24
 -10   1   1    2.21    0.23
  10   1  -1    2.26    0.29
   9  -1  -1   10.50    0.85
  -9  -1   1   10.98    0.72
  -9  -1   1   11.29    0.77
  -9   1   1   11.76    0.73
  -9   1   1    9.94    0.73
   9   1  -1   11.62    0.85
  -9   1   1   10.29    0.76
  -8  -1   1    8.43    0.60
   8  -1  -1    8.29    0.67
  -8  -1   1    8.69    0.56
  -8   1   1    7.94    0.56
  -8   1   1    8.62    0.59
  -8   1   1    8.12    0.57
   8   1  -1    8.37    0.66
  -7  -1   1   31.70    1.98
   7  -1  -1   32.32    2.20
   7  -1  -1   25.91    1.83
  -7  -1   1   29.81    2.11
  -7  -1   1   30.76    1.87
  -7   1   1   29.43    2.11
  -7   1   1   26.49    1.93
   7   1  -1   30.77    2.20
  -7   1   1   28.64    1.87
  -7   1   1   29.93    1.98
  -6  -1   1    2.52    0.21
   6  -1  -1    2.64    0.21
  -6  -1   1    2.77    0.27
  -6  -1   1    3.21    0.23
  -6  -1   1    3.29    0.26
   6   1  -1    3.02    0.29
  -6   1   1    3.11    0.27
  -6   1   1    3.27    0.23
  -6   1   1    2.69    0.25
  -6   1   1    3.08    0.23
   5  -1  -1   37.86    2.52
  -5  -1   1   38.42    2.64
  -5  -1   1   43.12    2.89
  -5  -1   1   41.16    2.57
  -5  -1   1   43.35    2.72
  -5   1   1   41.22    2.71
  -5   1   1   41.75    2.65
  -5   1   1   40.42    2.57
  -4  -1   1    2.91    0.24
  -4  -1   1    3.31    0.22
   4  -1  -1    2.86    0.21
  -4  -1   1    3.01    0.26
  -4  -1   1    2.39    0.21
  -4   1   1    3.01    0.22
  -4   1   1    3.17    0.25
  -4   1   1    2.92    0.22
  -4   1   1    3.01    0.23
  -3  -1   1    0.29    0.05
  -3  -1   1    0.30    0.05
  -3  -1   1    0.19    0.04
   3  -1  -1    0.28    0.04
  -3   1   1    0.21    0.05
  -3   1   1    0.25    0.04
  -3   1   1    0.19    0.05
   0  -1  -1    0.40    0.05
  -1  -1  -1   98.38    6.17
  -1   1  -1   79.05    6.17
   2  -1   1    3.12    0.28
  -2  -1  -1    3.24    0.25
  -2  -1  -1    3.72    0.26
  -2  -1  -1    3.34    0.24
  -2   1  -1    3.27    0.26
  -2   1  -1    3.31    0.23
  -2   1  -1    4.00    0.24
  -2   1  -1    3.55    0.25
  -3  -1  -1    0.37    0.06
  -3  -1  -1    0.34    0.05
  -3  -1  -1    0.37    0.07
  -3  -1  -1    0.31    0.05
   3  -1   1    0.37    0.08
   3  -1   1    0.45    0.05
  -3   1  -1    0.41    0.05
   3   1   1    0.45    0.08
  -3   1  -1    0.34    0.05
  -3   1  -1    0.38    0.06
  -3   1  -1    0.48    0.06
  -4  -1  -1    0.07    0.06
   4  -1   1   -0.13    0.07
   4  -1   1   -0.04    0.04
  -4  -1  -1    0.00    0.05
  -4  -1  -1    0.01    0.07
  -4  -1  -1    0.00    0.05
  -4   1  -1    0.01    0.04
  -4   1  -1    0.03    0.05
  -4   1  -1   -0.03    0.05
   4   1   1   -0.03    0.07
  -4   1  -1   -0.02    0.06
  -5  -1  -1    0.35    0.07
   5  -1   1    0.30    0.09
  -5  -1  -1    0.33    0.08
  -5  -1  -1    0.27    0.07
   5  -1   1    0.24    0.05
  -5  -1  -1    0.41    0.08
  -5   1  -1    0.35    0.06
   5   1   1    0.34    0.09
  -5   1  -1    0.43    0.07
  -5   1  -1    0.35    0.07
  -6  -1  -1    0.51    0.08
  -6  -1  -1    0.64    0.10
   6  -1   1    0.42    0.06
   6  -1   1    0.53    0.11
  -6  -1  -1    0.50    0.09
  -6  -1  -1    0.57    0.08
   6   1   1    0.58    0.10
  -6   1  -1    0.65    0.08
  -6   1  -1    0.66    0.09
  -6   1  -1    0.49    0.08
  -7  -1  -1    7.15    0.48
  -7  -1  -1    6.92    0.52
  -7  -1  -1    6.23    0.50
   7  -1   1    7.67    0.58
   7   1   1    6.92    0.58
  -7   1  -1    7.47    0.52
  -7   1  -1    7.51    0.49
  -7   1  -1    7.27    0.49
  -8  -1  -1    0.54    0.10
  -8  -1  -1    0.54    0.11
  -8  -1  -1    0.63    0.10
   8  -1   1    0.58    0.12
  -8   1  -1    0.60    0.10
   8   1   1    0.46    0.12
  -8   1  -1    0.58    0.09
  -8   1  -1    0.67    0.10
   9  -1   1   24.55    1.76
  -9  -1  -1   23.06    1.58
  -9  -1  -1   24.24    1.50
  -9   1  -1   22.25    1.54
  -9   1  -1   22.30    1.50
  -9   1  -1   24.10    1.58
   9   1   1   22.93    1.75
  10  -1   1    1.22    0.19
 -10  -1  -1    1.58    0.18
 -10   1  -1    1.51    0.19
  10   1   1    1.30    0.19
 -10   1  -1    1.35    0.19
 -10   1  -1    1.48    0.20
 -11  -1  -1    7.05    0.53
  11  -1   1    7.23    0.61
  11   1   1    7.11    0.60
 -11   1  -1    7.05    0.53
 -11   1  -1    6.69    0.51
  12  -1   1    0.64    0.18
 -12  -1  -1    1.01    0.16
  12   1   1    0.86    0.17
 -12   1  -1    1.04    0.16
  13  -1   1    9.01    0.72
 -13  -1  -1    7.96    0.63
 -13   1  -1    8.30    0.63
  13   1   1    9.03    0.71
  14   1   1    1.88    0.28
 -14   1  -1    1.88    0.23
  14  -2  -1   -0.08    0.12
 -14  -2   1    0.02    0.12
 -14   2   1    0.29    0.12
 -14   2   1   -0.10    0.10
 -13  -2   1    0.23    0.13
  13  -2  -1    0.29    0.13
  13   2  -1    0.25    0.13
 -13   2   1    0.27    0.12
 -13   2   1    0.16    0.11
  12  -2  -1    0.09    0.13
 -12  -2   1   -0.05    0.10
 -12  -2   1    0.05    0.12
 -12   2   1    0.08    0.10
 -12   2   1    0.14    0.11
  12   2  -1    0.14    0.12
 -11  -2   1    0.19    0.11
 -11  -2   1    0.28    0.10
  11  -2  -1    0.31    0.14
  11   2  -1    0.43    0.12
 -11   2   1    0.27    0.11
 -11   2   1    0.16    0.10
  10  -2  -1   26.96    1.93
 -10  -2   1   25.74    1.64
 -10  -2   1   28.30    1.73
 -10   2   1   26.62    1.73
  10   2  -1   23.86    1.92
 -10   2   1   24.88    1.68
 -10   2   1   22.97    1.64
  -9  -2   1   -0.23    0.09
   9  -2  -1    0.02    0.10
  -9  -2   1    0.04    0.08
  -9   2   1    0.02    0.06
   9   2  -1    0.07    0.09
  -9   2   1   -0.09    0.07
  -9   2   1    0.01    0.07
   8  -2  -1   92.75    6.83
  -8  -2   1   92.11    6.15
   8  -2  -1   85.49    5.71
  -8  -2   1   96.51    5.82
  -8   2   1   85.81    6.00
   8   2  -1   92.41    6.82
  -8   2   1  100.94    5.82
  -8   2   1   96.03    6.15
   7  -2  -1    0.03    0.06
  -7  -2   1    0.03    0.08
  -7  -2   1   -0.01    0.06
  -7  -2   1   -0.02    0.08
  -7   2   1    0.04    0.06
   7   2  -1   -0.02    0.08
  -7   2   1    0.07    0.06
  -7   2   1    0.02    0.05
   6  -2  -1   24.19    1.60
  -6  -2   1   25.40    1.63
  -6  -2   1   28.53    1.73
  -6  -2   1   23.17    1.67
  -6  -2   1   23.49    1.84
  -6   2   1   26.18    1.63
  -6   2   1   27.22    1.72
  -6   2   1   26.91    1.68
  -6   2   1   26.18    1.84
   6   2  -1   26.68    1.91
  -5  -2   1    0.06    0.07
  -5  -2   1   -0.05    0.06
  -5  -2   1    0.02    0.05
  -5  -2   1    0.00    0.04
   5  -2  -1    0.01    0.05
  -5   2   1    0.01    0.05
  -5   2   1    0.00    0.04
  -5   2   1    0.03    0.06
  -5   2   1   -0.09    0.05
   5   2  -1   -0.08    0.06
  -4  -2   1  126.84    7.83
   4  -2  -1  134.06    7.47
  -4  -2   1  116.55    7.59
  -4  -2   1  128.58    8.03
  -4  -2   1  121.52    8.55
  -4   2   1  104.58    8.55
   4   2  -1  115.58    8.90
  -4   2   1  126.16    7.59
  -4   2   1  116.53    8.03
  -4   2   1  123.50    7.84
  -3  -2   1    0.15    0.05
  -3  -2   1    0.15    0.04
  -3  -2   1    0.14    0.05
  -3  -2   1    0.10    0.04
  -3   2   1    0.18    0.04
  -3   2   1    0.13    0.05
  -3   2   1    0.17    0.04
   2  -2  -1   13.30    0.89
  -2  -2   1   14.05    0.96
  -2   2   1   15.67    0.91
   0  -2  -1  139.09    9.67
  -1  -2  -1    0.14    0.04
   1  -2   1    0.18    0.04
  -1   2  -1    0.13    0.04
  -2  -2  -1  160.06   10.99
   2  -2   1  156.84    9.71
   2  -2   1  146.64   11.58
  -2  -2  -1  140.33   10.44
   2   2   1  156.92   11.58
  -2   2  -1  179.97   10.20
  -2   2  -1  165.02   10.99
   3  -2   1    0.79    0.12
  -3  -2  -1    0.79    0.12
  -3  -2  -1    0.78    0.11
  -3  -2  -1    0.92    0.14
   3  -2   1    0.89    0.10
  -3   2  -1    0.79    0.10
  -3   2  -1    1.14    0.11
   3   2   1    0.86    0.09
  -3   2  -1    1.04    0.12
  -4  -2  -1    5.61    0.44
  -4  -2  -1    6.32    0.43
   4  -2   1    5.83    0.39
  -4  -2  -1    6.19    0.40
  -4  -2  -1    5.48    0.41
   4  -2   1    5.36    0.48
  -4   2  -1    6.12    0.41
  -4   2  -1    5.78    0.39
   4   2   1    6.37    0.47
  -4   2  -1    6.31    0.42
  -5  -2  -1    0.04    0.06
   5  -2   1   -0.02    0.03
  -5  -2  -1    0.02    0.05
  -5  -2  -1   -0.02    0.07
  -5  -2  -1   -0.07    0.05
   5  -2   1    0.00    0.08
   5  -2   1   -0.06    0.05
  -5   2  -1   -0.10    0.05
   5   2   1   -0.13    0.07
  -5   2  -1   -0.08    0.05
  -5   2  -1    0.00    0.05
  -6  -2  -1    0.67    0.09
  -6  -2  -1    0.97    0.11
  -6  -2  -1    0.74    0.10
   6  -2   1    0.75    0.12
   6  -2   1    0.74    0.08
  -6  -2  -1    0.93    0.13
  -6   2  -1    0.85    0.10
  -6   2  -1    0.86    0.10
   6   2   1    0.68    0.12
  -6   2  -1    0.79    0.09
   7  -2   1    0.01    0.10
  -7  -2  -1   -0.16    0.09
  -7  -2  -1    0.05    0.07
   7  -2   1    0.05    0.05
   7   2   1    0.02    0.09
  -7   2  -1    0.04    0.07
  -7   2  -1    0.00    0.07
  -7   2  -1    0.06    0.06
  -8  -2  -1    2.96    0.28
  -8  -2  -1    3.01    0.25
   8  -2   1    3.19    0.32
  -8   2  -1    3.24    0.26
  -8   2  -1    2.78    0.27
  -8   2  -1    3.27    0.26
   8   2   1    3.21    0.31
   9  -2   1    0.46    0.14
  -9  -2  -1    0.25    0.12
  -9   2  -1    0.40    0.10
  -9   2  -1    0.40    0.09
  -9   2  -1    0.42    0.10
   9   2   1    0.32    0.12
 -10  -2  -1    5.23    0.45
  10  -2   1    6.39    0.53
 -10   2  -1    5.91    0.43
  10   2   1    5.65    0.50
 -10   2  -1    6.01    0.45
 -10   2  -1    5.63    0.43
  11  -2   1    0.11    0.13
 -11  -2  -1    0.10    0.11
 -11   2  -1    0.05    0.08
 -11   2  -1   -0.01    0.11
 -11   2  -1   -0.07    0.09
  11   2   1    0.17    0.12
 -12  -2  -1    0.10    0.12
  12  -2   1    0.01    0.14
  12   2   1    0.10    0.12
 -12   2  -1    0.07    0.11
  13  -2   1    0.32    0.15
 -13   2  -1    0.26    0.13
 -14  -2  -1    1.96    0.23
 -14   2  -1    2.12    0.24
  14  -3  -1    0.89    0.17
 -14  -3   1    0.59    0.13
 -14   3   1    0.78    0.15
 -14   3   1    0.29    0.13
  13  -3  -1    0.14    0.15
 -13  -3   1    0.11    0.12
 -13   3   1    0.15    0.12
 -13   3   1    0.23    0.10
  12  -3  -1    0.06    0.14
 -12  -3   1    0.28    0.12
 -12   3   1    0.17    0.10
 -12   3   1    0.21    0.11
 -11  -3   1   -0.05    0.09
 -11  -3   1    0.09    0.11
  11  -3  -1    0.06    0.12
  11   3  -1   -0.05    0.11
 -11   3   1    0.07    0.08
 -11   3   1    0.04    0.10
 -10  -3   1    2.58    0.23
  10  -3  -1    2.23    0.29
 -10  -3   1    2.06    0.24
  10   3  -1    2.16    0.27
 -10   3   1    2.16    0.23
 -10   3   1    2.28    0.22
 -10   3   1    2.28    0.21
  -9  -3   1    0.65    0.11
  -9  -3   1    0.70    0.12
   9  -3  -1    0.84    0.15
  -9   3   1    0.83    0.11
  -9   3   1    0.56    0.09
  -9   3   1    0.56    0.11
   9   3  -1    0.67    0.12
   8  -3  -1    8.01    0.63
   8  -3  -1    7.07    0.50
  -8  -3   1    7.74    0.55
  -8  -3   1    7.38    0.51
  -8   3   1    7.82    0.54
  -8   3   1    7.21    0.51
  -8   3   1    7.70    0.52
   8   3  -1    7.59    0.61
   7  -3  -1   22.81    1.56
  -7  -3   1   24.17    1.79
  -7  -3   1   25.08    1.68
  -7  -3   1   27.13    1.59
   7   3  -1   24.08    1.86
  -7   3   1   26.73    1.68
  -7   3   1   25.95    1.59
  -7   3   1   24.45    1.64
  -6  -3   1    1.17    0.19
  -6  -3   1    1.68    0.18
  -6  -3   1    1.37    0.12
   6  -3  -1    1.37    0.16
  -6  -3   1    1.56    0.15
  -6   3   1    1.38    0.15
   6   3  -1    1.45    0.19
  -6   3   1    1.44    0.14
  -6   3   1    1.25    0.16
  -5  -3   1   10.59    0.74
  -5  -3   1   10.70    0.79
   5  -3  -1   11.55    0.69
  -5  -3   1   10.60    0.71
  -5  -3   1   10.26    0.70
  -5   3   1   11.55    0.70
  -5   3   1   10.88    0.79
  -5   3   1   10.73    0.73
  -5   3   1   10.65    0.71
   5   3  -1   10.40    0.81
  -4  -3   1    3.94    0.32
  -4  -3   1    3.92    0.28
   4  -3  -1    3.90    0.28
  -4  -3   1    4.30    0.30
  -4  -3   1    3.75    0.27
  -4   3   1    4.02    0.29
  -4   3   1    3.89    0.28
  -4   3   1    3.52    0.31
  -4   3   1    4.22    0.27
  -3  -3   1    1.83    0.19
  -3  -3   1    2.10    0.17
  -3  -3   1    2.31    0.17
   3  -3  -1    2.05    0.18
  -3   3   1    2.59    0.17
  -3   3   1    2.04    0.20
  -3   3   1    2.42    0.17
   2  -3  -1    1.15    0.13
  -2  -3   1    1.31    0.12
  -2  -3   1    1.53    0.13
  -1  -3   1   58.46    3.58
  -1  -3   1   55.85    3.67
   1  -3  -1   49.39    3.41
   1  -3  -1   59.47    3.86
  -1  -3   1   54.04    3.41
   0  -3  -1    0.13    0.04
   0  -3   1    0.14    0.04
   0  -3  -1    0.09    0.04
   0  -3   1    0.01    0.04
   0  -3  -1    0.15    0.04
   0   3  -1    0.08    0.04
   1  -3   1   11.31    0.78
  -1  -3  -1   11.71    0.80
  -1  -3  -1   10.73    0.78
   1  -3   1   12.55    0.75
  -1  -3  -1   12.70    0.84
  -1   3  -1   12.97    0.79
   2  -3   1    3.01    0.21
  -2  -3  -1    2.87    0.21
  -2  -3  -1    2.69    0.23
  -2  -3  -1    3.30    0.23
   2  -3   1    2.95    0.21
   2   3   1    2.85    0.24
   3  -3   1   11.43    0.83
  -3  -3  -1   14.13    0.86
  -3  -3  -1   12.15    0.90
   3  -3   1   13.40    0.80
  -3  -3  -1   11.77    0.83
  -3   3  -1   13.52    0.84
  -3   3  -1   12.84    0.81
   3   3   1   12.08    0.95
  -3   3  -1   13.33    0.86
   4  -3   1    0.16    0.06
  -4  -3  -1    0.22    0.07
  -4  -3  -1    0.30    0.07
   4  -3   1    0.13    0.04
  -4  -3  -1    0.19    0.04
   4  -3   1    0.18    0.09
  -4   3  -1    0.28    0.05
  -4   3  -1    0.23    0.05
   4   3   1    0.08    0.07
  -4   3  -1    0.27    0.06
   5  -3   1    4.95    0.37
  -5  -3  -1    5.46    0.40
  -5  -3  -1    5.28    0.41
   5  -3   1    5.69    0.36
   5  -3   1    5.29    0.46
   5   3   1    5.74    0.44
  -5   3  -1    5.78    0.39
  -5   3  -1    5.31    0.38
  -5   3  -1    5.35    0.37
   6  -3   1    1.18    0.15
  -6  -3  -1    1.44    0.19
  -6  -3  -1    1.41    0.16
   6  -3   1    1.48    0.17
   6   3   1    1.35    0.20
  -6   3  -1    1.42    0.15
  -6   3  -1    1.19    0.16
  -6   3  -1    1.58    0.15
   7  -3   1    5.98    0.43
  -7  -3  -1    6.35    0.48
   7  -3   1    6.93    0.54
  -7   3  -1    6.40    0.47
  -7   3  -1    6.48    0.45
  -7   3  -1    6.71    0.45
   7   3   1    6.55    0.52
  -8  -3  -1    0.84    0.13
   8  -3   1    1.02    0.16
  -8   3  -1    0.95    0.11
  -8   3  -1    1.01    0.12
  -8   3  -1    0.79    0.11
   8   3   1    0.84    0.14
   9  -3   1    1.46    0.19
  -9  -3  -1    1.29    0.19
  -9   3  -1    1.18    0.14
   9   3   1    1.25    0.22
  -9   3  -1    1.21    0.19
  -9   3  -1    1.13    0.14
 -10  -3  -1    1.83    0.23
  10  -3   1    1.88    0.31
  10   3   1    2.24    0.27
 -10   3  -1    2.35    0.22
 -10   3  -1    2.22    0.23
 -10   3  -1    2.09    0.22
 -11  -3  -1    3.06    0.30
  11  -3   1    3.00    0.37
 -11   3  -1    3.30    0.28
  11   3   1    2.84    0.33
 -11   3  -1    3.33    0.29
 -11   3  -1    2.88    0.28
 -12  -3  -1    0.68    0.15
  12  -3   1    0.50    0.18
 -12   3  -1    0.78    0.15
  12   3   1    0.75    0.17
  13  -3   1    1.21    0.21
 -13  -3  -1    0.90    0.16
 -13   3  -1    1.38    0.18
 -14  -4   1    1.45    0.21
  13  -4  -1   -0.04    0.14
 -13  -4   1    0.27    0.12
 -13   4   1    0.25    0.11
 -13   4   1    0.05    0.10
 -12  -4   1    1.70    0.23
  12  -4  -1    1.80    0.26
 -12   4   1    2.40    0.23
 -12   4   1    1.96    0.22
 -11  -4   1    0.22    0.12
  11  -4  -1    0.24    0.14
 -11   4   1    0.33    0.11
 -11   4   1    0.34    0.10
 -10  -4   1    0.43    0.12
  10  -4  -1    0.40    0.13
 -10   4   1    0.43    0.11
 -10   4   1    0.38    0.10
  10   4  -1    0.47    0.12
   9  -4  -1    1.82    0.20
  -9  -4   1    2.04    0.22
  -9  -4   1    2.28    0.21
   9  -4  -1    2.09    0.28
  -9   4   1    2.09    0.20
   9   4  -1    1.99    0.24
  -9   4   1    2.08    0.19
  -9   4   1    2.20    0.22
   8  -4  -1   22.32    1.44
  -8  -4   1   22.64    1.47
  -8  -4   1   24.19    1.55
  -8   4   1   21.93    1.47
  -8   4   1   23.20    1.51
  -8   4   1   23.25    1.55
   8   4  -1   23.68    1.72
  -7  -4   1    3.08    0.23
  -7  -4   1    2.80    0.27
  -7  -4   1    3.23    0.26
   7  -4  -1    2.82    0.23
   7   4  -1    2.81    0.27
  -7   4   1    2.91    0.23
  -7   4   1    2.57    0.24
  -7   4   1    2.61    0.23
  -6  -4   1   45.67    2.90
  -6  -4   1   49.69    3.07
  -6  -4   1   41.98    2.99
  -6  -4   1   43.60    3.27
   6  -4  -1   47.38    2.86
  -6   4   1   46.71    3.07
   6   4  -1   46.78    3.40
  -6   4   1   48.35    2.91
  -6   4   1   45.79    3.00
  -5  -4   1    1.69    0.15
  -5  -4   1    2.00    0.16
  -5  -4   1    2.09    0.19
   5  -4  -1    1.65    0.17
  -5  -4   1    1.84    0.19
  -5   4   1    1.87    0.17
  -5   4   1    1.86    0.15
  -5   4   1    1.92    0.16
   5   4  -1    1.36    0.18
  -4  -4   1   10.76    0.72
  -4  -4   1    9.35    0.69
  -4  -4   1   10.33    0.76
  -4  -4   1   10.72    0.67
   4  -4  -1   10.54    0.67
  -4   4   1   11.44    0.69
   4   4  -1    8.83    0.78
  -4   4   1   11.40    0.68
  -4   4   1   11.29    0.71
  -3  -4   1    0.65    0.08
  -3  -4   1    0.69    0.08
   3  -4  -1    0.58    0.08
  -3  -4   1    0.61    0.07
  -3  -4   1    0.52    0.06
  -3   4   1    0.85    0.09
  -3   4   1    0.80    0.07
   2  -4  -1   17.56    1.08
  -2  -4   1   17.02    1.13
  -2  -4   1   18.34    1.16
  -2  -4   1   16.01    1.07
  -2   4   1   17.79    1.09
   1  -4  -1    0.28    0.05
  -1  -4   1    0.24    0.05
  -1  -4   1    0.35    0.06
   1  -4  -1    0.16    0.05
  -1  -4   1    0.21    0.05
  -1   4   1    0.31    0.04
   0  -4  -1  134.19    8.73
   0  -4  -1  135.93    8.10
   0  -4  -1  113.06    7.72
   0  -4   1  114.37    8.10
   0  -4  -1  136.70    8.29
   0  -4   1  125.79    7.72
   0   4   1  124.52    7.84
   0   4  -1  119.33    8.11
  -1  -4  -1    0.01    0.05
   1  -4   1    0.04    0.05
  -1  -4  -1    0.01    0.05
  -1  -4  -1   -0.02    0.04
   1  -4   1    0.05    0.04
  -1  -4  -1    0.04    0.05
  -1   4  -1    0.09    0.04
  -2  -4  -1   18.65    1.13
   2  -4   1   17.64    1.08
   2  -4   1   16.17    1.13
  -2  -4  -1   16.64    1.16
  -2  -4  -1   16.77    1.21
  -2   4  -1   19.55    1.13
   2   4   1   15.64    1.27
  -3  -4  -1   -0.01    0.05
  -3  -4  -1    0.00    0.04
  -3  -4  -1    0.04    0.06
   3  -4   1    0.00    0.04
   3  -4   1    0.02    0.05
  -3   4  -1    0.00    0.04
   3   4   1    0.00    0.06
  -3   4  -1    0.04    0.04
   4  -4   1   12.84    1.03
   4  -4   1   12.67    0.89
   4  -4   1   13.63    0.86
  -4  -4  -1   14.32    0.92
  -4  -4  -1   12.37    0.88
  -4  -4  -1   12.25    0.96
  -4   4  -1   15.15    0.92
   4   4   1   13.79    1.01
  -4   4  -1   14.85    0.89
  -4   4  -1   13.97    0.87
   5  -4   1    1.23    0.15
  -5  -4  -1    1.37    0.17
  -5  -4  -1    0.90    0.11
   5  -4   1    1.20    0.15
  -5  -4  -1    1.28    0.14
   5  -4   1    0.98    0.12
  -5   4  -1    1.22    0.13
  -5   4  -1    1.54    0.14
  -5   4  -1    1.38    0.15
   5   4   1    1.24    0.17
  -6  -4  -1   47.00    2.89
   6  -4   1   38.12    2.81
  -6  -4  -1   41.73    3.04
   6  -4   1   45.44    2.69
   6  -4   1   46.24    3.21
  -6   4  -1   43.97    2.82
   6   4   1   41.56    3.20
  -6   4  -1   42.56    2.73
  -6   4  -1   44.25    2.89
   7  -4   1    0.55    0.09
  -7  -4  -1    0.68    0.11
   7  -4   1    0.62    0.13
  -7   4  -1    0.67    0.10
  -7   4  -1    0.60    0.09
   7   4   1    0.44    0.11
   8  -4   1    2.89    0.24
  -8  -4  -1    3.02    0.28
   8  -4   1    3.00    0.33
  -8   4  -1    3.48    0.27
   8   4   1    3.28    0.30
  -8   4  -1    3.22    0.26
  -8   4  -1    2.93    0.25
  -9  -4  -1    2.51    0.26
   9  -4   1    2.73    0.33
   9   4   1    2.84    0.29
  -9   4  -1    2.76    0.26
  -9   4  -1    2.66    0.24
  -9   4  -1    2.93    0.25
 -10  -4  -1    4.58    0.38
 -10   4  -1    5.01    0.38
  10   4   1    4.73    0.43
 -10   4  -1    4.86    0.36
 -10   4  -1    4.16    0.36
  11  -4   1    2.21    0.33
 -11  -4  -1    1.97    0.25
 -11   4  -1    2.18    0.24
 -11   4  -1    2.76    0.24
 -11   4  -1    2.42    0.26
 -12  -4  -1    0.82    0.17
  12  -4   1    1.25    0.21
 -12   4  -1    1.32    0.18
 -13  -4  -1    1.78    0.24
  13  -4   1    2.03    0.32
 -13   4  -1    2.59    0.26
 -14  -5   1    0.29    0.12
 -14   5   1   -0.17    0.10
 -13  -5   1    0.26    0.12
  13  -5  -1   -0.03    0.16
 -13   5   1    0.05    0.11
 -13   5   1    0.08    0.09
 -12  -5   1    0.04    0.13
  12  -5  -1    0.02    0.15
 -12   5   1   -0.04    0.09
 -12   5   1   -0.03    0.10
  11  -5  -1    1.82    0.30
 -11  -5   1    2.15    0.24
 -11   5   1    2.05    0.21
 -11   5   1    1.96    0.23
  10  -5  -1   -0.08    0.11
 -10  -5   1   -0.04    0.11
 -10   5   1   -0.06    0.08
 -10   5   1   -0.09    0.07
   9  -5  -1   20.07    1.36
   9  -5  -1   22.54    1.65
  -9  -5   1   20.96    1.47
  -9   5   1   20.97    1.39
  -9   5   1   23.71    1.47
  -8  -5   1    0.36    0.11
   8  -5  -1    0.55    0.10
  -8   5   1    0.47    0.09
  -8   5   1    0.59    0.10
  -8   5   1    0.44    0.08
   7  -5  -1    5.14    0.36
  -7  -5   1    4.56    0.38
  -7  -5   1    5.21    0.40
  -7   5   1    5.05    0.35
  -7   5   1    5.04    0.37
  -7   5   1    4.77    0.35
   6  -5  -1    0.11    0.07
  -6  -5   1    0.19    0.08
  -6  -5   1    0.04    0.05
  -6  -5   1    0.17    0.07
  -6   5   1    0.11    0.06
  -6   5   1   -0.04    0.06
  -6   5   1    0.12    0.05
   6   5  -1    0.18    0.06
  -5  -5   1    7.25    0.53
  -5  -5   1    6.72    0.50
   5  -5  -1    7.05    0.47
  -5  -5   1    7.05    0.48
   5   5  -1    6.63    0.54
  -5   5   1    7.87    0.50
  -5   5   1    7.25    0.48
  -5   5   1    6.98    0.47
  -4  -5   1    0.05    0.03
   4  -5  -1   -0.05    0.05
  -4  -5   1    0.00    0.05
  -4  -5   1    0.00    0.06
  -4  -5   1    0.01    0.05
  -4   5   1   -0.04    0.03
  -4   5   1    0.02    0.04
  -3  -5   1    5.25    0.35
  -3  -5   1    4.12    0.31
   3  -5  -1    4.74    0.33
  -3  -5   1    4.90    0.34
  -3  -5   1    4.92    0.36
  -3   5   1    4.78    0.33
  -3   5   1    5.23    0.33
  -2  -5   1    0.00    0.06
  -2  -5   1    0.04    0.04
  -2  -5   1   -0.06    0.05
   2  -5  -1   -0.01    0.05
  -2   5   1    0.03    0.04
  -2   5   1    0.04    0.04
  -1  -5   1   78.47    4.77
   1  -5  -1   80.80    5.39
  -1  -5   1   77.38    5.00
   1  -5  -1   71.64    4.77
  -1   5   1   77.50    4.84
  -1   5   1   78.82    5.01
   0  -5  -1    0.05    0.05
   0  -5   1    0.20    0.06
   0  -5  -1   -0.08    0.06
   0  -5   1    0.12    0.05
   0  -5  -1   -0.14    0.05
   0   5   1    0.14    0.05
   0   5  -1    0.04    0.05
  -1  -5  -1   56.77    3.39
   1  -5   1   53.77    3.39
   1  -5   1   53.42    3.23
  -1  -5  -1   52.66    3.47
  -1  -5  -1   49.74    3.23
  -1  -5  -1   49.76    3.65
  -1   5  -1   55.31    3.39
   1   5   1   47.77    3.84
  -2  -5  -1    0.12    0.05
  -2  -5  -1    0.22    0.05
  -2  -5  -1    0.07    0.06
   2  -5   1    0.09    0.05
  -2  -5  -1    0.08    0.04
   2  -5   1    0.05    0.06
  -2   5  -1    0.10    0.03
   2   5   1    0.09    0.05
  -2   5  -1    0.10    0.05
  -3  -5  -1   10.03    0.78
  -3  -5  -1   10.61    0.73
   3  -5   1   11.39    0.70
  -3  -5  -1   11.63    0.75
   3  -5   1   10.86    0.73
   3   5   1   10.86    0.82
  -3   5  -1   10.76    0.70
  -3   5  -1   11.95    0.73
  -4  -5  -1   -0.04    0.07
  -4  -5  -1    0.02    0.04
   4  -5   1    0.03    0.05
  -4  -5  -1    0.03    0.05
   4  -5   1    0.02    0.06
   4  -5   1    0.02    0.08
  -4   5  -1    0.03    0.04
  -4   5  -1    0.03    0.05
  -4   5  -1    0.05    0.04
   4   5   1   -0.01    0.06
   5  -5   1    1.37    0.22
  -5  -5  -1    1.64    0.17
  -5  -5  -1    1.56    0.16
  -5  -5  -1    1.21    0.13
   5  -5   1    1.93    0.17
   5  -5   1    1.45    0.15
   5   5   1    1.72    0.18
  -5   5  -1    1.82    0.17
  -5   5  -1    1.65    0.15
  -5   5  -1    1.50    0.15
  -6  -5  -1    0.15    0.08
   6  -5   1    0.08    0.07
  -6  -5  -1    0.13    0.07
   6  -5   1    0.06    0.05
   6  -5   1    0.07    0.10
  -6   5  -1    0.13    0.06
  -6   5  -1    0.09    0.05
   6   5   1    0.08    0.08
  -6   5  -1    0.12    0.06
   7  -5   1    0.55    0.10
   7  -5   1    0.73    0.13
  -7  -5  -1    0.97    0.12
   7   5   1    0.65    0.11
  -7   5  -1    0.74    0.10
  -7   5  -1    0.63    0.09
  -7   5  -1    0.63    0.10
  -8  -5  -1   -0.17    0.10
   8  -5   1    0.05    0.11
   8  -5   1    0.01    0.07
  -8   5  -1   -0.02    0.07
  -8   5  -1   -0.01    0.06
   8   5   1    0.03    0.09
  -8   5  -1   -0.07    0.07
   9  -5   1   10.22    0.78
  -9  -5  -1    9.18    0.67
  -9   5  -1    8.64    0.64
  -9   5  -1    9.63    0.67
  -9   5  -1    9.46    0.65
  10  -5   1    0.11    0.14
 -10  -5  -1    0.02    0.11
 -10   5  -1    0.12    0.08
 -10   5  -1    0.08    0.09
 -10   5  -1    0.19    0.10
 -11  -5  -1    2.55    0.28
  11  -5   1    2.85    0.36
 -11   5  -1    2.91    0.27
 -11   5  -1    2.49    0.26
 -12  -5  -1    0.21    0.13
  12  -5   1    0.31    0.14
 -12   5  -1    0.03    0.11
  13  -5   1    4.33    0.46
 -13  -5  -1    4.34    0.38
 -13   5  -1    4.98    0.39
 -13  -6   1    0.61    0.14
  13  -6  -1    0.31    0.17
 -13   6   1    0.50    0.12
  12  -6  -1    2.77    0.35
 -12  -6   1    2.91    0.28
 -12   6   1    2.70    0.27
 -12   6   1    2.34    0.25
 -11  -6   1    0.87    0.16
  11  -6  -1    0.79    0.18
 -11   6   1    1.39    0.18
 -11   6   1    0.93    0.14
  10  -6  -1    3.62    0.40
 -10  -6   1    3.84    0.34
 -10   6   1    4.44    0.33
 -10   6   1    3.51    0.31
   9  -6  -1    1.57    0.26
   9  -6  -1    1.39    0.18
  -9  -6   1    1.51    0.22
  -9   6   1    1.82    0.20
  -9   6   1    1.58    0.18
   8  -6  -1   30.28    1.89
  -8  -6   1   30.31    2.03
  -8   6   1   31.69    2.03
  -8   6   1   28.60    1.92
   7  -6  -1    0.55    0.10
   7  -6  -1    0.53    0.08
  -7  -6   1    0.68    0.11
  -7   6   1    0.62    0.09
  -7   6   1    0.63    0.09
  -7   6   1    0.61    0.08
  -6  -6   1    0.97    0.13
  -6  -6   1    1.27    0.13
  -6  -6   1    1.39    0.14
   6  -6  -1    1.30    0.17
  -6   6   1    1.30    0.15
  -6   6   1    1.34    0.13
  -6   6   1    1.50    0.16
  -5  -6   1    0.15    0.06
  -5  -6   1    0.15    0.05
   5  -6  -1    0.07    0.07
  -5  -6   1    0.13    0.07
  -5   6   1    0.18    0.06
  -5   6   1    0.15    0.04
  -5   6   1    0.15    0.06
  -4  -6   1    2.30    0.21
   4  -6  -1    2.70    0.22
  -4  -6   1    3.08    0.23
  -4   6   1    2.63    0.20
  -4   6   1    2.58    0.20
  -3  -6   1    0.50    0.07
   3  -6  -1    0.55    0.08
  -3  -6   1    0.57    0.09
  -3  -6   1    0.46    0.06
  -3   6   1    0.61    0.07
  -3   6   1    0.52    0.06
  -2  -6   1   74.24    4.61
  -2  -6   1   68.33    4.39
   2  -6  -1   69.97    4.97
   2  -6  -1   70.90    4.40
  -2  -6   1   74.72    4.72
   2  -6  -1   70.51    4.61
  -2   6   1   68.25    4.46
  -2   6   1   73.84    4.62
  -1  -6   1    0.04    0.05
   1  -6  -1   -0.07    0.06
   1  -6  -1    0.00    0.04
  -1  -6   1    0.04    0.06
  -1   6   1    0.02    0.03
   1   6  -1   -0.09    0.05
  -1   6   1   -0.02    0.04
   0  -6   1  167.54   10.27
   0  -6  -1  145.38   11.07
   0  -6  -1  158.58    9.79
   0  -6  -1  170.43   10.27
   0  -6   1  152.84    9.79
   0   6   1  152.66    9.94
   0   6  -1  166.99   10.29
  -1  -6  -1    2.44    0.20
  -1  -6  -1    1.93    0.17
  -1  -6  -1    1.77    0.17
   1  -6   1    2.34    0.19
  -1  -6  -1    2.15    0.19
   1  -6   1    1.94    0.19
   1   6   1    2.00    0.19
  -2  -6  -1    5.07    0.33
   2  -6   1    4.69    0.33
  -2  -6  -1    4.10    0.33
  -2  -6  -1    4.27    0.30
   2  -6   1    5.24    0.32
  -2  -6  -1    5.02    0.34
   2   6   1    3.91    0.35
  -2   6  -1    4.60    0.30
  -2   6  -1    4.48    0.32
   3  -6   1    0.49    0.08
  -3  -6  -1    0.36    0.05
  -3  -6  -1    0.43    0.06
   3  -6   1    0.41    0.07
  -3  -6  -1    0.50    0.08
  -3  -6  -1    0.41    0.07
  -3   6  -1    0.41    0.06
   3   6   1    0.31    0.06
  -3   6  -1    0.47    0.06
  -4  -6  -1    3.36    0.28
  -4  -6  -1    4.09    0.29
   4  -6   1    3.34    0.27
   4  -6   1    3.11    0.32
  -4  -6  -1    3.48    0.26
   4  -6   1    4.04    0.27
  -4   6  -1    3.71    0.27
  -4   6  -1    3.63    0.25
   4   6   1    3.85    0.29
   5  -6   1    0.85    0.13
   5  -6   1    0.67    0.09
  -5  -6  -1    0.67    0.10
  -5  -6  -1    0.80    0.09
  -5  -6  -1    0.88    0.11
   5  -6   1    0.73    0.10
  -5   6  -1    0.82    0.12
   5   6   1    0.87    0.14
  -5   6  -1    0.88    0.13
  -5   6  -1    1.04    0.11
  -6  -6  -1    7.08    0.56
   6  -6   1    6.94    0.52
   6  -6   1    8.21    0.62
   6  -6   1    7.76    0.51
  -6  -6  -1    8.19    0.55
  -6   6  -1    7.55    0.52
  -6   6  -1    7.84    0.51
  -6   6  -1    7.78    0.54
   7  -6   1    1.74    0.22
   7  -6   1    0.96    0.13
  -7  -6  -1    1.14    0.15
  -7   6  -1    1.07    0.16
  -7   6  -1    1.19    0.15
  -7   6  -1    1.24    0.15
   8  -6   1    0.42    0.13
  -8  -6  -1    0.26    0.12
   8  -6   1    0.32    0.09
  -8   6  -1    0.33    0.09
  -8   6  -1    0.32    0.08
  -8   6  -1    0.38    0.09
   9  -6   1    1.42    0.18
   9  -6   1    1.67    0.23
  -9  -6  -1    1.56    0.22
  -9   6  -1    1.81    0.19
  -9   6  -1    1.95    0.21
  -9   6  -1    1.69    0.19
  10  -6   1    1.68    0.25
 -10  -6  -1    1.63    0.23
 -10   6  -1    1.60    0.20
 -10   6  -1    1.86    0.21
 -11  -6  -1    0.46    0.15
  11  -6   1    0.48    0.18
 -11   6  -1    0.72    0.13
  12  -6   1    0.36    0.15
 -12  -6  -1    0.24    0.14
 -12   6  -1    0.05    0.11
  13  -6   1    1.00    0.22
 -13  -6  -1    1.38    0.21
 -13   6  -1    1.62    0.21
  13  -7  -1    1.32    0.23
 -13  -7   1    0.83    0.16
  12  -7  -1    1.37    0.23
 -12  -7   1    1.17    0.17
 -12   7   1    1.33    0.20
 -11  -7   1    0.49    0.13
  11  -7  -1    0.28    0.16
 -11   7   1    0.75    0.12
  10  -7  -1    1.82    0.19
 -10  -7   1    1.68    0.23
  10  -7  -1    1.48    0.23
 -10   7   1    1.80    0.19
 -10   7   1    1.69    0.20
   9  -7  -1   -0.03    0.12
   9  -7  -1    0.04    0.09
  -9  -7   1    0.08    0.11
  -9   7   1    0.04    0.07
  -9   7   1    0.13    0.08
   8  -7  -1    4.20    0.35
   8  -7  -1    4.36    0.35
  -8  -7   1    4.99    0.38
   8  -7  -1    4.95    0.44
  -8   7   1    4.63    0.34
  -8   7   1    5.20    0.37
   6  -7  -1    0.21    0.07
  -6  -7   1    0.19    0.06
  -6  -7   1    0.35    0.09
   6  -7  -1    0.20    0.08
  -6   7   1    0.30    0.07
  -6   7   1    0.26    0.05
  -6   7   1    0.29    0.07
   5  -7  -1    0.97    0.15
  -5   7   1    1.44    0.13
  -5   7   1    1.15    0.13
  -4  -7   1    0.65    0.09
   4  -7  -1    0.53    0.09
  -4  -7   1    0.81    0.10
   4  -7  -1    0.76    0.10
  -4  -7   1    0.60    0.08
  -4   7   1    0.71    0.10
  -4   7   1    0.70    0.10
   3  -7  -1   -0.06    0.06
  -3  -7   1   -0.02    0.04
  -3  -7   1    0.04    0.06
   3  -7  -1   -0.03    0.06
   3  -7  -1    0.04    0.05
  -3  -7   1    0.01    0.07
  -3   7   1    0.02    0.04
  -3   7   1   -0.01    0.04
  -2  -7   1    0.08    0.06
  -2  -7   1    0.06    0.05
   2  -7  -1   -0.05    0.06
   2  -7  -1   -0.07    0.06
  -2  -7   1    0.00    0.07
   2  -7  -1    0.06    0.05
  -2   7   1    0.05    0.04
  -2   7   1    0.07    0.04
   1  -7  -1    2.12    0.21
   1   7  -1    2.62    0.21
   0  -7  -1    0.64    0.08
   0  -7   1    0.48    0.08
   0  -7   1    0.65    0.09
   0  -7  -1    0.54    0.09
   0  -7  -1    0.40    0.07
   0   7  -1    0.68    0.08
   0   7   1    0.60    0.08
   0   7   1    0.53    0.06
  -2  -7  -1    0.13    0.05
   2  -7   1    0.05    0.06
  -2  -7  -1    0.07    0.07
  -2  -7  -1    0.15    0.07
   2  -7   1    0.11    0.07
  -2  -7  -1    0.11    0.05
  -2   7  -1    0.11    0.05
   3  -7   1    2.11    0.18
  -3  -7  -1    1.81    0.15
  -3  -7  -1    1.79    0.17
  -3  -7  -1    1.98    0.19
  -3  -7  -1    1.51    0.14
   3  -7   1    1.77    0.17
  -3   7  -1    1.68    0.16
   4  -7   1    1.00    0.18
  -4  -7  -1    1.36    0.17
  -4  -7  -1    1.07    0.12
  -4  -7  -1    1.29    0.14
   4  -7   1    1.27    0.14
   4  -7   1    1.47    0.16
  -4   7  -1    1.30    0.13
   5  -7   1    0.74    0.12
  -5  -7  -1    0.63    0.08
  -5  -7  -1    0.71    0.11
   5  -7   1    0.77    0.11
  -5  -7  -1    0.55    0.08
   5  -7   1    0.66    0.09
  -5   7  -1    0.74    0.09
  -5   7  -1    0.82    0.10
  -6  -7  -1    1.41    0.19
   6  -7   1    1.33    0.20
  -6  -7  -1    1.09    0.14
   6  -7   1    1.12    0.14
   6  -7   1    1.29    0.17
  -6   7  -1    1.45    0.16
  -6   7  -1    1.39    0.14
   7  -7   1    0.16    0.11
  -7  -7  -1    0.17    0.11
   7  -7   1    0.18    0.08
  -7   7  -1    0.08    0.07
  -7   7  -1    0.11    0.06
   8  -7   1    1.36    0.19
  -8  -7  -1    1.24    0.16
   8  -7   1    1.13    0.14
  -8   7  -1    1.13    0.15
  -8   7  -1    1.34    0.16
  -9  -7  -1    1.11    0.16
   9  -7   1    1.18    0.14
   9  -7   1    1.25    0.20
  -9   7  -1    1.31    0.18
  -9   7  -1    1.04    0.13
 -10  -7  -1    1.82    0.25
 -10   7  -1    2.01    0.22
 -11  -7  -1    0.31    0.15
  11  -7   1    0.52    0.18
 -11   7  -1    0.74    0.13
 -12  -7  -1    0.16    0.13
  12  -7   1    0.47    0.15
 -12   7  -1    0.21    0.12
  12  -8  -1    2.15    0.31
 -12  -8   1    1.51    0.22
  11  -8  -1    0.18    0.15
 -11  -8   1    0.17    0.13
 -11   8   1    0.02    0.10
  10  -8  -1    2.15    0.22
 -10  -8   1    1.73    0.24
  10  -8  -1    2.11    0.31
 -10   8   1    2.24    0.23
   9  -8  -1    1.24    0.19
   9  -8  -1    1.24    0.20
  -9  -8   1    1.42    0.21
  -9   8   1    1.86    0.20
  -8  -8   1   11.95    0.87
   8  -8  -1   11.52    0.84
   8  -8  -1   12.89    0.82
   8  -8  -1   12.43    0.98
  -8   8   1   13.84    0.87
  -7  -8   1    1.29    0.19
   7  -8  -1    1.20    0.17
   7  -8  -1    1.00    0.16
  -7   8   1    1.24    0.17
  -7   8   1    1.23    0.14
   6  -8  -1   10.63    0.66
  -6  -8   1    9.19    0.69
   6  -8  -1    9.56    0.67
  -6   8   1    9.91    0.65
  -6   8   1    9.24    0.66
  -6   8   1   10.84    0.69
   5  -8  -1    0.23    0.08
  -5  -8   1    0.25    0.07
  -5  -8   1    0.32    0.09
   5  -8  -1    0.26    0.08
  -5   8   1    0.31    0.06
  -5   8   1    0.27    0.05
   4  -8  -1    8.28    0.59
   4  -8  -1    7.73    0.57
  -4  -8   1    8.50    0.56
   4  -8  -1    8.42    0.55
  -4  -8   1    8.56    0.58
  -4   8   1    7.92    0.55
  -4   8   1    7.95    0.54
   3  -8  -1   -0.06    0.06
  -3  -8   1   -0.03    0.07
  -3  -8   1    0.07    0.06
   3  -8  -1    0.02    0.07
  -3  -8   1    0.00    0.05
   3  -8  -1    0.07    0.05
  -3   8   1    0.03    0.04
  -3   8   1    0.07    0.04
  -2  -8   1   21.00    1.37
   2  -8  -1   21.58    1.37
  -2  -8   1   21.32    1.30
   2  -8  -1   22.35    1.31
   2  -8  -1   18.46    1.46
  -2   8   1   20.63    1.36
  -2   8   1   20.72    1.32
  -1  -8   1    0.18    0.06
  -1  -8   1    0.12    0.07
  -1   8   1    0.10    0.04
   1   8  -1   -0.01    0.06
  -1   8   1    0.11    0.05
   0  -8  -1   60.37    3.56
   0  -8  -1   58.43    3.40
   0  -8   1   54.38    3.56
   0  -8   1   57.25    3.40
   0   8  -1   53.80    3.57
   0   8   1   48.34    3.44
   0   8   1   52.00    3.56
  -1  -8  -1   -0.05    0.06
   1  -8   1   -0.08    0.06
   1  -8   1   -0.09    0.07
  -1   8  -1    0.09    0.06
  -2  -8  -1    9.64    0.64
   2  -8   1    9.50    0.61
  -2  -8  -1   10.08    0.66
  -2  -8  -1    9.02    0.60
   2  -8   1    9.66    0.64
  -2   8  -1    8.62    0.63
   3  -8   1    0.07    0.06
   3  -8   1    0.02    0.06
   3  -8   1   -0.01    0.07
  -3  -8  -1   -0.03    0.07
  -3  -8  -1   -0.03    0.06
  -3  -8  -1   -0.08    0.04
  -3   8  -1   -0.01    0.05
   4  -8   1    8.76    0.59
  -4  -8  -1    8.80    0.59
  -4  -8  -1    8.65    0.61
   4  -8   1    8.04    0.67
   4  -8   1    9.31    0.58
  -4   8  -1    8.64    0.59
  -5  -8  -1    0.43    0.09
  -5  -8  -1    0.38    0.07
   5  -8   1    0.40    0.11
   5  -8   1    0.32    0.09
   5  -8   1    0.26    0.07
  -5   8  -1    0.33    0.08
  -5   8  -1    0.35    0.07
  -6  -8  -1    8.34    0.61
   6  -8   1    8.24    0.68
   6  -8   1    8.97    0.58
   6  -8   1    8.16    0.59
  -6   8  -1    9.17    0.60
  -6   8  -1    8.42    0.58
   7  -8   1    0.26    0.12
  -7  -8  -1    0.14    0.10
   7  -8   1    0.14    0.09
  -7   8  -1    0.11    0.06
  -7   8  -1    0.17    0.08
   8  -8   1    1.80    0.20
   8  -8   1    1.86    0.27
  -8  -8  -1    1.89    0.22
  -8   8  -1    1.67    0.21
  -8   8  -1    1.74    0.19
  -9  -8  -1    0.10    0.12
   9  -8   1    0.04    0.09
   9  -8   1    0.14    0.14
  -9   8  -1    0.22    0.10
  10  -8   1    5.21    0.50
 -10  -8  -1    4.61    0.42
 -10   8  -1    5.58    0.41
 -11  -8  -1    1.15    0.18
 -11   8  -1    1.36    0.20
  12  -8   1    0.94    0.19
 -12  -8  -1    0.55    0.15
 -12   8  -1    0.61    0.14
  12  -9  -1    0.37    0.14
 -12  -9   1    0.21    0.13
 -11  -9   1    1.81    0.24
  11  -9  -1    1.96    0.30
 -11   9   1    1.82    0.22
 -10  -9   1    0.06    0.13
  10  -9  -1    0.16    0.10
  10  -9  -1    0.06    0.14
 -10   9   1    0.08    0.10
   9  -9  -1   15.80    1.18
  -9  -9   1   14.19    1.05
   9  -9  -1   13.50    0.98
  -9   9   1   17.05    1.05
   8  -9  -1    0.04    0.07
   8  -9  -1    0.12    0.12
   8  -9  -1    0.08    0.10
  -8   9   1    0.15    0.08
  -7  -9   1   12.52    0.90
   7  -9  -1   13.81    0.85
   7  -9  -1   12.28    0.87
  -7   9   1   13.40    0.90
   6  -9  -1   -0.03    0.07
  -6  -9   1    0.05    0.07
   6  -9  -1    0.07    0.08
  -6  -9   1    0.05    0.09
  -6   9   1    0.04    0.06
  -5  -9   1   10.97    0.82
  -5  -9   1   11.99    0.80
   5  -9  -1   12.57    0.86
   5  -9  -1   12.52    0.81
   5  -9  -1   13.18    0.78
  -5   9   1   10.57    0.79
   4  -9  -1   -0.05    0.07
  -4  -9   1    0.01    0.08
  -4  -9   1   -0.01    0.07
   4  -9  -1    0.02    0.07
   4  -9  -1   -0.02    0.06
  -4   9   1   -0.01    0.04
  -3  -9   1    6.98    0.47
   3  -9  -1    7.11    0.47
  -3  -9   1    5.77    0.43
   3  -9  -1    6.95    0.45
  -3   9   1    6.03    0.45
   2  -9  -1    0.09    0.08
   2  -9  -1    0.06    0.08
  -2  -9   1    0.30    0.07
  -2  -9   1    0.15    0.08
  -2   9   1    0.14    0.06
   2   9  -1    0.11    0.07
   1  -9  -1   76.21    4.80
   1  -9  -1   83.75    5.04
  -1  -9   1   79.93    4.80
  -1  -9   1   84.69    5.04
  -1   9   1   69.52    5.04
   1   9  -1   72.58    5.04
   0  -9   1   -0.01    0.07
   0  -9  -1   -0.13    0.07
   0  -9  -1   -0.18    0.07
   0  -9   1    0.07    0.07
   0   9   1   -0.09    0.06
   0   9  -1   -0.05    0.06
  -1  -9  -1   49.57    2.92
   1  -9   1   46.64    2.93
  -1  -9  -1   51.12    3.07
   1  -9   1   47.79    3.07
  -1   9  -1   41.99    3.07
   1   9   1   46.27    3.07
  -2  -9  -1    0.32    0.07
  -2  -9  -1    0.44    0.10
   2  -9   1    0.23    0.08
   2  -9   1    0.36    0.09
  -2  -9  -1    0.47    0.09
  -2   9  -1    0.40    0.07
  -3  -9  -1    6.76    0.45
   3  -9   1    6.06    0.44
  -3  -9  -1    6.43    0.46
   3  -9   1    6.95    0.45
  -3   9  -1    5.39    0.44
   4  -9   1   -0.03    0.07
   4  -9   1   -0.09    0.07
  -4  -9  -1    0.02    0.08
  -4  -9  -1   -0.04    0.07
   4  -9   1    0.05    0.07
  -4   9  -1    0.01    0.05
   5  -9   1    6.65    0.43
  -5  -9  -1    6.16    0.46
   5  -9   1    6.19    0.44
   5  -9   1    5.70    0.50
  -5  -9  -1    6.06    0.43
  -5   9  -1    5.87    0.43
   6  -9   1   -0.09    0.08
   6  -9   1    0.04    0.10
   6  -9   1   -0.02    0.07
  -6  -9  -1   -0.04    0.09
  -6   9  -1    0.05    0.05
  -6   9  -1   -0.01    0.07
   7  -9   1    3.32    0.28
   7  -9   1    3.42    0.33
  -7  -9  -1    3.27    0.30
  -7   9  -1    3.41    0.28
  -7   9  -1    3.29    0.27
  -8  -9  -1    0.04    0.11
   8  -9   1   -0.02    0.09
   8  -9   1    0.17    0.12
  -8   9  -1    0.01    0.08
   9  -9   1    4.00    0.40
   9  -9   1    3.57    0.31
  -9  -9  -1    3.66    0.33
  -9   9  -1    4.16    0.33
  10  -9   1    0.27    0.16
 -10  -9  -1    0.34    0.14
 -10   9  -1    0.26    0.11
 -11  -9  -1    2.77    0.29
 -11   9  -1    3.31    0.29
  11 -10  -1    0.49    0.16
 -11 -10   1    0.64    0.13
  10 -10  -1    0.14    0.10
  10 -10  -1    0.20    0.14
 -10 -10   1    0.07    0.13
 -10  10   1    0.15    0.10
  -9 -10   1    1.47    0.22
   9 -10  -1    1.63    0.26
   9 -10  -1    1.47    0.20
  -9  10   1    1.80    0.21
   8 -10  -1    3.81    0.32
  -8 -10   1    3.91    0.35
   8 -10  -1    4.06    0.33
   8 -10  -1    4.47    0.40
  -8  10   1    4.22    0.33
   7 -10  -1    0.25    0.09
   7 -10  -1    0.13    0.10
   7 -10  -1    0.43    0.12
  -7 -10   1    0.23    0.11
  -7  10   1    0.21    0.08
  -6 -10   1    0.01    0.07
  -6 -10   1   -0.01    0.10
   6 -10  -1    0.05    0.08
   6 -10  -1    0.08    0.09
  -6  10   1    0.06    0.07
  -5 -10   1   -0.03    0.08
   5 -10  -1   -0.04    0.08
  -5 -10   1    0.08    0.09
   5 -10  -1    0.07    0.08
  -4 -10   1    0.12    0.09
   4 -10  -1    0.07    0.08
   4 -10  -1    0.08    0.08
  -4 -10   1    0.11    0.09
  -4  10   1    0.12    0.05
  -3 -10   1    0.01    0.06
   3 -10  -1   -0.02    0.07
  -3 -10   1   -0.03    0.07
   3 -10  -1   -0.08    0.07
  -3  10   1   -0.06    0.05
   3  10  -1   -0.02    0.07
   2 -10  -1    5.90    0.42
  -2 -10   1    6.83    0.43
   2 -10  -1    6.23    0.43
  -2 -10   1    5.44    0.40
   2  10  -1    5.48    0.43
  -2  10   1    5.47    0.41
  -1 -10   1    0.12    0.08
  -1 -10   1    0.10    0.07
  -1  10   1    0.11    0.06
   0 -10  -1   13.79    1.04
   0 -10   1   17.48    1.09
   0 -10   1   18.32    1.04
   0 -10  -1   15.57    1.09
   0  10  -1   16.38    1.09
  -1 -10  -1    1.06    0.13
   1 -10   1    0.76    0.12
   1 -10   1    0.74    0.13
  -1 -10  -1    0.81    0.11
  -1  10  -1    1.32    0.15
   1  10   1    1.01    0.12
  -2 -10  -1    4.22    0.32
  -2 -10  -1    4.03    0.30
   2 -10   1    4.22    0.32
   2 -10   1    4.28    0.32
  -2  10  -1    3.96    0.31
   3 -10   1    0.00    0.07
   3 -10   1   -0.02    0.08
  -3 -10  -1   -0.04    0.07
  -3 -10  -1   -0.05    0.09
  -3  10  -1    0.07    0.06
  -4 -10  -1    1.63    0.19
   4 -10   1    1.51    0.19
  -4 -10  -1    1.56    0.18
   4 -10   1    1.37    0.18
  -4  10  -1    1.53    0.16
   5 -10   1    0.16    0.09
  -5 -10  -1    0.13    0.08
   5 -10   1    0.18    0.08
  -5 -10  -1    0.29    0.10
  -5  10  -1    0.22    0.06
   6 -10   1    1.42    0.20
   6 -10   1    1.19    0.16
   6 -10   1    1.21    0.15
  -6 -10  -1    1.21    0.19
  -6  10  -1    1.07    0.14
  -6  10  -1    1.18    0.16
   7 -10   1    0.50    0.13
  -7 -10  -1    0.51    0.12
   7 -10   1    0.40    0.11
  -7  10  -1    0.46    0.10
   8 -10   1    0.03    0.10
   8 -10   1    0.03    0.12
  -8 -10  -1   -0.08    0.12
  -8  10  -1    0.06    0.08
  -9 -10  -1    0.67    0.15
   9 -10   1    0.90    0.18
   9 -10   1    0.74    0.14
  -9  10  -1    0.98    0.15
 -10 -10  -1   -0.02    0.13
  10 -10   1   -0.01    0.10
 -10  10  -1    0.01    0.09
 -11 -10  -1    0.86    0.15
 -11  10  -1    0.97    0.15
  11 -11  -1    2.21    0.29
  10 -11  -1    0.12    0.10
 -10 -11   1    0.30    0.14
  10 -11  -1    0.52    0.14
   9 -11  -1    1.06    0.16
  -9 -11   1    1.01    0.18
   9 -11  -1    1.71    0.26
  -9  11   1    1.54    0.19
   8 -11  -1    1.34    0.19
   8 -11  -1    1.52    0.23
   8 -11  -1    1.04    0.15
  -8 -11   1    1.32    0.17
  -8  11   1    1.36    0.17
   7 -11  -1    1.47    0.19
   7 -11  -1    1.34    0.18
  -7 -11   1    1.05    0.16
  -7  11   1    1.28    0.18
   6 -11  -1   -0.03    0.08
  -6 -11   1    0.08    0.08
   6 -11  -1    0.05    0.09
  -6 -11   1   -0.01    0.10
  -6  11   1   -0.01    0.07
   5 -11  -1    2.41    0.24
   5 -11  -1    2.80    0.25
  -5 -11   1    2.40    0.24
   4 -11  -1   -0.06    0.08
   4 -11  -1    0.02    0.09
  -4 -11   1   -0.06    0.08
   4  11  -1    0.04    0.08
  -4  11   1   -0.06    0.05
   3 -11  -1    0.45    0.10
  -3 -11   1    0.43    0.10
   3 -11  -1    0.46    0.10
  -3 -11   1    0.30    0.08
   3  11  -1    0.46    0.09
  -3  11   1    0.33    0.07
   2 -11  -1   -0.13    0.08
  -2 -11   1    0.01    0.07
   2 -11  -1   -0.10    0.08
  -2 -11   1    0.00    0.08
   2  11  -1    0.01    0.07
  -2  11   1    0.05    0.06
   1 -11  -1    0.27    0.09
   1 -11  -1    0.17    0.09
  -1  11   1    0.22    0.07
   0 -11   1    0.29    0.09
   0 -11  -1    0.10    0.10
   0 -11   1    0.34    0.09
   0 -11  -1    0.13    0.09
   0  11   1    0.34    0.08
   0  11  -1    0.23    0.08
  -1 -11  -1    1.25    0.14
  -1 -11  -1    1.65    0.19
  -1  11  -1    1.59    0.17
   1  11   1    0.98    0.13
   2 -11   1    0.01    0.08
   2 -11   1   -0.07    0.08
  -2 -11  -1    0.00    0.08
  -2 -11  -1   -0.03    0.06
  -2  11  -1   -0.02    0.06
   2  11   1   -0.06    0.07
   3 -11   1    1.87    0.20
   3 -11   1    2.09    0.20
  -3 -11  -1    2.07    0.21
  -3  11  -1    1.76    0.18
  -4 -11  -1    0.24    0.10
   4 -11   1    0.21    0.09
  -4 -11  -1    0.14    0.09
   4 -11   1    0.15    0.09
  -4  11  -1    0.21    0.07
  -5 -11  -1    2.33    0.22
   5 -11   1    2.49    0.22
   5 -11   1    2.06    0.21
  -5 -11  -1    2.08    0.23
  -5  11  -1    2.01    0.19
   6 -11   1    0.10    0.09
  -6 -11  -1    0.20    0.10
   6 -11   1    0.20    0.08
  -6  11  -1    0.12    0.08
  -6  11  -1    0.20    0.06
  -7 -11  -1    0.86    0.14
   7 -11   1    0.91    0.14
  -7  11  -1    0.90    0.13
  -8 -11  -1    0.10    0.13
   8 -11   1    0.21    0.11
  -8  11  -1    0.24    0.09
  -9 -11  -1    1.59    0.23
   9 -11   1    1.79    0.22
  -9  11  -1    2.31    0.23
  10 -11   1    0.37    0.12
 -10 -11  -1    0.20    0.13
 -10  11  -1    0.51    0.12
 -10 -12   1    2.42    0.25
  10 -12  -1    2.07    0.22
   9 -12  -1   -0.05    0.10
  -9 -12   1   -0.02    0.13
   8 -12  -1    7.81    0.57
  -8 -12   1    8.49    0.61
  -8  12   1    8.53    0.60
   7 -12  -1    0.01    0.10
  -7 -12   1   -0.01    0.12
   7 -12  -1    0.00    0.09
  -7  12   1   -0.02    0.07
  -6 -12   1    7.19    0.51
   6 -12  -1    6.39    0.49
   6 -12  -1    7.19    0.51
  -6  12   1    7.04    0.51
   5 -12  -1   -0.07    0.09
  -5 -12   1   -0.04    0.08
   5 -12  -1    0.03    0.09
   5  12  -1   -0.01    0.09
   4 -12  -1    4.81    0.38
  -4 -12   1    5.03    0.39
   4 -12  -1    4.65    0.37
   4  12  -1    5.13    0.39
   3 -12  -1   -0.07    0.09
   3 -12  -1    0.00    0.09
  -3 -12   1    0.02    0.09
  -3  12   1    0.03    0.06
   3  12  -1    0.09    0.08
  -2 -12   1    5.67    0.40
  -2 -12   1    5.13    0.37
   2 -12  -1    4.92    0.39
   2 -12  -1    5.38    0.41
   2  12  -1    5.51    0.40
  -2  12   1    4.69    0.38
  -1 -12   1    0.16    0.10
  -1 -12   1    0.35    0.09
  -1  12   1    0.15    0.07
   1  12  -1    0.04    0.09
   0 -12   1   27.59    1.69
   0 -12  -1   24.17    1.60
   0 -12   1   26.69    1.60
   0 -12  -1   26.53    1.69
   0  12   1   22.67    1.68
   0  12  -1   25.14    1.68
   1 -12   1   -0.12    0.09
   1 -12   1   -0.01    0.08
  -1 -12  -1    0.15    0.09
  -1 -12  -1   -0.04    0.08
   1  12   1   -0.20    0.08
  -1  12  -1    0.07    0.08
   2 -12   1    6.90    0.49
   2 -12   1    6.98    0.47
  -2 -12  -1    7.03    0.49
   2  12   1    6.06    0.48
  -2  12  -1    6.46    0.47
   3 -12   1   -0.05    0.09
  -3 -12  -1    0.01    0.09
   3 -12   1   -0.03    0.08
   3  12   1    0.04    0.08
  -3  12  -1    0.09    0.06
   4 -12   1    6.02    0.42
  -4 -12  -1    5.89    0.43
   4 -12   1    5.52    0.42
  -4  12  -1    5.53    0.41
   5 -12   1   -0.03    0.09
  -5 -12  -1   -0.02    0.08
   5 -12   1    0.02    0.09
  -5  12  -1   -0.02    0.06
   6 -12   1    4.44    0.35
  -6 -12  -1    4.39    0.37
   6 -12   1    4.41    0.35
  -6  12  -1    4.79    0.36
  -7 -12  -1   -0.09    0.13
   7 -12   1   -0.01    0.10
  -7  12  -1    0.05    0.08
   8 -12   1    3.08    0.29
  -8 -12  -1    3.35    0.31
  -8  12  -1    3.57    0.29
  -9 -12  -1   -0.01    0.12
   9 -12   1    0.00    0.10
  -9  12  -1    0.18    0.10
   9 -13  -1    0.22    0.11
   9  13  -1    0.15    0.13
   8 -13  -1    0.13    0.10
   8  13  -1    0.11    0.12
  -8  13   1    0.23    0.08
   7 -13  -1    0.45    0.12
   7 -13  -1    0.62    0.12
  -7  13   1    0.43    0.10
   7  13  -1    0.52    0.13
  -6 -13   1    0.08    0.09
   6 -13  -1    0.28    0.10
   6 -13  -1    0.14    0.11
   6  13  -1    0.22    0.11
  -6  13   1    0.14    0.08
  -5 -13   1    0.70    0.13
   5 -13  -1    0.73    0.14
   5 -13  -1    0.77    0.13
   5  13  -1    0.69    0.13
   4 -13  -1    0.08    0.10
  -4 -13   1    0.02    0.10
   4 -13  -1    0.06    0.10
   4  13  -1    0.12    0.09
  -3 -13   1    0.17    0.11
   3 -13  -1    0.16    0.11
   3 -13  -1    0.10    0.11
   3  13  -1    0.09    0.09
   2 -13  -1    0.07    0.10
  -2 -13   1    0.32    0.10
   2 -13  -1    0.16    0.11
  -2 -13   1    0.41    0.12
  -2  13   1    0.41    0.08
   2  13  -1    0.34    0.10
  -1 -13   1   13.13    0.82
   1 -13  -1   11.84    0.83
  -1 -13   1   11.41    0.78
   1 -13  -1   12.23    0.79
   1  13  -1   11.89    0.82
  -1  13   1   11.00    0.81
   0 -13  -1   -0.16    0.10
   0 -13   1   -0.12    0.10
   0 -13   1    0.08    0.10
   0  13  -1   -0.12    0.09
   0  13   1   -0.04    0.08
  -1 -13  -1    7.08    0.51
  -1 -13  -1    6.60    0.47
   1 -13   1    6.98    0.50
   1 -13   1    7.06    0.48
  -1  13  -1    6.51    0.49
   1  13   1    6.77    0.50
   2 -13   1    0.12    0.10
   2 -13   1    0.10    0.10
  -2 -13  -1    0.22    0.10
   2  13   1    0.19    0.10
  -2  13  -1    0.21    0.08
  -3 -13  -1    0.35    0.11
   3 -13   1    0.22    0.10
   3 -13   1    0.20    0.10
   3  13   1    0.26    0.10
   4 -13   1    0.12    0.10
  -4 -13  -1    0.16    0.10
   4 -13   1    0.22    0.10
  -4  13  -1    0.21    0.07
   4  13   1    0.41    0.11
   5 -13   1   -0.01    0.10
   5 -13   1    0.03    0.09
   5  13   1   -0.03    0.10
   6 -13   1    0.23    0.11
   6 -13   1    0.26    0.10
  -6  13  -1    0.14    0.09
   7 -13   1    0.09    0.11
  -7  13  -1    0.06    0.09
  -8 -13  -1    0.14    0.13
   8 -13   1    0.27    0.11
  -8  13  -1    0.53    0.10
   8 -14  -1    0.06    0.10
   8  14  -1    0.17    0.12
   7 -14  -1    0.15    0.10
   7 -14  -1    0.20    0.10
   7  14  -1    0.28    0.11
  -7  14   1    0.10    0.09
   6 -14  -1    0.38    0.10
   6 -14  -1    0.26    0.11
  -6  14   1    0.14    0.09
   6  14  -1    0.42    0.12
   5 -14  -1    0.25    0.10
  -5 -14   1    0.22    0.10
   5 -14  -1    0.21    0.11
   5  14  -1    0.19    0.11
   4 -14  -1    0.16    0.11
  -4 -14   1    0.05    0.10
   4 -14  -1    0.13    0.10
   4  14  -1    0.13    0.10
   3 -14  -1   -0.01    0.10
   3 -14  -1    0.02    0.10
  -3 -14   1    0.03    0.10
   3  14  -1    0.03    0.10
   2 -14  -1    0.66    0.13
  -2 -14   1    1.03    0.15
   2 -14  -1    0.68    0.14
   2  14  -1    0.83    0.13
  -1 -14   1    0.01    0.09
  -1 -14   1    0.07    0.10
   1 -14  -1   -0.23    0.10
  -1  14   1   -0.08    0.07
   1  14  -1   -0.03    0.09
   0 -14  -1    0.60    0.13
   0 -14  -1    0.39    0.11
   0  14   1    0.51    0.11
   0  14  -1    0.68    0.11
   1 -14   1    0.30    0.11
   1 -14   1    0.09    0.11
  -1 -14  -1    0.08    0.10
  -1  14  -1    0.18    0.08
   1  14   1   -0.06    0.08
   2 -14   1    0.10    0.10
  -2 -14  -1    0.15    0.10
   2 -14   1    0.25    0.10
   2  14   1    0.12    0.09
  -2  14  -1    0.23    0.07
  -3 -14  -1    0.19    0.10
   3 -14   1    0.10    0.10
   3 -14   1    0.16    0.11
   3  14   1    0.05    0.10
  -3  14  -1    0.10    0.07
   4 -14   1    0.50    0.13
  -4 -14  -1    0.43    0.11
   4 -14   1    0.46    0.12
   4  14   1    0.47    0.11
   5 -14   1   -0.02    0.09
   5 -14   1    0.02    0.10
   5  14   1    0.08    0.10
  -5  14  -1   -0.03    0.08
   6 -14   1    0.50    0.12
   6 -14   1    0.24    0.11
  -6  14  -1    0.40    0.10
   6  14   1    0.61    0.12
   7 -14   1    0.00    0.10
   7  14   1    0.07    0.12
  -7  14  -1   -0.08    0.08
   6 -15  -1   -0.06    0.09
   6 -15  -1    0.04    0.10
   6  15  -1    0.07    0.11
  -5 -15   1    1.33    0.20
   5 -15  -1    1.01    0.16
   5 -15  -1    1.18    0.17
   5  15  -1    1.37    0.20
   4 -15  -1   -0.12    0.10
  -4 -15   1    0.04    0.10
   4 -15  -1    0.00    0.10
   4  15  -1    0.20    0.10
   3 -15  -1    1.15    0.16
  -3 -15   1    1.07    0.16
   3 -15  -1    1.08    0.17
   3  15  -1    1.35    0.18
   2 -15  -1   -0.12    0.11
  -2 -15   1   -0.03    0.11
   2 -15  -1   -0.25    0.09
   2  15  -1   -0.08    0.09
  -1 -15   1    3.06    0.27
   1 -15  -1    2.56    0.26
   1 -15  -1    2.11    0.24
   1  15  -1    2.16    0.23
   0 -15  -1    0.14    0.10
   0 -15   1    0.03    0.10
   0 -15  -1   -0.16    0.11
   0 -15   1    0.03    0.11
   0  15   1   -0.01    0.08
   0  15  -1    0.12    0.09
   1 -15   1    5.32    0.41
   1 -15   1    4.98    0.38
  -1 -15  -1    5.42    0.41
  -1  15  -1    4.76    0.38
   1  15   1    4.92    0.40
   2 -15   1   -0.02    0.10
  -2 -15  -1   -0.01    0.10
   2 -15   1   -0.03    0.09
   2  15   1   -0.04    0.09
  -2  15  -1    0.00    0.07
   3 -15   1    2.13    0.23
  -3 -15  -1    2.29    0.25
   3 -15   1    2.26    0.24
   3  15   1    2.40    0.24
  -4 -15  -1    0.01    0.10
   4 -15   1   -0.11    0.10
   4 -15   1   -0.08    0.10
   4  15   1   -0.02    0.10
   5 -15   1    0.48    0.12
   5 -15   1    0.37    0.12
  -5  15  -1    0.36    0.10
   5  15   1    0.49    0.12
   6 -15   1   -0.03    0.09
   4 -16  -1    1.44    0.20
   4 -16  -1    1.13    0.18
   4  16  -1    1.76    0.21
  -3 -16   1   -0.07    0.11
   3 -16  -1   -0.18    0.10
   3 -16  -1   -0.02    0.10
   3  16  -1   -0.17    0.10
  -2 -16   1    0.62    0.13
   2 -16  -1    0.42    0.12
   2 -16  -1    0.06    0.12
   2  16  -1    0.24    0.11
  -1 -16   1    0.10    0.12
   1 -16  -1   -0.16    0.11
   1  16  -1    0.03    0.10
   0 -16   1    7.51    0.58
   0 -16  -1    9.31    0.63
   0 -16   1    8.85    0.63
   0  16  -1    8.47    0.61
   1 -16   1   -0.22    0.11
  -1 -16  -1    0.16    0.11
   1 -16   1   -0.13    0.11
   2 -16   1    2.63    0.26
  -2 -16  -1    3.00    0.28
   2 -16   1    2.92    0.28
   2  16   1    2.58    0.27
   3 -16   1    0.03    0.11
  -3 -16  -1    0.12    0.10
   3 -16   1    0.07    0.10
   3  16   1    0.08    0.10
  15   0  -2    0.15    0.12
 -14   0   2    5.22    0.41
 -14   0   2    4.81    0.40
  14   0  -2    5.47    0.48
  13   0  -2    0.20    0.12
 -13   0   2   -0.07    0.11
 -13   0   2   -0.04    0.10
  12   0  -2   15.77    1.27
 -12   0   2   16.56    1.08
 -12   0   2   17.04    1.14
 -11   0   2    0.07    0.09
  11   0  -2    0.07    0.11
 -11   0   2   -0.11    0.10
 -10   0   2   10.73    0.74
  10   0  -2    9.73    0.82
 -10   0   2   10.98    0.71
  -9   0   2   -0.18    0.08
  -9   0   2    0.02    0.07
   9   0  -2    0.08    0.09
  -9   0   2   -0.05    0.10
  -8   0   2  109.94    6.77
   8   0  -2  109.28    7.95
  -8   0   2  105.01    7.16
  -8   0   2  108.17    7.63
  -7   0   2   -0.07    0.08
  -7   0   2   -0.08    0.05
  -7   0   2   -0.08    0.07
   7   0  -2   -0.01    0.04
  -6   0   2   80.00    4.87
  -6   0   2   66.75    5.02
  -6   0   2   78.73    5.15
  -6   0   2   85.48    5.49
  -5   0   2   -0.08    0.06
  -5   0   2   -0.06    0.07
  -5   0   2   -0.04    0.05
  -5   0   2   -0.07    0.04
   5   0  -2   -0.06    0.04
  -4   0   2  323.71   21.32
  -4   0   2  302.32   19.54
  -4   0   2  332.75   18.93
   4   0  -2  286.92   18.62
  -4   0   2  269.92   20.02
  -3   0   2   -0.14    0.05
  -3   0   2   -0.10    0.04
  -3   0   2   -0.10    0.03
   1   0  -2   -0.24    0.02
   0   0  -2   91.82    6.42
  -1   0  -2   -0.13    0.04
   1   0   2   -0.14    0.04
  -2   0  -2   38.71    2.65
  -2   0  -2   43.69    2.79
  -2   0  -2   37.10    2.60
   2   0   2   40.74    2.94
  -3   0  -2    0.04    0.05
  -3   0  -2   -0.04    0.06
  -3   0  -2    0.06    0.04
  -3   0  -2   -0.11    0.05
  -4   0  -2  415.59   27.16
   4   0   2  340.19   28.62
  -4   0  -2  397.41   24.39
  -4   0  -2  409.82   25.23
  -4   0  -2  390.08   25.80
  -5   0  -2    0.03    0.05
  -5   0  -2   -0.03    0.05
   5   0   2   -0.04    0.08
  -5   0  -2    0.02    0.06
   5   0   2   -0.02    0.03
   6   0   2   21.83    1.78
  -6   0  -2   22.46    1.68
  -6   0  -2   25.57    1.57
  -6   0  -2   24.58    1.60
  -6   0  -2   24.79    1.51
  -7   0  -2    0.06    0.07
  -7   0  -2   -0.03    0.08
   7   0   2    0.03    0.09
  -7   0  -2   -0.01    0.06
  -8   0  -2   18.13    1.26
  -8   0  -2   18.41    1.20
   8   0   2   20.00    1.41
  -8   0  -2   17.82    1.24
  -9   0  -2    0.43    0.10
  -9   0  -2    0.42    0.12
  10   0   2   13.94    1.06
 -10   0  -2   13.47    0.93
 -10   0  -2   13.42    0.95
 -11   0  -2   -0.02    0.11
  11   0   2   -0.09    0.13
 -12   0  -2   16.86    1.12
  12   0   2   15.23    1.24
  13   0   2    0.38    0.14
 -13   0  -2    0.11    0.12
  15  -1  -2    0.09    0.13
 -14  -1   2    0.64    0.12
 -14   1   2    0.19    0.12
 -14   1   2    0.06    0.10
  14   1  -2    0.37    0.13
  13  -1  -2    0.03    0.13
 -13  -1   2    0.01    0.10
 -13  -1   2    0.16    0.11
 -13   1   2   -0.01    0.09
 -13   1   2    0.05    0.11
 -12  -1   2    2.26    0.22
  12  -1  -2    2.31    0.31
 -12  -1   2    2.10    0.25
 -12   1   2    1.76    0.25
 -12   1   2    1.88    0.22
 -11  -1   2   12.03    0.81
 -11  -1   2   12.10    0.77
  11  -1  -2   10.47    0.90
  11   1  -2   12.25    0.91
 -11   1   2   10.82    0.77
 -11   1   2   11.18    0.80
 -10  -1   2    0.75    0.13
  10  -1  -2    0.53    0.13
 -10  -1   2    0.65    0.11
 -10   1   2    0.69    0.12
  10   1  -2    0.64    0.13
 -10   1   2    0.68    0.11
  -9  -1   2   18.67    1.12
  -9  -1   2   17.09    1.26
   9  -1  -2   16.70    1.31
  -9  -1   2   17.78    1.17
   9   1  -2   16.24    1.30
  -9   1   2   16.52    1.11
  -9   1   2   17.60    1.17
  -8  -1   2    5.90    0.44
  -8  -1   2    5.51    0.40
  -8  -1   2    5.45    0.38
  -8   1   2    5.54    0.38
  -8   1   2    4.48    0.40
   8   1  -2    5.14    0.46
  -8   1   2    5.32    0.45
  -7  -1   2   11.57    0.89
   7  -1  -2   12.71    0.86
  -7  -1   2   14.48    1.00
  -7  -1   2   15.18    0.89
  -7  -1   2   15.97    0.93
  -7   1   2   12.24    1.00
  -7   1   2   14.34    0.93
  -7   1   2   14.66    0.89
  -7   1   2   12.34    0.90
  -6  -1   2    1.05    0.12
   6  -1  -2    1.09    0.12
  -6  -1   2    1.29    0.13
  -6  -1   2    0.77    0.09
  -6  -1   2    1.43    0.16
  -6   1   2    1.13    0.14
  -6   1   2    1.29    0.18
  -6   1   2    1.19    0.12
  -6   1   2    1.00    0.11
  -5  -1   2    9.52    0.65
  -5  -1   2    8.47    0.57
  -5  -1   2    8.99    0.61
  -5  -1   2    9.28    0.59
   5  -1  -2    9.39    0.56
  -5   1   2    8.31    0.65
  -5   1   2    8.12    0.58
  -5   1   2    9.76    0.57
   5   1  -2    7.72    0.55
  -4  -1   2    2.55    0.17
  -4  -1   2    2.18    0.19
  -4  -1   2    1.71    0.21
   4  -1  -2    2.29    0.16
  -4   1   2    2.42    0.21
  -4   1   2    1.75    0.18
  -3  -1   2   25.04    1.72
  -3  -1   2   30.21    1.94
  -3  -1   2   29.42    1.77
   3  -1  -2   25.53    1.69
  -3  -1   2   23.66    1.81
  -3   1   2   25.39    1.77
  -3   1   2   29.90    1.72
  -3   1   2   29.83    1.94
  -2  -1   2    0.65    0.10
   2  -1  -2    0.35    0.04
  -2  -1   2    0.38    0.05
  -2   1   2    0.34    0.05
  -2   1   2    0.44    0.05
   1  -1  -2   17.99    1.31
   1   1  -2   19.49    1.31
   0   1  -2    0.47    0.07
  -1  -1  -2    0.60    0.09
  -1  -1  -2    0.94    0.11
   1  -1   2    0.78    0.12
   1   1   2    0.85    0.12
  -1   1  -2    0.60    0.10
  -1   1  -2    0.99    0.09
  -1   1  -2    0.99    0.10
  -2  -1  -2    0.35    0.06
  -2  -1  -2    0.30    0.05
  -2  -1  -2    0.35    0.06
   2  -1   2    0.29    0.04
   2  -1   2    0.17    0.07
  -2   1  -2    0.38    0.04
  -2   1  -2    0.31    0.04
  -2   1  -2    0.34    0.05
   2   1   2    0.26    0.06
  -2   1  -2    0.38    0.05
   3  -1   2  140.02    8.62
  -3  -1  -2  138.37    9.07
  -3  -1  -2  154.88    9.76
  -3  -1  -2  148.64    9.28
   3  -1   2  132.11   10.29
  -3   1  -2  126.06    9.27
  -3   1  -2  140.46    9.07
  -3   1  -2  133.35    8.77
  -3   1  -2  144.28    9.76
   3   1   2  144.96   10.29
  -4  -1  -2   10.88    0.72
  -4  -1  -2   11.00    0.75
   4  -1   2   10.28    0.68
  -4  -1  -2   11.14    0.78
  -4   1  -2    9.60    0.72
   4   1   2   11.79    0.83
  -4   1  -2   11.50    0.70
  -5  -1  -2   13.64    0.87
  -5  -1  -2   13.64    0.90
  -5  -1  -2   12.72    0.84
   5  -1   2   11.72    0.79
   5  -1   2   11.83    0.96
  -5  -1  -2   11.66    0.81
  -5   1  -2   12.52    0.81
   5   1   2   13.35    0.96
  -5   1  -2   12.33    0.86
  -5   1  -2   12.06    0.84
  -5   1  -2   13.18    0.90
  -6  -1  -2    0.31    0.08
  -6  -1  -2    0.29    0.07
  -6  -1  -2    0.21    0.07
   6  -1   2    0.38    0.10
  -6  -1  -2    0.15    0.09
   6  -1   2    0.24    0.05
   6   1   2    0.31    0.10
  -6   1  -2    0.22    0.07
  -6   1  -2    0.20    0.07
  -6   1  -2    0.18    0.08
  -7  -1  -2    6.78    0.50
  -7  -1  -2    6.82    0.49
   7  -1   2    6.56    0.55
  -7  -1  -2    6.74    0.48
  -7   1  -2    6.31    0.46
  -7   1  -2    6.55    0.47
   7   1   2    6.66    0.54
  -7   1  -2    6.97    0.49
   8  -1   2    2.55    0.29
  -8  -1  -2    2.22    0.24
  -8  -1  -2    2.08    0.24
  -8   1  -2    2.56    0.24
  -8   1  -2    2.59    0.23
  -8   1  -2    2.76    0.23
   8   1   2    2.19    0.28
  -9  -1  -2   14.41    0.98
   9  -1   2   14.75    1.09
  -9  -1  -2   13.98    0.95
  -9   1  -2   13.69    0.92
  -9   1  -2   14.52    0.97
   9   1   2   13.60    1.08
  -9   1  -2   13.26    0.95
 -10  -1  -2    4.09    0.32
  10  -1   2    3.28    0.37
 -10   1  -2    3.50    0.31
 -10   1  -2    3.34    0.32
  10   1   2    3.74    0.37
 -11  -1  -2    0.30    0.13
  11  -1   2    0.23    0.15
 -11   1  -2    0.32    0.12
 -11   1  -2    0.22    0.10
  11   1   2    0.34    0.14
  12  -1   2    3.75    0.40
 -12   1  -2    3.50    0.33
  13  -1   2    0.38    0.14
 -13  -1  -2    0.04    0.12
  13   1   2    0.20    0.14
 -13   1  -2    0.16    0.11
 -14  -2   2    0.31    0.13
 -13  -2   2    0.76    0.14
  13  -2  -2    0.82    0.18
 -13  -2   2    1.02    0.15
  13   2  -2    0.61    0.16
 -13   2   2    0.73    0.14
  12  -2  -2    0.77    0.16
 -12  -2   2    0.71    0.13
 -12  -2   2    0.66    0.14
 -12   2   2    0.55    0.12
 -12   2   2    0.48    0.13
 -11  -2   2    4.37    0.35
  11  -2  -2    3.96    0.42
 -11  -2   2    4.57    0.36
  11   2  -2    4.75    0.42
 -11   2   2    4.35    0.34
 -11   2   2    4.42    0.36
 -10  -2   2    0.07    0.08
 -10  -2   2    0.06    0.09
  10  -2  -2   -0.06    0.11
  10   2  -2    0.01    0.10
 -10   2   2   -0.01    0.07
 -10   2   2    0.11    0.09
  -9  -2   2    6.33    0.44
  -9  -2   2    6.08    0.48
   9  -2  -2    5.79    0.50
  -9  -2   2    5.98    0.41
  -9   2   2    5.79    0.41
  -9   2   2    5.57    0.43
  -9   2   2    5.37    0.41
   9   2  -2    5.46    0.48
  -8  -2   2    0.30    0.08
   8  -2  -2    0.22    0.07
  -8  -2   2    0.15    0.10
  -8  -2   2    0.35    0.09
   8   2  -2    0.11    0.09
  -8   2   2    0.24    0.11
  -8   2   2    0.38    0.06
  -8   2   2    0.30    0.08
  -8   2   2    0.28    0.08
  -7  -2   2    3.39    0.25
  -7  -2   2    2.60    0.22
   7  -2  -2    2.83    0.23
  -7  -2   2    3.53    0.26
  -7  -2   2    3.14    0.29
  -7   2   2    2.95    0.23
  -7   2   2    3.35    0.25
  -7   2   2    3.40    0.29
  -7   2   2    2.89    0.26
   7   2  -2    3.20    0.30
   6  -2  -2    3.75    0.27
  -6  -2   2    4.66    0.30
  -6  -2   2    4.22    0.28
  -6  -2   2    3.83    0.27
  -6  -2   2    3.10    0.33
  -6   2   2    4.10    0.30
   6   2  -2    3.30    0.34
  -6   2   2    3.42    0.33
  -6   2   2    3.91    0.27
  -6   2   2    4.15    0.28
  -5  -2   2    0.18    0.05
  -5  -2   2    0.13    0.07
  -5  -2   2    0.25    0.08
   5  -2  -2    0.17    0.05
  -5  -2   2    0.17    0.05
  -5   2   2    0.25    0.07
  -5   2   2    0.18    0.05
  -5   2   2    0.20    0.04
  -5   2   2    0.19    0.05
  -4  -2   2    7.07    0.46
  -4  -2   2    8.26    0.48
   4  -2  -2    7.60    0.46
  -4  -2   2    6.98    0.53
  -4  -2   2    6.79    0.49
  -4   2   2    6.23    0.53
  -4   2   2    7.75    0.47
  -4   2   2    6.48    0.49
  -3  -2   2    0.47    0.06
  -3  -2   2    0.68    0.10
  -3  -2   2    0.50    0.07
   3  -2  -2    0.48    0.06
  -3  -2   2    0.78    0.12
  -3   2   2    0.59    0.09
  -3   2   2    0.55    0.07
  -2  -2   2    2.80    0.21
  -2  -2   2    2.63    0.20
   2  -2  -2    2.43    0.19
  -2   2   2    3.24    0.19
  -1  -2   2    0.13    0.03
  -1  -2   2    0.16    0.03
   1  -2  -2    0.16    0.04
   1  -2  -2    0.13    0.03
   1   2  -2    0.13    0.04
  -1   2   2    0.20    0.03
  -1   2   2    0.14    0.04
   0  -2  -2    0.27    0.05
   0  -2   2    0.28    0.04
   0  -2   2    0.24    0.04
   0   2  -2    0.31    0.04
   0   2  -2    0.32    0.04
  -1  -2  -2    0.06    0.03
  -1  -2  -2    0.09    0.05
  -1  -2  -2    0.06    0.04
   1  -2   2   -0.07    0.05
   1  -2   2    0.06    0.03
   1   2   2    0.11    0.05
  -1   2  -2    0.08    0.03
  -1   2  -2    0.08    0.04
   2  -2   2    1.25    0.16
  -2  -2  -2    1.25    0.12
  -2  -2  -2    1.52    0.13
   2  -2   2    1.16    0.11
  -2  -2  -2    1.18    0.13
  -2   2  -2    1.21    0.13
  -2   2  -2    1.40    0.12
  -2   2  -2    1.25    0.11
   2   2   2    1.04    0.15
  -2   2  -2    1.03    0.13
  -3  -2  -2    7.26    0.49
  -3  -2  -2    6.71    0.48
   3  -2   2    6.72    0.45
   3  -2   2    6.35    0.55
  -3  -2  -2    7.95    0.51
  -3   2  -2    7.03    0.46
  -3   2  -2    7.27    0.49
  -3   2  -2    7.67    0.47
  -3   2  -2    7.03    0.51
   3   2   2    6.07    0.54
   4  -2   2    0.15    0.05
  -4  -2  -2    0.17    0.07
  -4  -2  -2    0.12    0.08
   4  -2   2    0.17    0.09
  -4  -2  -2    0.14    0.06
  -4   2  -2    0.12    0.05
  -4   2  -2    0.12    0.06
  -4   2  -2    0.13    0.06
  -4   2  -2    0.15    0.05
   4   2   2    0.05    0.08
  -5  -2  -2    5.37    0.37
   5  -2   2    4.63    0.33
  -5  -2  -2    5.33    0.39
  -5  -2  -2    5.26    0.39
   5  -2   2    4.72    0.43
  -5   2  -2    5.28    0.35
  -5   2  -2    5.22    0.36
   5   2   2    5.29    0.42
  -5   2  -2    4.79    0.38
  -6  -2  -2   10.54    0.76
  -6  -2  -2   11.90    0.78
   6  -2   2   10.33    0.71
  -6  -2  -2   11.87    0.81
   6  -2   2   11.29    0.87
  -6   2  -2   11.92    0.78
  -6   2  -2   10.89    0.76
  -6   2  -2   11.79    0.73
   6   2   2   10.82    0.86
   7  -2   2    1.29    0.16
  -7  -2  -2    1.09    0.16
  -7  -2  -2    1.15    0.17
  -7  -2  -2    1.33    0.14
  -7   2  -2    1.04    0.15
  -7   2  -2    1.28    0.16
   7   2   2    1.10    0.15
  -7   2  -2    1.11    0.16
  -8  -2  -2    0.40    0.11
   8  -2   2    0.30    0.13
  -8   2  -2    0.30    0.09
  -8   2  -2    0.34    0.08
   8   2   2    0.34    0.12
  -8   2  -2    0.27    0.09
   9  -2   2    7.65    0.65
  -9  -2  -2    7.99    0.58
  -9   2  -2    7.74    0.55
  -9   2  -2    8.47    0.57
  -9   2  -2    8.00    0.54
   9   2   2    6.90    0.63
 -10  -2  -2    0.21    0.12
  10  -2   2    0.25    0.14
 -10   2  -2    0.28    0.09
  10   2   2    0.27    0.13
 -10   2  -2    0.23    0.11
  11  -2   2    2.25    0.33
 -11  -2  -2    2.18    0.26
 -11   2  -2    2.70    0.25
  11   2   2    2.51    0.31
 -11   2  -2    2.62    0.26
 -12  -2  -2    0.40    0.13
  12  -2   2    0.16    0.16
  12   2   2    0.40    0.15
 -12   2  -2    0.14    0.12
 -13  -2  -2    0.59    0.14
 -13   2  -2    0.71    0.15
  13   2   2    1.01    0.18
  14  -3  -2    0.25    0.14
 -14   3   2    0.31    0.11
  13  -3  -2    0.25    0.15
 -13  -3   2    0.36    0.12
 -13   3   2    0.22    0.11
 -13   3   2    0.38    0.12
  12  -3  -2    0.21    0.13
 -12  -3   2    0.11    0.12
 -12  -3   2    0.08    0.10
 -12   3   2    0.14    0.09
 -12   3   2    0.19    0.11
  11  -3  -2   10.85    0.90
 -11  -3   2   11.84    0.80
 -11  -3   2   11.76    0.76
 -11   3   2   12.07    0.80
 -11   3   2   10.60    0.76
  11   3  -2   10.55    0.88
 -10  -3   2    0.48    0.11
  10  -3  -2    0.42    0.13
 -10  -3   2    0.57    0.11
 -10   3   2    0.40    0.10
  10   3  -2    0.47    0.12
 -10   3   2    0.58    0.11
  -9  -3   2   27.81    1.69
  -9  -3   2   28.18    1.78
  -9  -3   2   26.36    1.89
   9  -3  -2   24.39    1.65
   9   3  -2   25.47    1.97
  -9   3   2   25.91    1.68
  -9   3   2   24.90    1.73
  -9   3   2   28.20    1.77
  -8  -3   2    0.57    0.12
  -8  -3   2    0.76    0.11
   8  -3  -2    0.58    0.09
  -8  -3   2    0.60    0.10
  -8   3   2    0.65    0.10
  -8   3   2    0.79    0.11
   8   3  -2    0.57    0.11
  -8   3   2    0.49    0.10
  -7  -3   2   80.05    4.77
  -7  -3   2   71.73    4.51
   7  -3  -2   73.66    4.44
  -7  -3   2   64.17    4.65
  -7  -3   2   75.00    5.08
   7   3  -2   66.51    5.29
  -7   3   2   77.52    4.77
  -7   3   2   71.38    5.08
  -7   3   2   70.41    4.66
  -7   3   2   69.10    4.51
  -6  -3   2    0.43    0.10
  -6  -3   2    0.49    0.07
  -6  -3   2    0.43    0.06
  -6  -3   2    0.42    0.08
   6  -3  -2    0.49    0.07
   6   3  -2    0.34    0.08
  -6   3   2    0.43    0.07
  -6   3   2    0.49    0.06
  -6   3   2    0.51    0.09
  -6   3   2    0.41    0.07
  -5  -3   2   20.80    1.54
  -5  -3   2   23.24    1.44
  -5  -3   2   22.22    1.40
   5  -3  -2   21.29    1.34
  -5  -3   2   22.21    1.36
  -5   3   2   23.35    1.37
   5   3  -2   20.67    1.60
  -5   3   2   21.78    1.54
  -5   3   2   19.72    1.40
  -5   3   2   20.25    1.44
  -4  -3   2    0.01    0.07
  -4  -3   2    0.00    0.06
   4  -3  -2    0.00    0.05
  -4  -3   2    0.01    0.04
  -4  -3   2    0.06    0.05
  -4   3   2    0.02    0.03
  -4   3   2    0.05    0.04
  -4   3   2    0.06    0.05
   4   3  -2    0.05    0.05
  -4   3   2    0.00    0.05
  -3  -3   2    0.56    0.06
   3  -3  -2    0.55    0.07
  -3  -3   2    0.67    0.08
  -3  -3   2    0.88    0.12
  -3  -3   2    0.72    0.10
  -3   3   2    0.69    0.07
  -3   3   2    0.69    0.08
  -2  -3   2    0.92    0.12
   2  -3  -2    1.02    0.11
   2  -3  -2    0.71    0.12
  -2  -3   2    0.72    0.09
  -2  -3   2    1.10    0.11
  -2   3   2    0.74    0.11
  -2   3   2    1.09    0.10
  -1  -3   2   19.08    1.17
  -1  -3   2   16.86    1.23
   1  -3  -2   18.67    1.17
  -1   3   2   16.88    1.39
   1   3  -2   19.67    1.23
  -1   3   2   22.15    1.19
   0  -3  -2    0.60    0.08
   0  -3   2    0.59    0.08
   0  -3  -2    0.63    0.10
   0  -3  -2    0.50    0.07
   0  -3   2    0.62    0.09
   0   3   2    0.79    0.09
   0   3  -2    0.78    0.10
   0   3  -2    0.59    0.05
  -1  -3  -2    0.18    0.05
   1  -3   2    0.16    0.04
   1  -3   2    0.16    0.06
   1  -3   2    0.19    0.04
  -1  -3  -2    0.14    0.06
  -1   3  -2    0.24    0.04
  -1   3  -2    0.28    0.04
   1   3   2    0.28    0.05
  -2  -3  -2    0.08    0.04
   2  -3   2    0.12    0.04
  -2  -3  -2    0.14    0.06
   2  -3   2    0.11    0.06
   2  -3   2    0.13    0.05
  -2  -3  -2    0.12    0.06
  -2   3  -2    0.08    0.04
  -2   3  -2    0.10    0.05
  -2   3  -2    0.16    0.04
   2   3   2   -0.03    0.06
  -3  -3  -2   21.57    1.40
  -3  -3  -2   21.16    1.33
   3  -3   2   18.05    1.29
   3  -3   2   19.32    1.48
   3  -3   2   19.34    1.24
  -3   3  -2   19.33    1.26
  -3   3  -2   20.45    1.30
   3   3   2   20.02    1.47
  -3   3  -2   19.96    1.40
  -3   3  -2   20.13    1.33
  -4  -3  -2    2.11    0.23
   4  -3   2    2.75    0.27
  -4  -3  -2    2.89    0.23
   4  -3   2    2.47    0.20
   4  -3   2    2.73    0.21
  -4   3  -2    2.51    0.21
   4   3   2    2.71    0.26
  -4   3  -2    3.29    0.21
  -4   3  -2    3.09    0.22
   5  -3   2   37.52    2.82
  -5  -3  -2   41.42    2.67
  -5  -3  -2   40.91    2.54
   5  -3   2   32.30    2.46
   5  -3   2   40.10    2.36
  -5   3  -2   39.97    2.54
  -5   3  -2   36.81    2.40
  -5   3  -2   36.62    2.48
   5   3   2   37.24    2.81
   6  -3   2    0.24    0.10
  -6  -3  -2    0.24    0.07
   6  -3   2    0.11    0.05
  -6  -3  -2   -0.12    0.09
  -6   3  -2    0.08    0.06
  -6   3  -2    0.14    0.07
  -6   3  -2    0.18    0.06
   6   3   2    0.16    0.09
   7  -3   2    0.38    0.11
  -7  -3  -2    0.18    0.10
  -7  -3  -2    0.25    0.08
   7  -3   2    0.23    0.06
  -7   3  -2    0.22    0.07
  -7   3  -2    0.31    0.08
  -7   3  -2    0.29    0.08
   7   3   2    0.17    0.10
   8  -3   2    0.55    0.15
  -8  -3  -2    0.67    0.13
   8   3   2    0.43    0.13
  -8   3  -2    0.56    0.10
  -8   3  -2    0.60    0.10
  -8   3  -2    0.61    0.10
  -9  -3  -2   10.99    0.74
   9  -3   2   10.22    0.84
  -9   3  -2   10.59    0.72
   9   3   2   10.14    0.82
  -9   3  -2    9.70    0.73
  -9   3  -2   10.81    0.70
 -10  -3  -2    0.90    0.15
  10  -3   2    0.63    0.16
 -10   3  -2    0.96    0.14
 -10   3  -2    0.83    0.12
 -10   3  -2    0.65    0.13
  10   3   2    0.57    0.16
  11  -3   2    1.17    0.21
 -11  -3  -2    1.11    0.17
 -11   3  -2    1.23    0.17
 -11   3  -2    1.16    0.15
  11   3   2    1.28    0.20
 -12  -3  -2    0.22    0.12
  12  -3   2   -0.01    0.15
 -12   3  -2    0.05    0.09
  12   3   2    0.27    0.14
 -12   3  -2    0.06    0.12
  13  -3   2    0.69    0.16
 -13  -3  -2    0.26    0.12
 -13   3  -2    0.26    0.12
  14  -4  -2    0.04    0.14
 -14   4   2    0.14    0.10
  13  -4  -2   -0.08    0.15
 -13  -4   2    0.13    0.12
 -13   4   2   -0.07    0.09
 -12  -4   2    3.79    0.33
  12  -4  -2    3.62    0.40
 -12   4   2    3.51    0.31
 -12   4   2    4.18    0.33
  11  -4  -2    0.41    0.14
 -11  -4   2    0.61    0.12
 -11  -4   2    0.50    0.13
 -11   4   2    0.36    0.10
 -11   4   2    0.46    0.11
 -10  -4   2    2.94    0.24
  10  -4  -2    2.90    0.32
 -10  -4   2    2.56    0.26
 -10   4   2    2.39    0.24
 -10   4   2    2.86    0.25
   9  -4  -2    0.46    0.09
  -9  -4   2    0.41    0.11
  -9  -4   2    0.49    0.10
  -9  -4   2    0.54    0.12
  -9   4   2    0.58    0.10
  -9   4   2    0.49    0.10
  -8  -4   2   29.74    2.01
  -8  -4   2   33.67    2.13
   8  -4  -2   32.04    1.98
  -8  -4   2   32.82    2.27
  -8   4   2   34.09    2.12
   8   4  -2   30.39    2.36
  -8   4   2   30.71    2.07
  -8   4   2   30.71    2.01
  -7  -4   2    0.07    0.05
  -7  -4   2   -0.01    0.08
  -7  -4   2    0.11    0.08
  -7  -4   2    0.07    0.06
   7  -4  -2    0.05    0.06
   7   4  -2    0.04    0.07
  -7   4   2    0.03    0.04
  -7   4   2   -0.01    0.06
  -7   4   2   -0.15    0.06
  -6  -4   2   24.61    1.59
  -6  -4   2   24.62    1.64
  -6  -4   2   22.65    1.75
   6  -4  -2   26.66    1.53
  -6  -4   2   26.92    1.55
  -6   4   2   24.24    1.74
  -6   4   2   25.13    1.55
  -6   4   2   22.55    1.59
  -6   4   2   25.66    1.64
   6   4  -2   21.79    1.81
  -5  -4   2    0.03    0.05
   5  -4  -2    0.01    0.05
  -5  -4   2   -0.01    0.07
  -5  -4   2    0.02    0.07
  -5  -4   2    0.02    0.05
   5   4  -2   -0.02    0.05
  -5   4   2    0.04    0.04
  -5   4   2    0.03    0.05
  -5   4   2    0.03    0.05
  -5   4   2    0.01    0.06
  -4  -4   2   10.74    0.69
   4  -4  -2   11.06    0.69
  -4  -4   2   10.73    0.74
  -4  -4   2   12.34    0.79
  -4  -4   2    9.84    0.72
  -4   4   2   11.95    0.70
  -4   4   2   11.16    0.73
  -4   4   2    9.77    0.78
  -4   4   2   10.18    0.71
   3  -4  -2    0.75    0.09
  -3  -4   2    0.94    0.14
  -3  -4   2    0.74    0.09
  -3  -4   2    0.63    0.09
  -3  -4   2    1.12    0.13
  -3  -4   2    0.92    0.11
  -3   4   2    0.79    0.09
  -3   4   2    1.09    0.10
  -3   4   2    0.78    0.09
  -2  -4   2    3.32    0.23
   2  -4  -2    3.14    0.23
  -2  -4   2    2.64    0.22
  -2  -4   2    2.99    0.20
   2  -4  -2    2.39    0.21
  -2   4   2    2.63    0.20
  -2   4   2    2.80    0.21
   1  -4  -2    0.00    0.05
   1  -4  -2    0.20    0.06
  -1  -4   2    0.11    0.05
  -1  -4   2    0.16    0.04
   1   4  -2    0.08    0.05
  -1   4   2   -0.01    0.06
  -1   4   2    0.14    0.04
   0  -4  -2    8.82    0.58
   0  -4   2    8.56    0.54
   0  -4  -2    7.17    0.54
   0  -4   2    8.96    0.56
   0  -4  -2    9.12    0.61
   0   4   2    8.16    0.63
   0   4  -2    8.36    0.57
  -1  -4  -2    0.85    0.09
   1  -4   2    0.77    0.10
   1  -4   2    1.05    0.13
  -1  -4  -2    0.79    0.08
  -1  -4  -2    1.04    0.09
   1  -4   2    0.80    0.12
   1   4   2    1.09    0.13
  -2  -4  -2   10.84    0.78
   2  -4   2   10.27    0.72
  -2  -4  -2   10.67    0.74
   2  -4   2   10.75    0.82
   2  -4   2   11.30    0.69
  -2  -4  -2   12.28    0.72
  -2  -4  -2    9.31    0.68
   2   4   2   11.13    0.82
  -2   4  -2   11.76    0.72
   3  -4   2    0.12    0.07
   3  -4   2    0.15    0.06
  -3  -4  -2    0.21    0.06
  -3  -4  -2    0.11    0.04
  -3  -4  -2    0.13    0.06
   3  -4   2    0.13    0.05
  -3   4  -2    0.12    0.04
  -3   4  -2    0.18    0.05
   3   4   2    0.07    0.07
   4  -4   2   25.93    1.78
  -4  -4  -2   27.20    1.93
   4  -4   2   27.17    2.04
   4  -4   2   28.83    1.71
  -4  -4  -2   26.90    1.83
  -4   4  -2   29.87    1.83
   4   4   2   28.15    2.03
  -4   4  -2   28.31    1.73
  -4   4  -2   24.71    1.79
   5  -4   2    1.52    0.20
   5  -4   2    1.36    0.14
  -5  -4  -2    1.06    0.13
  -5  -4  -2    1.02    0.14
   5  -4   2    1.00    0.12
  -5   4  -2    1.09    0.13
   5   4   2    0.96    0.17
  -5   4  -2    1.00    0.13
  -5   4  -2    1.10    0.15
   6  -4   2    0.24    0.10
  -6  -4  -2    0.25    0.08
   6  -4   2    0.12    0.06
  -6  -4  -2    0.17    0.09
  -6   4  -2    0.19    0.07
   6   4   2    0.14    0.09
  -6   4  -2    0.27    0.06
  -6   4  -2    0.30    0.07
   7  -4   2    0.09    0.11
  -7  -4  -2    0.05    0.07
  -7  -4  -2    0.05    0.09
   7  -4   2    0.05    0.06
   7   4   2    0.01    0.09
  -7   4  -2    0.09    0.07
  -7   4  -2    0.04    0.06
  -7   4  -2    0.06    0.07
   8  -4   2    3.01    0.34
  -8  -4  -2    3.30    0.28
  -8   4  -2    2.90    0.25
  -8   4  -2    3.17    0.27
  -8   4  -2    2.88    0.26
   8   4   2    3.48    0.31
   9  -4   2    0.95    0.19
  -9  -4  -2    1.16    0.16
   9   4   2    1.06    0.16
  -9   4  -2    0.98    0.13
  -9   4  -2    1.08    0.14
  -9   4  -2    0.84    0.14
  10  -4   2    6.01    0.55
 -10  -4  -2    5.89    0.47
  10   4   2    6.25    0.53
 -10   4  -2    6.12    0.45
 -10   4  -2    6.76    0.47
 -10   4  -2    5.67    0.45
 -11  -4  -2    0.26    0.12
  11  -4   2   -0.12    0.14
  11   4   2    0.24    0.14
 -11   4  -2    0.22    0.08
 -11   4  -2    0.24    0.12
  12  -4   2    1.98    0.32
 -12  -4  -2    1.63    0.23
 -12   4  -2    1.90    0.24
 -13  -4  -2    0.09    0.12
  13  -4   2    0.25    0.16
 -13   4  -2    0.29    0.12
  14  -5  -2   -0.01    0.13
 -14  -5   2   -0.01    0.12
 -14   5   2    0.01    0.09
 -13  -5   2    0.45    0.13
  13  -5  -2    0.04    0.15
 -13   5   2    0.10    0.09
 -12  -5   2    2.05    0.24
  12  -5  -2    1.36    0.23
 -12   5   2    1.77    0.23
 -12   5   2    1.61    0.20
 -11  -5   2    0.18    0.12
  11  -5  -2    0.06    0.13
 -11   5   2    0.11    0.10
 -11   5   2    0.15    0.09
  10  -5  -2    0.55    0.14
 -10  -5   2    0.59    0.14
 -10   5   2    0.71    0.11
 -10   5   2    0.56    0.11
  -9  -5   2    1.40    0.20
  -9  -5   2    1.19    0.17
   9  -5  -2    1.19    0.18
  -9   5   2    1.61    0.18
  -9   5   2    1.10    0.16
  -8  -5   2    4.56    0.30
  -8  -5   2    4.17    0.33
  -8  -5   2    4.20    0.35
   8  -5  -2    3.59    0.30
  -8   5   2    3.81    0.30
  -8   5   2    4.03    0.32
  -7  -5   2    0.37    0.08
  -7  -5   2    0.20    0.09
  -7  -5   2    0.33    0.06
   7  -5  -2    0.37    0.08
  -7  -5   2    0.31    0.09
  -7   5   2    0.38    0.06
  -7   5   2    0.36    0.08
  -7   5   2    0.39    0.07
  -6  -5   2    0.80    0.10
   6  -5  -2    0.68    0.10
  -6  -5   2    0.92    0.11
  -6  -5   2    0.73    0.09
  -6  -5   2    0.93    0.12
  -6   5   2    0.71    0.10
  -6   5   2    0.91    0.13
  -6   5   2    0.90    0.10
  -5  -5   2   -0.11    0.07
  -5  -5   2   -0.10    0.07
  -5  -5   2    0.02    0.05
   5  -5  -2    0.12    0.06
  -5  -5   2    0.05    0.05
  -5   5   2    0.01    0.05
  -5   5   2   -0.01    0.05
  -5   5   2    0.01    0.04
  -4  -5   2    0.04    0.06
  -4  -5   2    0.01    0.05
  -4  -5   2    0.06    0.06
   4  -5  -2    0.10    0.06
  -4   5   2    0.06    0.05
  -4   5   2    0.02    0.05
  -4   5   2    0.04    0.03
  -3  -5   2    2.58    0.23
  -3  -5   2    2.93    0.22
  -3  -5   2    2.45    0.19
   3  -5  -2    2.71    0.21
  -3  -5   2    2.53    0.21
  -3   5   2    2.92    0.20
  -3   5   2    2.67    0.22
  -3   5   2    2.67    0.19
   2  -5  -2    0.57    0.08
  -2  -5   2    0.66    0.09
  -2  -5   2    0.77    0.09
  -2  -5   2    0.68    0.08
   2  -5  -2    0.91    0.11
  -2  -5   2    0.89    0.11
  -2   5   2    0.70    0.09
  -2   5   2    0.64    0.10
   1  -5  -2    5.97    0.44
  -1  -5   2    6.82    0.49
  -1  -5   2    6.80    0.43
  -1  -5   2    6.41    0.46
   1  -5  -2    7.45    0.49
  -1   5   2    7.29    0.43
   1   5  -2    5.94    0.46
   0  -5   2    2.52    0.19
   0  -5   2    2.28    0.20
   0  -5  -2    1.97    0.19
   0  -5  -2    2.57    0.21
   0  -5  -2    2.80    0.21
   0   5   2    2.94    0.19
   0   5   2    2.24    0.22
   0   5  -2    2.24    0.21
  -1  -5  -2    0.74    0.12
  -1  -5  -2    0.91    0.14
   1  -5   2    0.73    0.08
  -1  -5  -2    0.74    0.08
   1  -5   2    0.62    0.08
   1  -5   2    0.74    0.08
  -1  -5  -2    0.68    0.07
  -1   5  -2    0.81    0.12
  -2  -5  -2    0.04    0.06
  -2  -5  -2    0.08    0.04
  -2  -5  -2    0.10    0.05
  -2  -5  -2    0.06    0.06
   2  -5   2    0.10    0.05
   2  -5   2    0.12    0.06
   2  -5   2    0.08    0.06
  -2   5  -2    0.10    0.05
   2   5   2    0.11    0.06
  -3  -5  -2    4.84    0.32
   3  -5   2    4.61    0.33
   3  -5   2    4.23    0.38
   3  -5   2    4.38    0.32
  -3  -5  -2    4.58    0.35
  -3  -5  -2    4.84    0.34
   3   5   2    4.80    0.37
  -3   5  -2    4.34    0.31
  -3   5  -2    4.91    0.33
   4  -5   2    1.75    0.18
  -4  -5  -2    1.81    0.18
   4  -5   2    1.82    0.22
   4  -5   2    1.72    0.17
  -4  -5  -2    2.05    0.19
  -4  -5  -2    1.69    0.15
   4   5   2    1.78    0.20
  -4   5  -2    1.98    0.17
  -4   5  -2    2.02    0.15
  -4   5  -2    2.10    0.18
  -5  -5  -2    0.69    0.10
   5  -5   2    0.64    0.11
  -5  -5  -2    0.74    0.10
   5  -5   2    0.68    0.09
   5  -5   2    0.66    0.08
  -5   5  -2    0.65    0.08
   5   5   2    0.64    0.10
  -5   5  -2    0.75    0.09
  -5   5  -2    0.60    0.08
  -6  -5  -2    0.03    0.07
  -6  -5  -2   -0.13    0.08
   6  -5   2    0.00    0.10
   6  -5   2   -0.06    0.06
   6   5   2    0.05    0.09
  -6   5  -2    0.00    0.05
  -6   5  -2    0.02    0.05
  -6   5  -2   -0.05    0.06
   7  -5   2    3.20    0.24
   7  -5   2    3.00    0.32
  -7  -5  -2    3.03    0.27
  -7  -5  -2    3.18    0.27
  -7   5  -2    2.94    0.24
   7   5   2    3.00    0.29
  -7   5  -2    2.96    0.25
  -7   5  -2    3.28    0.26
   8  -5   2    0.71    0.15
  -8  -5  -2    0.80    0.13
   8  -5   2    0.61    0.10
  -8   5  -2    0.73    0.11
  -8   5  -2    0.81    0.11
  -8   5  -2    0.88    0.12
   8   5   2    0.76    0.13
  -9  -5  -2    0.13    0.12
   9  -5   2    0.02    0.14
  -9   5  -2    0.07    0.08
  -9   5  -2    0.11    0.09
  -9   5  -2    0.12    0.09
   9   5   2    0.11    0.12
  10  -5   2    3.31    0.39
 -10  -5  -2    3.35    0.31
 -10   5  -2    3.10    0.29
 -10   5  -2    3.30    0.30
 -10   5  -2    3.81    0.30
 -11  -5  -2    0.01    0.13
  11  -5   2    0.13    0.15
 -11   5  -2    0.00    0.10
 -11   5  -2   -0.02    0.08
 -12  -5  -2    0.91    0.16
  12  -5   2    1.17    0.21
 -12   5  -2    0.89    0.16
  13  -5   2   -0.05    0.15
 -13  -5  -2    0.28    0.12
 -13   5  -2    0.20    0.12
 -14   6   2    0.71    0.13
  13  -6  -2    0.33    0.17
 -13  -6   2    0.38    0.13
 -13   6   2    0.37    0.11
  12  -6  -2    2.16    0.32
 -12  -6   2    2.10    0.24
 -12   6   2    1.96    0.21
 -11  -6   2    0.30    0.14
  11  -6  -2    0.29    0.14
 -11   6   2    0.29    0.10
 -11   6   2    0.46    0.11
 -10  -6   2    3.04    0.28
  10  -6  -2    2.48    0.25
  10  -6  -2    2.84    0.34
 -10   6   2    3.15    0.26
 -10   6   2    2.67    0.24
  -9  -6   2    0.82    0.14
   9  -6  -2    0.78    0.12
  -9   6   2    0.59    0.11
  -9   6   2    0.89    0.12
  -8  -6   2    8.53    0.58
   8  -6  -2    7.31    0.54
  -8  -6   2    7.59    0.60
  -8   6   2    7.06    0.53
  -8   6   2    9.20    0.57
  -7  -6   2    0.25    0.07
  -7  -6   2    0.23    0.09
  -7  -6   2    0.19    0.06
   7  -6  -2    0.19    0.08
  -7   6   2    0.25    0.07
  -7   6   2    0.21    0.07
  -6  -6   2    4.08    0.31
  -6  -6   2    4.22    0.33
   6  -6  -2    4.38    0.32
  -6  -6   2    4.40    0.34
  -6   6   2    4.87    0.33
  -6   6   2    3.92    0.30
  -6   6   2    4.21    0.31
  -5  -6   2    0.02    0.05
   5  -6  -2    0.02    0.06
  -5  -6   2    0.00    0.05
  -5  -6   2    0.00    0.07
  -5   6   2   -0.03    0.03
  -5   6   2   -0.03    0.05
  -5   6   2    0.02    0.05
  -4  -6   2   11.32    0.83
  -4  -6   2   11.62    0.77
   4  -6  -2   12.20    0.74
  -4  -6   2   12.28    0.79
  -4   6   2   10.84    0.76
  -4   6   2   11.11    0.74
  -3  -6   2    0.02    0.04
   3  -6  -2    0.02    0.05
  -3  -6   2    0.00    0.06
   3  -6  -2   -0.05    0.06
  -3  -6   2    0.03    0.05
  -3  -6   2   -0.03    0.05
  -3   6   2   -0.02    0.04
  -3   6   2   -0.02    0.03
  -2  -6   2    6.92    0.46
   2  -6  -2    6.79    0.42
  -2  -6   2    6.83    0.44
   2  -6  -2    5.87    0.46
  -2  -6   2    5.59    0.41
  -2   6   2    6.17    0.43
  -2   6   2    6.10    0.41
  -1  -6   2    0.42    0.06
  -1  -6   2    0.32    0.07
   1  -6  -2    0.39    0.07
  -1  -6   2    0.31    0.06
   1  -6  -2    0.37    0.07
  -1   6   2    0.41    0.06
  -1   6   2    0.33    0.05
   1   6  -2    0.27    0.07
   0  -6   2   26.96    1.62
   0  -6   2   25.22    1.70
   0  -6  -2   25.97    1.70
   0  -6  -2   25.27    1.62
   0  -6  -2   24.22    1.82
   0   6   2   26.63    1.64
   0   6  -2   25.44    1.70
   0   6   2   28.50    1.92
  -1  -6  -2   -0.03    0.05
  -1  -6  -2   -0.04    0.06
  -1  -6  -2   -0.03    0.05
  -1  -6  -2   -0.06    0.06
   1  -6   2    0.01    0.05
   1  -6   2    0.07    0.05
   1  -6   2   -0.04    0.05
  -1   6  -2    0.00    0.05
   1   6   2    0.00    0.05
   2  -6   2    1.97    0.22
   2  -6   2    2.34    0.21
  -2  -6  -2    2.63    0.20
  -2  -6  -2    2.53    0.20
  -2  -6  -2    2.11    0.18
   2  -6   2    2.50    0.21
  -2  -6  -2    2.81    0.22
  -2   6  -2    2.76    0.20
   2   6   2    2.49    0.21
   3  -6   2    0.24    0.08
  -3  -6  -2    0.17    0.04
   3  -6   2    0.14    0.07
  -3  -6  -2    0.14    0.06
  -3  -6  -2    0.15    0.06
   3  -6   2    0.19    0.06
  -3  -6  -2    0.21    0.08
   3   6   2    0.16    0.06
  -3   6  -2    0.26    0.06
  -3   6  -2    0.24    0.04
  -4  -6  -2    6.41    0.43
  -4  -6  -2    5.74    0.40
  -4  -6  -2    5.50    0.44
   4  -6   2    5.74    0.41
   4  -6   2    6.22    0.40
   4  -6   2    5.66    0.48
  -4   6  -2    6.22    0.39
  -4   6  -2    6.15    0.41
   4   6   2    5.66    0.46
  -5  -6  -2    0.01    0.06
   5  -6   2    0.01    0.08
   5  -6   2    0.02    0.05
  -5  -6  -2   -0.10    0.08
   5  -6   2    0.06    0.07
  -5   6  -2   -0.04    0.06
  -5   6  -2   -0.02    0.05
  -5   6  -2    0.04    0.05
   5   6   2    0.02    0.07
   6  -6   2    0.28    0.07
   6  -6   2    0.30    0.08
  -6  -6  -2    0.28    0.10
  -6  -6  -2    0.27    0.08
   6  -6   2    0.36    0.11
  -6   6  -2    0.33    0.07
  -6   6  -2    0.30    0.07
  -6   6  -2    0.36    0.07
   6   6   2    0.27    0.09
   7  -6   2   -0.02    0.07
  -7  -6  -2    0.00    0.07
   7  -6   2    0.00    0.10
  -7  -6  -2   -0.17    0.09
  -7   6  -2    0.00    0.06
  -7   6  -2   -0.01    0.07
  -7   6  -2    0.01    0.06
   8  -6   2    5.60    0.48
  -8  -6  -2    5.16    0.41
   8  -6   2    5.35    0.37
  -8   6  -2    5.02    0.40
  -8   6  -2    4.80    0.37
  -8   6  -2    5.24    0.39
   9  -6   2    0.17    0.15
  -9  -6  -2    0.04    0.12
  -9   6  -2    0.23    0.08
  -9   6  -2    0.19    0.09
  10  -6   2    1.61    0.25
 -10  -6  -2    1.71    0.23
 -10   6  -2    1.55    0.21
 -10   6  -2    1.49    0.20
 -11  -6  -2   -0.05    0.13
  11  -6   2    0.01    0.15
 -11   6  -2    0.17    0.10
  12  -6   2    0.75    0.18
 -12  -6  -2    0.68    0.15
 -12   6  -2    0.87    0.15
  13  -7  -2    1.29    0.22
 -13  -7   2    0.97    0.16
  12  -7  -2    0.13    0.15
 -12  -7   2    0.09    0.13
  11  -7  -2    3.76    0.41
 -11  -7   2    3.76    0.34
 -11   7   2    4.53    0.33
 -11   7   2    3.43    0.31
  10  -7  -2   -0.09    0.12
 -10  -7   2   -0.02    0.11
  10  -7  -2   -0.09    0.09
 -10   7   2   -0.01    0.07
 -10   7   2   -0.05    0.08
  -9  -7   2    8.68    0.64
   9  -7  -2    8.80    0.60
  -9   7   2    9.78    0.64
  -9   7   2    8.64    0.61
   8  -7  -2    0.13    0.07
   8  -7  -2    0.04    0.09
  -8  -7   2    0.09    0.10
  -8   7   2    0.15    0.07
  -8   7   2    0.13    0.08
   7  -7  -2   42.24    2.43
  -7  -7   2   35.12    2.53
  -7  -7   2   38.08    2.60
  -7   7   2   36.45    2.46
  -7   7   2   43.11    2.60
  -6  -7   2    0.07    0.06
   6  -7  -2    0.05    0.08
  -6  -7   2    0.12    0.08
  -6   7   2    0.04    0.05
  -6   7   2    0.05    0.06
   5  -7  -2   22.73    1.29
  -5  -7   2   21.30    1.38
  -5  -7   2   18.17    1.34
  -5   7   2   21.25    1.30
  -5   7   2   19.25    1.34
  -4  -7   2    0.31    0.07
   4  -7  -2    0.29    0.08
   4  -7  -2    0.15    0.08
  -4  -7   2    0.31    0.05
  -4  -7   2    0.36    0.08
  -4   7   2    0.36    0.06
  -4   7   2    0.33    0.05
  -3  -7   2    1.12    0.12
   3  -7  -2    0.93    0.14
   3  -7  -2    1.00    0.12
  -3  -7   2    0.84    0.10
  -3   7   2    1.01    0.11
  -3   7   2    0.88    0.10
   2  -7  -2    0.79    0.10
   2  -7  -2    0.77    0.11
   2  -7  -2    0.91    0.10
  -2  -7   2    1.01    0.13
  -2  -7   2    0.77    0.11
  -2   7   2    0.87    0.11
   2   7  -2    0.95    0.10
  -2   7   2    0.84    0.10
   1  -7  -2   30.27    2.20
  -1  -7   2   33.94    1.95
  -1  -7   2   32.09    2.05
   1  -7  -2   32.13    2.05
   1  -7  -2   32.68    1.96
  -1   7   2   31.25    2.05
   1   7  -2   30.84    2.06
  -1   7   2   28.80    1.98
   0  -7  -2   -0.07    0.06
   0  -7  -2   -0.09    0.06
   0  -7   2   -0.01    0.05
   0  -7   2    0.02    0.06
   0   7   2   -0.09    0.04
   0   7  -2   -0.07    0.05
  -1  -7  -2   16.33    0.95
  -1  -7  -2   13.10    0.90
  -1  -7  -2   13.06    1.01
   1  -7   2   13.98    0.95
  -1  -7  -2   15.42    0.97
   1  -7   2   15.89    0.91
   1   7   2   13.09    1.07
  -1   7  -2   14.14    0.95
   2  -7   2    0.57    0.08
   2  -7   2    0.58    0.09
   2  -7   2    0.42    0.08
  -2  -7  -2    0.60    0.07
  -2  -7  -2    0.67    0.09
  -2  -7  -2    0.69    0.08
  -2  -7  -2    0.51    0.07
   2   7   2    0.44    0.07
  -2   7  -2    0.64    0.08
  -3  -7  -2    6.16    0.46
  -3  -7  -2    6.40    0.44
   3  -7   2    5.52    0.49
  -3  -7  -2    5.83    0.41
   3  -7   2    7.03    0.43
  -3  -7  -2    6.95    0.45
   3  -7   2    6.47    0.44
  -3   7  -2    6.03    0.43
   4  -7   2    0.04    0.07
  -4  -7  -2    0.06    0.08
  -4  -7  -2    0.08    0.06
   4  -7   2    0.02    0.08
   4  -7   2    0.08    0.06
  -4  -7  -2    0.07    0.05
  -4   7  -2    0.06    0.05
  -5  -7  -2   13.74    0.99
   5  -7   2   13.86    1.00
   5  -7   2   17.05    0.97
  -5  -7  -2   14.62    1.07
   5  -7   2   14.67    1.15
  -5  -7  -2   15.79    1.03
  -5   7  -2   16.25    1.03
  -5   7  -2   15.28    1.00
   6  -7   2    0.05    0.10
   6  -7   2    0.04    0.08
  -6  -7  -2    0.04    0.07
  -6  -7  -2    0.03    0.09
   6  -7   2    0.09    0.06
  -6   7  -2    0.08    0.05
  -6   7  -2    0.13    0.07
   7  -7   2    2.95    0.32
  -7  -7  -2    2.80    0.25
  -7  -7  -2    3.14    0.28
   7  -7   2    2.98    0.25
  -7   7  -2    3.08    0.25
  -7   7  -2    2.99    0.26
   8  -7   2    0.19    0.13
  -8  -7  -2    0.09    0.12
   8  -7   2    0.07    0.09
  -8   7  -2    0.19    0.09
  -8   7  -2    0.08    0.07
   9  -7   2    2.94    0.36
   9  -7   2    2.43    0.24
  -9  -7  -2    2.49    0.28
  -9   7  -2    2.79    0.26
  -9   7  -2    2.60    0.25
  10  -7   2    0.42    0.16
 -10  -7  -2    0.24    0.14
 -10   7  -2    0.16    0.10
  11  -7   2    0.69    0.20
 -11  -7  -2    0.87    0.17
 -11   7  -2    1.41    0.19
  12  -7   2    0.53    0.17
 -12  -7  -2    0.22    0.14
 -12   7  -2    0.07    0.12
 -13  -8   2    0.55    0.14
  13  -8  -2    0.85    0.19
 -12  -8   2    1.57    0.22
  12  -8  -2    1.97    0.29
  11  -8  -2    0.81    0.18
 -11  -8   2    0.82    0.15
  10  -8  -2    2.23    0.31
 -10  -8   2    2.08    0.25
  10  -8  -2    1.72    0.22
 -10   8   2    2.56    0.23
  -9  -8   2    1.35    0.16
   9  -8  -2    1.27    0.20
   9  -8  -2    1.13    0.15
  -9   8   2    1.33    0.16
   8  -8  -2   11.70    0.85
  -8  -8   2   12.91    0.87
   8  -8  -2   13.18    0.82
  -8   8   2   12.17    0.82
   7  -8  -2    1.42    0.18
  -7  -8   2    1.45    0.20
   7  -8  -2    1.36    0.17
  -7  -8   2    0.98    0.15
  -7   8   2    1.21    0.15
  -7   8   2    1.53    0.18
  -6  -8   2    8.61    0.65
   6  -8  -2   10.22    0.64
  -6  -8   2    9.89    0.68
   6  -8  -2    9.23    0.66
  -6   8   2    9.18    0.63
  -6   8   2   10.68    0.67
   5  -8  -2    0.39    0.09
  -5  -8   2    0.25    0.08
   5  -8  -2    0.35    0.09
  -5  -8   2    0.44    0.09
   5  -8  -2    0.45    0.09
  -5   8   2    0.30    0.05
  -5   8   2    0.39    0.07
  -4  -8   2    0.19    0.06
   4  -8  -2    0.28    0.09
  -4  -8   2    0.49    0.09
  -4  -8   2    0.29    0.08
   4  -8  -2    0.24    0.08
   4  -8  -2    0.34    0.08
  -4   8   2    0.40    0.06
  -4   8   2    0.33    0.05
   3  -8  -2    0.21    0.07
   3  -8  -2    0.21    0.08
  -3  -8   2    0.18    0.06
  -3  -8   2    0.18    0.07
   3  -8  -2    0.24    0.08
  -3   8   2    0.23    0.05
  -3   8   2    0.21    0.05
  -2  -8   2    3.96    0.28
   2  -8  -2    3.92    0.30
   2  -8  -2    3.72    0.31
   2  -8  -2    3.35    0.30
  -2   8   2    4.19    0.27
   2   8  -2    4.80    0.31
  -2   8   2    3.79    0.28
  -1  -8   2    0.10    0.07
   1  -8  -2    0.02    0.07
   1  -8  -2    0.04    0.07
  -1  -8   2    0.18    0.06
   1  -8  -2    0.07    0.06
  -1   8   2    0.22    0.05
   1   8  -2    0.13    0.07
  -1   8   2    0.20    0.05
   0  -8   2   27.21    1.59
   0  -8  -2   23.16    1.51
   0  -8   2   24.19    1.51
   0  -8  -2   26.54    1.59
   0   8   2   21.29    1.53
   0   8  -2   23.20    1.59
   1  -8   2    1.17    0.14
  -1  -8  -2    1.30    0.16
  -1  -8  -2    0.84    0.11
  -1  -8  -2    0.95    0.11
   1  -8   2    0.89    0.11
  -1  -8  -2    1.18    0.12
   1   8   2    0.91    0.10
  -1   8  -2    1.17    0.14
  -2  -8  -2    3.02    0.23
  -2  -8  -2    3.55    0.26
  -2  -8  -2    2.77    0.25
   2  -8   2    3.24    0.26
   2  -8   2    3.72    0.25
  -2  -8  -2    3.24    0.27
  -2   8  -2    3.31    0.25
   3  -8   2    0.17    0.07
   3  -8   2    0.15    0.07
  -3  -8  -2    0.25    0.09
   3  -8   2    0.13    0.07
  -3  -8  -2    0.12    0.07
  -3   8  -2    0.20    0.06
  -4  -8  -2    0.49    0.10
   4  -8   2    0.53    0.09
  -4  -8  -2    0.50    0.08
   4  -8   2    0.55    0.10
   4  -8   2    0.42    0.08
  -4   8  -2    0.37    0.07
  -5  -8  -2    0.94    0.11
   5  -8   2    1.14    0.19
  -5  -8  -2    1.35    0.18
   5  -8   2    1.47    0.17
   5  -8   2    1.26    0.15
  -5   8  -2    1.47    0.15
  -5   8  -2    1.50    0.16
   6  -8   2    0.68    0.11
   6  -8   2    0.68    0.13
   6  -8   2    0.53    0.09
  -6  -8  -2    0.72    0.12
  -6   8  -2    0.67    0.10
  -6   8  -2    0.58    0.09
   7  -8   2    0.82    0.15
  -7  -8  -2    0.84    0.13
   7  -8   2    0.70    0.12
  -7   8  -2    0.89    0.12
  -7   8  -2    0.77    0.10
   8  -8   2    1.52    0.19
   8  -8   2    1.70    0.23
  -8  -8  -2    1.54    0.22
  -8   8  -2    1.69    0.19
  -8   8  -2    1.67    0.20
   9  -8   2    1.55    0.21
   9  -8   2    2.10    0.32
  -9  -8  -2    1.77    0.23
  -9   8  -2    2.15    0.21
  -9   8  -2    1.95    0.22
 -10  -8  -2    5.11    0.44
  10  -8   2    5.57    0.50
 -10   8  -2    5.44    0.42
 -11  -8  -2    0.94    0.17
  11  -8   2    0.96    0.21
 -11   8  -2    1.30    0.19
  12  -8   2    0.34    0.15
 -12  -8  -2    0.19    0.13
 -12   8  -2   -0.03    0.11
 -12  -9   2    0.95    0.16
  12  -9  -2    1.64    0.27
  11  -9  -2    0.34    0.15
 -11  -9   2    0.47    0.14
  10  -9  -2    0.73    0.13
 -10  -9   2    0.83    0.15
  10  -9  -2    0.78    0.18
 -10   9   2    0.89    0.13
   9  -9  -2   -0.04    0.10
   9  -9  -2   -0.13    0.13
  -9  -9   2   -0.05    0.12
  -9   9   2    0.15    0.09
   8  -9  -2    1.94    0.21
   8  -9  -2    1.86    0.22
  -8  -9   2    1.96    0.23
  -8   9   2    2.25    0.21
  -7  -9   2    0.59    0.12
  -7  -9   2    0.42    0.10
   7  -9  -2    0.55    0.11
   7  -9  -2    0.99    0.15
   7  -9  -2    0.59    0.12
  -7   9   2    0.77    0.11
   6  -9  -2    1.31    0.18
   6  -9  -2    1.42    0.18
  -6  -9   2    1.08    0.14
  -6  -9   2    1.40    0.19
   6  -9  -2    1.50    0.17
  -6   9   2    1.23    0.17
  -5  -9   2    0.58    0.10
   5  -9  -2    0.38    0.09
   5  -9  -2    0.23    0.10
  -5  -9   2    0.25    0.09
   5  -9  -2    0.35    0.09
   4  -9  -2    0.10    0.08
   4  -9  -2    0.05    0.08
   4  -9  -2    0.13    0.07
  -4  -9   2    0.10    0.08
  -4  -9   2    0.09    0.05
  -4  -9   2    0.10    0.07
  -4   9   2    0.12    0.04
  -3  -9   2    0.84    0.10
   3  -9  -2    0.61    0.10
   3  -9  -2    0.90    0.12
   3  -9  -2    0.73    0.12
  -3  -9   2    0.81    0.11
  -3   9   2    1.03    0.11
  -3   9   2    0.80    0.11
   3   9  -2    1.10    0.15
   2  -9  -2    0.09    0.08
   2  -9  -2    0.06    0.08
  -2  -9   2    0.23    0.07
  -2  -9   2    0.15    0.07
  -2   9   2    0.22    0.05
  -2   9   2    0.17    0.05
   2   9  -2    0.22    0.07
   1  -9  -2    1.06    0.13
   1  -9  -2    1.26    0.19
  -1   9   2    1.41    0.13
  -1   9   2    1.35    0.15
   0  -9  -2    0.65    0.10
   0  -9   2    0.76    0.10
   0  -9  -2    0.61    0.11
   0  -9   2    0.77    0.10
   0   9  -2    0.70    0.10
   0   9   2    0.59    0.09
   0   9   2    0.67    0.08
  -1  -9  -2    7.14    0.48
  -1  -9  -2    6.49    0.45
   1  -9   2    7.33    0.46
   1  -9   2    6.98    0.48
   1   9   2    6.14    0.45
  -1   9  -2    6.58    0.47
   2  -9   2   -0.01    0.07
  -2  -9  -2    0.03    0.08
   2  -9   2   -0.06    0.06
  -2  -9  -2   -0.05    0.06
  -2  -9  -2   -0.01    0.08
   2   9   2   -0.08    0.07
  -2   9  -2    0.07    0.06
  -3  -9  -2   -0.02    0.08
   3  -9   2   -0.03    0.06
   3  -9   2   -0.01    0.07
  -3  -9  -2    0.01    0.07
  -3   9  -2    0.04    0.05
  -4  -9  -2    0.59    0.10
   4  -9   2    0.76    0.11
   4  -9   2    0.83    0.11
  -4  -9  -2    0.66    0.11
   4  -9   2    0.57    0.10
  -4   9  -2    0.63    0.09
   5  -9   2    0.00    0.08
   5  -9   2    0.04    0.07
  -5  -9  -2    0.03    0.06
   5  -9   2    0.13    0.09
  -5  -9  -2    0.03    0.09
  -5   9  -2    0.11    0.07
  -5   9  -2    0.03    0.06
   6  -9   2    1.03    0.14
  -6  -9  -2    1.11    0.14
   6  -9   2    1.07    0.16
   6  -9   2    0.94    0.14
  -6   9  -2    1.13    0.16
  -6   9  -2    1.15    0.14
  -7  -9  -2    0.69    0.13
   7  -9   2    0.81    0.15
   7  -9   2    0.71    0.12
  -7   9  -2    0.63    0.11
  -7   9  -2    0.54    0.09
   8  -9   2    1.22    0.19
  -8  -9  -2    1.15    0.16
   8  -9   2    1.11    0.15
  -8   9  -2    1.11    0.16
  -8   9  -2    1.23    0.18
   9  -9   2    1.10    0.16
  -9  -9  -2    1.08    0.17
  -9   9  -2    1.51    0.20
 -10  -9  -2    3.11    0.31
  10  -9   2    3.35    0.36
 -10   9  -2    3.28    0.29
 -11  -9  -2    0.52    0.13
  11  -9   2    0.65    0.17
 -11   9  -2    0.64    0.14
 -12 -10   2    1.87    0.24
  12 -10  -2    2.70    0.32
 -11 -10   2    0.01    0.12
  11 -10  -2    0.16    0.13
  11 -10  -2    0.05    0.09
 -10 -10   2    3.05    0.30
  10 -10  -2    3.64    0.36
  10 -10  -2    2.99    0.27
   9 -10  -2    0.15    0.11
  -9 -10   2    0.12    0.12
   9 -10  -2    0.21    0.12
  -9  10   2    0.29    0.09
   8 -10  -2    8.70    0.58
   8 -10  -2    8.11    0.60
   8 -10  -2    8.67    0.64
  -8 -10   2    8.14    0.62
  -8  10   2    8.80    0.61
  -7 -10   2    0.29    0.09
  -7 -10   2    0.27    0.11
   7 -10  -2    0.17    0.09
   7 -10  -2    0.26    0.10
  -7  10   2    0.14    0.08
  -6 -10   2   10.31    0.79
   6 -10  -2   11.60    0.78
   6 -10  -2   12.30    0.75
  -6 -10   2   10.25    0.77
  -6  10   2   12.20    0.79
  -5 -10   2    0.27    0.10
   5 -10  -2    0.30    0.09
  -5 -10   2    0.23    0.09
   5 -10  -2    0.22    0.09
  -4 -10   2    4.55    0.37
   4 -10  -2    5.16    0.38
   4 -10  -2    5.12    0.36
   4  10  -2    4.85    0.37
  -3 -10   2    0.08    0.07
   3 -10  -2    0.13    0.08
  -3 -10   2    0.19    0.08
   3 -10  -2    0.14    0.08
  -3  10   2    0.16    0.05
   3  10  -2    0.12    0.08
   2 -10  -2    3.22    0.27
  -2 -10   2    3.38    0.28
  -2 -10   2    2.89    0.25
   2 -10  -2    3.58    0.29
  -2  10   2    3.08    0.25
   2  10  -2    3.69    0.28
  -1 -10   2    0.06    0.07
  -1 -10   2   -0.01    0.07
  -1  10   2   -0.01    0.06
   0 -10  -2   34.47    2.03
   0 -10   2   34.23    2.03
   0 -10  -2   35.27    2.14
   0 -10   2   31.00    2.13
   0  10   2   27.77    2.13
   0  10  -2   32.98    2.13
  -1 -10  -2    0.59    0.10
  -1 -10  -2    0.66    0.11
   1 -10   2    0.71    0.10
   1 -10   2    0.70    0.11
   1  10   2    0.63    0.10
  -1  10  -2    0.68    0.10
   2 -10   2    3.80    0.29
  -2 -10  -2    3.52    0.27
   2 -10   2    3.73    0.29
  -2 -10  -2    3.65    0.30
  -2  10  -2    3.77    0.29
  -3 -10  -2    0.25    0.09
   3 -10   2    0.18    0.08
   3 -10   2    0.24    0.08
  -3 -10  -2    0.11    0.08
  -3  10  -2    0.18    0.06
   3  10   2   -0.02    0.08
   4 -10   2    6.31    0.47
   4 -10   2    7.27    0.46
  -4 -10  -2    6.66    0.47
  -4 -10  -2    6.31    0.48
  -4  10  -2    6.26    0.46
   5 -10   2   -0.05    0.08
   5 -10   2   -0.01    0.07
  -5 -10  -2    0.00    0.09
  -5  10  -2    0.08    0.06
  -5  10  -2    0.03    0.07
  -6 -10  -2    1.85    0.22
   6 -10   2    1.67    0.19
   6 -10   2    1.84    0.20
  -6  10  -2    1.87    0.18
  -6  10  -2    1.91    0.20
   7 -10   2    0.17    0.11
   7 -10   2   -0.05    0.09
  -7 -10  -2    0.01    0.11
  -7  10  -2    0.09    0.09
  -7  10  -2   -0.02    0.06
   8 -10   2    3.37    0.29
  -8 -10  -2    3.05    0.30
  -8  10  -2    3.55    0.30
   9 -10   2   -0.09    0.11
  -9 -10  -2    0.08    0.13
   9 -10   2    0.29    0.12
  -9  10  -2    0.10    0.10
  10 -10   2    1.96    0.30
 -10 -10  -2    1.86    0.23
 -10  10  -2    2.09    0.23
  11 -11  -2    0.65    0.13
 -11 -11   2    1.16    0.16
  10 -11  -2    0.14    0.12
 -10 -11   2    0.08    0.13
  10 -11  -2    0.18    0.10
   9 -11  -2    4.61    0.40
  -9 -11   2    3.67    0.34
   9 -11  -2    3.70    0.32
   8 -11  -2    0.19    0.11
  -8 -11   2    0.16    0.12
   8 -11  -2    0.08    0.09
   8 -11  -2    0.10    0.11
  -8  11   2    0.21    0.08
  -7 -11   2    8.05    0.61
   7 -11  -2    8.38    0.59
  -7 -11   2    7.79    0.59
   7 -11  -2    8.90    0.58
  -7  11   2    8.65    0.60
   6 -11  -2    0.03    0.09
   6 -11  -2   -0.01    0.08
  -6 -11   2   -0.03    0.08
  -6  11   2   -0.02    0.07
   5 -11  -2    6.25    0.44
   5 -11  -2    6.22    0.45
  -5 -11   2    5.68    0.45
   5  11  -2    6.09    0.46
   4 -11  -2    0.03    0.08
  -4 -11   2    0.11    0.09
   4 -11  -2   -0.02    0.08
   4  11  -2    0.09    0.08
   3 -11  -2    0.36    0.10
  -3 -11   2    0.21    0.08
  -3 -11   2    0.37    0.10
   3 -11  -2    0.31    0.10
  -3  11   2    0.28    0.06
   3  11  -2    0.29    0.08
  -2 -11   2    0.01    0.07
   2 -11  -2   -0.01    0.08
  -2 -11   2    0.02    0.08
   2 -11  -2   -0.11    0.08
   2  11  -2    0.03    0.07
  -2  11   2   -0.04    0.05
   1 -11  -2    3.50    0.29
  -1 -11   2    3.52    0.27
   1 -11  -2    3.17    0.28
  -1 -11   2    3.61    0.28
   1  11  -2    3.36    0.28
  -1  11   2    3.01    0.26
   0 -11   2    0.11    0.08
   0 -11   2    0.08    0.08
   0 -11  -2    0.03    0.09
   0 -11  -2   -0.04    0.08
   0  11  -2    0.13    0.07
   0  11   2    0.11    0.07
  -1 -11  -2    0.61    0.11
  -1 -11  -2    0.62    0.10
   1 -11   2    0.70    0.11
   1 -11   2    0.65    0.11
  -1  11  -2    0.59    0.10
   1  11   2    0.53    0.09
  -2 -11  -2    0.20    0.09
   2 -11   2    0.12    0.08
   2 -11   2    0.08    0.08
  -2  11  -2    0.18    0.08
   3 -11   2    3.67    0.28
  -3 -11  -2    3.44    0.29
   3 -11   2    3.37    0.28
  -3  11  -2    3.34    0.27
   4 -11   2    0.13    0.09
  -4 -11  -2    0.15    0.10
   4 -11   2    0.11    0.08
  -4 -11  -2    0.04    0.08
  -4  11  -2    0.13    0.06
  -5 -11  -2    3.71    0.30
   5 -11   2    3.23    0.29
   5 -11   2    3.23    0.28
  -5  11  -2    3.53    0.28
  -5  11  -2    3.73    0.29
   6 -11   2    0.18    0.09
  -6 -11  -2    0.08    0.10
   6 -11   2    0.12    0.10
  -6  11  -2    0.08    0.06
  -6  11  -2    0.09    0.08
  -7 -11  -2    0.53    0.14
   7 -11   2    0.47    0.12
  -7  11  -2    0.52    0.11
  -8 -11  -2    0.18    0.14
   8 -11   2    0.20    0.11
  -8  11  -2    0.44    0.11
   9 -11   2    1.21    0.17
  -9 -11  -2    1.07    0.17
  -9  11  -2    1.61    0.20
 -10 -11  -2    0.18    0.13
 -10  11  -2    0.04    0.10
 -10 -12   2   -0.02    0.13
  10 -12  -2   -0.04    0.09
  -9 -12   2    0.40    0.15
   9 -12  -2    0.33    0.11
   8 -12  -2    0.36    0.11
   8 -12  -2    0.23    0.10
   7 -12  -2    0.17    0.11
   7 -12  -2    0.14    0.10
  -7  12   2    0.18    0.08
   7  12  -2    0.22    0.12
  -6 -12   2    0.11    0.10
   6 -12  -2    0.06    0.11
   6 -12  -2    0.12    0.10
   6  12  -2    0.00    0.10
  -6  12   2    0.08    0.08
   5 -12  -2    0.02    0.10
  -5 -12   2    0.09    0.09
   5 -12  -2    0.09    0.09
   5  12  -2    0.03    0.09
   4 -12  -2    0.18    0.10
   4 -12  -2    0.16    0.10
  -4 -12   2    0.19    0.10
   4  12  -2    0.13    0.09
  -3 -12   2   -0.09    0.09
   3 -12  -2   -0.05    0.09
   3 -12  -2   -0.07    0.09
   3  12  -2    0.01    0.08
   2 -12  -2    0.09    0.10
   2 -12  -2    0.03    0.09
  -2 -12   2    0.24    0.09
  -2 -12   2    0.31    0.10
  -2  12   2    0.22    0.07
   2  12  -2    0.11    0.09
   1 -12  -2   -0.22    0.10
  -1 -12   2    0.27    0.10
  -1 -12   2    0.20    0.09
   1  12  -2    0.11    0.08
  -1  12   2    0.11    0.07
   0 -12  -2    0.01    0.10
   0 -12  -2   -0.06    0.08
   0  12   2   -0.02    0.08
   0  12  -2    0.10    0.08
   1 -12   2    0.27    0.10
   1 -12   2    0.15    0.09
  -1 -12  -2    0.08    0.08
  -1 -12  -2    0.17    0.10
   1  12   2    0.23    0.08
  -1  12  -2    0.20    0.08
  -2 -12  -2    2.05    0.22
   2 -12   2    2.06    0.21
   2 -12   2    1.89    0.21
  -2  12  -2    1.90    0.19
   2  12   2    1.71    0.21
   3 -12   2   -0.02    0.09
   3 -12   2   -0.03    0.08
  -3 -12  -2   -0.10    0.08
  -3  12  -2    0.01    0.07
   4 -12   2   -0.02    0.09
   4 -12   2    0.06    0.08
  -4 -12  -2    0.05    0.08
  -4  12  -2    0.07    0.06
  -5 -12  -2    0.47    0.12
   5 -12   2    0.38    0.11
   5 -12   2    0.43    0.10
  -5  12  -2    0.47    0.10
  -5  12  -2    0.40    0.08
   6 -12   2    0.08    0.10
  -6 -12  -2    0.05    0.12
   6 -12   2    0.01    0.09
  -6  12  -2    0.12    0.09
  -6  12  -2    0.16    0.07
   7 -12   2    0.27    0.11
  -7 -12  -2    0.13    0.13
  -7  12  -2    0.33    0.10
   8 -12   2    0.57    0.13
  -8 -12  -2    0.56    0.15
  -8  12  -2    0.54    0.12
   9 -12   2    0.29    0.12
  -9 -12  -2    0.40    0.14
  -9  12  -2    0.55    0.12
   9 -13  -2    0.90    0.14
   8 -13  -2    0.10    0.09
   8 -13  -2    0.06    0.10
   8  13  -2    0.21    0.12
   7 -13  -2    4.33    0.38
   7 -13  -2    4.66    0.37
   7  13  -2    5.64    0.41
  -6 -13   2    0.05    0.10
   6 -13  -2    0.22    0.11
   6 -13  -2    0.13    0.10
  -6  13   2    0.04    0.08
   6  13  -2    0.20    0.11
   5 -13  -2    2.29    0.25
  -5 -13   2    2.34    0.25
   5 -13  -2    2.30    0.24
   5  13  -2    2.41    0.24
   4 -13  -2   -0.05    0.10
   4 -13  -2    0.02    0.10
  -4 -13   2   -0.11    0.10
   4  13  -2   -0.06    0.09
   3 -13  -2    2.79    0.27
  -3 -13   2    2.99    0.27
   3 -13  -2    2.66    0.26
   3  13  -2    2.79    0.26
  -2 -13   2   -0.09    0.10
   2 -13  -2   -0.20    0.10
  -2 -13   2   -0.05    0.08
   2 -13  -2   -0.11    0.09
   2  13  -2   -0.06    0.08
   1 -13  -2    2.79    0.28
  -1 -13   2    3.78    0.29
   1 -13  -2    2.61    0.29
  -1 -13   2    3.20    0.26
   1  13  -2    3.53    0.28
  -1  13   2    2.82    0.26
   0 -13  -2   -0.15    0.09
   0 -13   2    0.09    0.10
   0 -13  -2   -0.17    0.10
   0 -13   2    0.18    0.10
   0  13  -2    0.02    0.09
   0  13   2    0.13    0.08
   1 -13   2    5.99    0.44
   1 -13   2    6.02    0.42
  -1 -13  -2    5.80    0.44
  -1  13  -2    5.56    0.43
   1  13   2    5.61    0.43
   2 -13   2   -0.01    0.09
   2 -13   2   -0.05    0.09
  -2 -13  -2    0.04    0.09
   2  13   2   -0.04    0.08
  -2  13  -2    0.05    0.07
   3 -13   2    1.64    0.20
  -3 -13  -2    1.53    0.20
   3 -13   2    1.61    0.20
  -3  13  -2    1.51    0.17
   3  13   2    1.79    0.20
   4 -13   2    0.13    0.10
   4 -13   2    0.06    0.09
  -4 -13  -2    0.07    0.09
   4  13   2    0.07    0.10
  -4  13  -2    0.07    0.07
   5 -13   2    2.09    0.22
   5 -13   2    1.79    0.21
  -5  13  -2    1.95    0.21
  -5  13  -2    1.79    0.19
   6 -13   2   -0.13    0.09
   6 -13   2    0.01    0.11
  -6  13  -2    0.01    0.08
  -7 -13  -2    1.75    0.24
   7 -13   2    2.05    0.22
  -7  13  -2    2.34    0.22
  -8 -13  -2   -0.23    0.12
   8 -13   2   -0.01    0.10
  -8  13  -2   -0.12    0.09
   8 -14  -2    0.76    0.12
   8 -14  -2    0.63    0.13
   7 -14  -2    0.05    0.10
   7 -14  -2    0.05    0.10
   7  14  -2    0.09    0.10
   6 -14  -2    1.03    0.16
  -6 -14   2    1.09    0.16
   6 -14  -2    1.40    0.19
   6  14  -2    1.41    0.20
   5 -14  -2    0.11    0.11
  -5 -14   2   -0.08    0.10
   5 -14  -2   -0.02    0.10
   5  14  -2    0.00    0.10
   4 -14  -2    2.22    0.25
  -4 -14   2    2.26    0.24
   4 -14  -2    2.01    0.24
   4  14  -2    2.22    0.24
  -3 -14   2   -0.07    0.10
   3 -14  -2   -0.05    0.10
   3 -14  -2    0.05    0.10
   3  14  -2    0.07    0.09
  -2 -14   2    0.94    0.15
   2 -14  -2    0.70    0.15
   2 -14  -2    0.78    0.14
   2  14  -2    0.63    0.13
  -1 -14   2   -0.08    0.10
   1 -14  -2   -0.22    0.09
   1 -14  -2   -0.25    0.10
  -1 -14   2   -0.14    0.09
   1  14  -2   -0.10    0.09
   0 -14  -2    3.54    0.30
   0 -14  -2    3.94    0.32
   0 -14   2    3.75    0.32
   0 -14   2    3.46    0.30
   0  14  -2    3.63    0.30
   0  14   2    3.66    0.30
   1 -14   2    0.29    0.10
   1 -14   2    0.27    0.12
  -1 -14  -2    0.38    0.12
   1  14   2    0.49    0.10
  -1  14  -2    0.22    0.09
  -2 -14  -2    1.46    0.19
   2 -14   2    1.10    0.16
   2 -14   2    1.32    0.18
  -2  14  -2    1.20    0.16
   2  14   2    1.35    0.19
   3 -14   2   -0.05    0.09
  -3 -14  -2    0.02    0.09
   3 -14   2   -0.06    0.10
   3  14   2    0.16    0.09
  -3  14  -2   -0.03    0.07
   4 -14   2    0.69    0.13
   4 -14   2    0.60    0.12
  -4 -14  -2    0.61    0.13
  -4  14  -2    0.59    0.10
   4  14   2    0.64    0.12
   5 -14   2    0.19    0.10
   5 -14   2    0.03    0.09
  -5  14  -2    0.00    0.08
   5  14   2    0.19    0.10
   6 -14   2    0.29    0.11
   6  14   2    0.17    0.12
  -6  14  -2    0.15    0.09
   7 -14   2    0.09    0.10
  -7  14  -2    0.02    0.09
   7  14   2    0.12    0.12
   6 -15  -2   -0.06    0.10
   6 -15  -2    0.23    0.11
   6  15  -2    0.10    0.11
  -5 -15   2    0.45    0.12
   5 -15  -2    0.39    0.12
   5 -15  -2    0.50    0.12
   5  15  -2    0.53    0.13
   4 -15  -2   -0.03    0.10
   4 -15  -2    0.02    0.10
  -4 -15   2    0.09    0.10
   4  15  -2   -0.06    0.09
   3 -15  -2   -0.03    0.10
   3 -15  -2   -0.05    0.10
  -3 -15   2    0.05    0.10
   3  15  -2   -0.18    0.09
  -2 -15   2    0.13    0.11
   2 -15  -2   -0.17    0.09
   2  15  -2   -0.13    0.09
   1 -15  -2    1.43    0.19
  -1 -15   2    1.51    0.18
   1 -15  -2    1.06    0.16
  -1 -15   2    1.71    0.21
   1  15  -2    1.17    0.18
   0 -15  -2    0.08    0.11
   0 -15   2    0.13    0.11
   0 -15   2    0.15    0.10
   0  15  -2    0.22    0.09
   1 -15   2    0.02    0.10
  -1 -15  -2    0.04    0.10
   1 -15   2    0.19    0.11
  -1  15  -2    0.18    0.08
  -2 -15  -2   -0.01    0.09
   2 -15   2   -0.05    0.10
   2 -15   2    0.10    0.11
   2  15   2    0.26    0.09
  -2  15  -2    0.03    0.07
   3 -15   2    0.26    0.11
  -3 -15  -2    0.30    0.11
   3 -15   2    0.17    0.10
  -3  15  -2    0.14    0.08
   3  15   2    0.08    0.10
   4 -15   2    0.12    0.10
   4 -15   2    0.10    0.10
   4  15   2    0.02    0.10
   5 -15   2    0.59    0.12
   5 -15   2    0.53    0.12
  -5  15  -2    0.46    0.11
   4 -16  -2    0.14    0.11
   4 -16  -2    0.06    0.11
  -4 -16   2    0.27    0.12
   4  16  -2   -0.08    0.10
   3 -16  -2   -0.21    0.10
  -3 -16   2    0.07    0.10
   3 -16  -2   -0.07    0.10
   3  16  -2   -0.20    0.10
  -2 -16   2    1.66    0.21
   2 -16  -2    1.24    0.18
   2 -16  -2    0.88    0.16
   2  16  -2    1.28    0.19
  -1 -16   2    0.18    0.11
   1 -16  -2   -0.28    0.12
   1  16  -2    0.11    0.10
   0 -16  -2    6.95    0.51
   0 -16   2    7.16    0.51
   0 -16   2    6.58    0.48
   0  16  -2    6.35    0.49
   1 -16   2   -0.11    0.10
  -1 -16  -2   -0.04    0.10
   1 -16   2   -0.11    0.10
  -1  16  -2    0.07    0.08
  -2 -16  -2    1.80    0.22
   2 -16   2    1.76    0.22
   2 -16   2    1.54    0.21
   3 -16   2   -0.05    0.10
  -3 -16  -2    0.04    0.10
   3 -16   2   -0.06    0.11
   3  16   2    0.37    0.10
  15   0  -3    0.03    0.12
 -15   0   3   -0.09    0.10
  14   0  -3    0.38    0.12
 -14   0   3    0.01    0.09
 -13   0   3    2.68    0.28
  13   0  -3    3.76    0.36
 -13   0   3    3.04    0.29
 -12   0   3   -0.12    0.10
  12   0  -3    0.01    0.12
 -12   0   3   -0.05    0.09
 -11   0   3    4.48    0.34
 -11   0   3    3.86    0.35
  11   0  -3    4.41    0.41
 -10   0   3   -0.07    0.08
 -10   0   3   -0.02    0.10
  10   0  -3   -0.10    0.09
 -10   0   3   -0.11    0.07
  -9   0   3    2.61    0.22
  -9   0   3    1.79    0.23
  -9   0   3    2.65    0.27
  -8   0   3    0.03    0.07
  -8   0   3   -0.14    0.06
  -7   0   3    1.00    0.16
  -7   0   3    1.14    0.18
  -7   0   3    1.31    0.14
   7   0  -3    0.93    0.12
  -7   0   3    0.76    0.12
  -6   0   3   -0.04    0.05
  -6   0   3   -0.05    0.05
  -6   0   3   -0.04    0.06
  -6   0   3   -0.08    0.07
   6   0  -3   -0.04    0.04
   5   0  -3    0.89    0.11
  -5   0   3    0.71    0.11
  -5   0   3    0.84    0.09
  -5   0   3    1.15    0.12
  -5   0   3    1.02    0.11
  -4   0   3   -0.11    0.06
  -4   0   3   -0.07    0.05
  -4   0   3   -0.04    0.05
  -4   0   3   -0.08    0.04
  -3   0   3    1.27    0.15
  -3   0   3    1.40    0.12
  -3   0   3    1.00    0.14
  -2   0   3   -0.17    0.05
   2   0  -3   -0.30    0.04
  -2   0   3   -0.28    0.03
  -2   0   3   -0.23    0.04
  -2   0   3   -0.28    0.04
   1   0  -3    2.89    0.21
  -1   0   3    2.82    0.22
  -1   0   3    2.31    0.22
   0   0   3   -0.07    0.04
   0   0  -3   -0.05    0.05
  -1   0  -3   -0.06    0.04
  -1   0  -3    0.05    0.05
  -1   0  -3    0.02    0.04
   1   0   3    0.09    0.05
  -2   0  -3   -0.04    0.05
  -2   0  -3   -0.10    0.06
  -2   0  -3   -0.02    0.04
  -3   0  -3    0.11    0.06
   3   0   3   -0.07    0.07
  -3   0  -3   -0.02    0.06
  -3   0  -3    0.00    0.05
  -4   0  -3    1.47    0.18
  -4   0  -3    1.56    0.17
  -4   0  -3    1.20    0.16
   4   0   3    1.45    0.20
   5   0   3   23.28    1.68
  -5   0  -3   23.59    1.59
  -5   0  -3   22.65    1.48
  -5   0  -3   20.27    1.51
  -6   0  -3    0.02    0.06
  -6   0  -3    0.00    0.06
  -6   0  -3   -0.10    0.07
   6   0   3    0.03    0.09
  -7   0  -3    0.00    0.08
   7   0   3    0.08    0.10
  -7   0  -3    0.04    0.06
  -7   0  -3    0.08    0.07
   8   0   3   -0.04    0.11
  -8   0  -3   -0.02    0.09
  -8   0  -3    0.09    0.08
  -9   0  -3    5.34    0.41
  -9   0  -3    5.09    0.42
   9   0   3    5.32    0.47
  10   0   3    0.30    0.14
 -10   0  -3    0.24    0.10
 -10   0  -3    0.17    0.11
 -11   0  -3    8.78    0.63
  11   0   3    8.33    0.71
 -12   0  -3    0.04    0.12
  12   0   3    0.11    0.14
  13   0   3    2.57    0.32
 -13   0  -3    2.46    0.26
 -14  -1   3   -0.11    0.10
  14  -1  -3    0.10    0.13
 -14   1   3    0.13    0.10
 -13  -1   3    9.51    0.70
  13  -1  -3   10.62    0.83
 -13  -1   3   10.40    0.73
  13   1  -3   11.60    0.83
 -13   1   3    8.90    0.70
 -13   1   3   10.36    0.73
 -12  -1   3    3.00    0.29
 -12  -1   3    3.02    0.27
  12  -1  -3    3.21    0.34
  12   1  -3    3.28    0.34
 -12   1   3    2.79    0.27
 -12   1   3    2.91    0.29
  11  -1  -3   12.04    0.92
 -11  -1   3   11.87    0.78
 -11  -1   3   11.51    0.82
  11   1  -3   11.65    0.91
 -11   1   3   11.15    0.78
 -11   1   3   11.81    0.82
 -10  -1   3    0.32    0.10
 -10  -1   3    0.34    0.12
 -10  -1   3    0.44    0.10
  10  -1  -3    0.31    0.11
 -10   1   3    0.41    0.12
  10   1  -3    0.24    0.10
 -10   1   3    0.48    0.10
 -10   1   3    0.36    0.09
  -9  -1   3   15.69    1.04
  -9  -1   3   15.72    1.09
  -9  -1   3   14.98    1.17
  -9   1   3   16.10    1.04
  -9   1   3   15.60    1.09
  -9   1   3   17.42    1.17
   9   1  -3   16.54    1.22
  -8  -1   3    2.04    0.18
  -8  -1   3    1.73    0.16
   8  -1  -3    1.67    0.17
  -8  -1   3    1.97    0.21
  -8  -1   3    1.89    0.23
  -8   1   3    2.16    0.24
  -8   1   3    2.17    0.20
  -8   1   3    1.59    0.19
   7  -1  -3   13.71    0.95
  -7  -1   3   14.13    1.00
  -7  -1   3   16.34    0.98
  -7  -1   3   15.59    1.10
  -7  -1   3   14.94    1.03
  -7   1   3   16.55    0.98
  -7   1   3   14.09    1.03
  -7   1   3   16.71    1.10
  -6  -1   3    0.60    0.10
  -6  -1   3    0.81    0.12
  -6  -1   3    0.81    0.09
   6  -1  -3    0.84    0.11
  -6  -1   3    0.79    0.12
  -6   1   3    0.78    0.09
  -6   1   3    0.82    0.10
  -6   1   3    0.89    0.12
   5  -1  -3   44.48    2.86
  -5  -1   3   47.48    3.28
  -5  -1   3   47.87    2.91
  -5  -1   3   43.96    3.08
  -5  -1   3   48.92    3.01
  -5   1   3   46.03    3.08
  -5   1   3   48.42    2.92
  -5   1   3   43.36    3.01
  -5   1   3   47.67    3.28
  -4  -1   3    0.05    0.06
  -4  -1   3    0.03    0.04
  -4  -1   3    0.04    0.05
  -4  -1   3    0.00    0.05
   4  -1  -3    0.06    0.04
  -4   1   3    0.10    0.06
  -4   1   3    0.11    0.05
  -4   1   3    0.06    0.05
  -4   1   3    0.12    0.04
  -3  -1   3   10.39    0.72
  -3  -1   3    9.46    0.66
  -3  -1   3    9.40    0.64
  -3   1   3   11.29    0.72
  -3   1   3    9.51    0.66
  -2  -1   3    0.15    0.05
  -2  -1   3    0.24    0.03
  -2  -1   3    0.13    0.04
   2  -1  -3    0.17    0.05
  -2   1   3    0.13    0.05
  -2   1   3    0.17    0.04
   2   1  -3    0.17    0.04
  -2   1   3    0.17    0.05
  -2   1   3    0.26    0.05
   1  -1  -3   58.70    3.82
  -1  -1   3   50.38    3.54
  -1   1   3   51.32    3.54
  -1   1   3   58.87    3.43
  -1   1   3   55.00    3.86
   0  -1  -3    0.60    0.07
   0  -1   3    0.42    0.05
   0   1  -3    0.41    0.05
   0   1  -3    0.51    0.06
   1  -1   3    2.99    0.19
  -1  -1  -3    2.74    0.21
  -1  -1  -3    2.45    0.20
   1  -1   3    2.91    0.24
  -1   1  -3    2.49    0.21
   1   1   3    3.01    0.24
  -1   1  -3    2.78    0.22
  -1   1  -3    2.78    0.20
  -2  -1  -3    0.45    0.07
  -2  -1  -3    0.62    0.07
   2  -1   3    0.43    0.06
  -2  -1  -3    0.47    0.07
   2  -1   3    0.50    0.09
   2   1   3    0.45    0.08
  -2   1  -3    0.64    0.07
  -2   1  -3    0.45    0.07
  -2   1  -3    0.72    0.10
   3  -1   3    0.33    0.09
   3  -1   3    0.41    0.05
  -3   1  -3    0.43    0.07
  -3   1  -3    0.43    0.08
   3   1   3    0.28    0.08
  -4  -1  -3    5.14    0.37
   4  -1   3    5.43    0.41
  -4  -1  -3    4.95    0.35
  -4  -1  -3    5.58    0.37
   4  -1   3    4.39    0.32
  -4   1  -3    4.73    0.35
  -4   1  -3    4.53    0.36
  -4   1  -3    5.11    0.37
   4   1   3    4.06    0.40
   5  -1   3   36.71    2.33
  -5  -1  -3   42.10    2.65
  -5  -1  -3   35.90    2.46
  -5  -1  -3   35.22    2.52
   5  -1   3   40.70    2.79
  -5   1  -3   39.63    2.52
  -5   1  -3   36.36    2.46
   5   1   3   33.33    2.79
  -5   1  -3   39.84    2.64
  -6  -1  -3    2.02    0.20
   6  -1   3    2.20    0.24
  -6  -1  -3    1.59    0.21
  -6  -1  -3    1.89    0.19
  -6   1  -3    1.65    0.19
  -6   1  -3    1.90    0.19
   6   1   3    1.80    0.24
  -6   1  -3    2.12    0.20
  -7  -1  -3    0.41    0.10
  -7  -1  -3    0.34    0.09
   7  -1   3    0.33    0.11
  -7  -1  -3    0.29    0.08
  -7   1  -3    0.38    0.08
   7   1   3    0.44    0.12
  -7   1  -3    0.42    0.10
  -8  -1  -3    3.33    0.28
   8  -1   3    3.24    0.34
  -8  -1  -3    3.00    0.29
  -8   1  -3    3.27    0.27
  -8   1  -3    3.39    0.29
  -9  -1  -3    4.41    0.35
   9  -1   3    4.67    0.42
  -9  -1  -3    4.59    0.37
  -9   1  -3    4.61    0.37
  -9   1  -3    3.89    0.35
   9   1   3    4.33    0.41
 -10  -1  -3    3.54    0.32
  10  -1   3    4.26    0.40
 -10   1  -3    3.95    0.33
  10   1   3    2.74    0.37
 -10   1  -3    3.81    0.32
 -11  -1  -3    9.55    0.67
  11  -1   3    8.56    0.74
 -11   1  -3    8.92    0.65
 -11   1  -3    8.60    0.66
  11   1   3    9.62    0.75
  12  -1   3    0.23    0.14
 -12  -1  -3    0.25    0.13
  12   1   3    0.00    0.14
 -12   1  -3    0.11    0.12
  13  -1   3    2.31    0.32
 -13  -1  -3    2.34    0.25
 -13   1  -3    2.08    0.25
 -15   2   3    0.08    0.10
 -14  -2   3    0.70    0.14
  14  -2  -3    1.16    0.19
 -14  -2   3    1.03    0.15
 -14   2   3    0.80    0.14
 -13  -2   3    0.16    0.12
  13  -2  -3    0.26    0.13
 -13  -2   3    0.21    0.11
 -13   2   3    0.18    0.10
 -12  -2   3   15.83    1.06
  12  -2  -3   14.96    1.19
 -12  -2   3   15.31    1.01
 -12   2   3   13.83    1.01
 -12   2   3   15.42    1.06
  12   2  -3   16.51    1.19
  11  -2  -3    0.01    0.11
 -11  -2   3    0.06    0.09
 -11  -2   3    0.03    0.10
 -11   2   3   -0.05    0.09
 -11   2   3    0.02    0.08
  11   2  -3   -0.03    0.10
 -10  -2   3    2.11    0.22
 -10  -2   3    2.05    0.21
 -10  -2   3    2.33    0.26
 -10   2   3    2.00    0.20
  10   2  -3    2.04    0.25
 -10   2   3    2.17    0.22
  -9  -2   3    0.20    0.09
  -9  -2   3    0.14    0.08
  -9  -2   3    0.03    0.09
  -9   2   3    0.12    0.07
  -9   2   3    0.07    0.10
   9   2  -3    0.05    0.09
  -9   2   3    0.18    0.08
   8  -2  -3   37.47    2.56
  -8  -2   3   40.45    2.61
  -8  -2   3   45.70    2.75
  -8  -2   3   44.46    2.94
  -8   2   3   38.45    2.61
  -8   2   3   41.83    2.94
   8   2  -3   40.01    3.06
  -8   2   3   42.40    2.75
  -7  -2   3   -0.09    0.07
   7  -2  -3    0.02    0.05
  -7  -2   3    0.01    0.07
  -7  -2   3   -0.01    0.05
  -7  -2   3   -0.02    0.06
  -7   2   3   -0.05    0.06
  -7   2   3    0.01    0.06
  -7   2   3   -0.03    0.07
  -7   2   3   -0.01    0.03
  -6  -2   3   33.77    2.22
  -6  -2   3   36.02    2.27
  -6  -2   3   35.16    2.42
  -6  -2   3   37.08    2.15
   6  -2  -3   34.08    2.11
  -6   2   3   31.83    2.27
  -6   2   3   34.10    2.42
  -6   2   3   30.88    2.21
  -6   2   3   34.58    2.15
   5  -2  -3    0.04    0.05
  -5  -2   3    0.07    0.06
  -5  -2   3   -0.01    0.05
  -5  -2   3    0.02    0.05
  -5  -2   3    0.03    0.05
  -5   2   3    0.05    0.06
  -5   2   3    0.02    0.05
  -5   2   3    0.00    0.05
   4  -2  -3  126.04    8.41
  -4  -2   3  149.56    9.62
  -4  -2   3  132.88    9.03
  -4  -2   3  131.54    8.54
  -4  -2   3  139.84    8.82
  -4   2   3  125.80    9.03
  -4   2   3  147.23    8.55
  -4   2   3  140.55    9.62
  -3  -2   3    1.07    0.13
   3  -2  -3    0.99    0.11
  -3  -2   3    0.81    0.11
  -3  -2   3    0.80    0.09
  -3  -2   3    0.74    0.12
  -3   2   3    0.76    0.10
  -3   2   3    0.86    0.09
   2  -2  -3   22.68    1.58
   2  -2  -3   29.80    1.79
  -2  -2   3   27.03    1.66
  -2  -2   3   25.32    1.70
  -2   2   3   22.89    1.88
   2   2  -3   25.70    1.78
   2   2  -3   25.22    1.66
  -2   2   3   26.00    1.81
  -1  -2   3    0.05    0.04
  -1  -2   3    0.05    0.04
   1  -2  -3    0.08    0.05
   1  -2  -3    0.06    0.03
   1   2  -3    0.02    0.03
   1   2  -3    0.14    0.04
  -1   2   3    0.06    0.04
  -1   2   3    0.02    0.05
   0  -2   3    3.67    0.27
   0  -2   3    2.93    0.23
   0  -2   3    2.99    0.24
   0   2   3    3.69    0.27
   0   2  -3    3.69    0.24
   0   2  -3    3.18    0.25
  -1  -2  -3    0.14    0.06
  -1  -2  -3    0.05    0.04
   1  -2   3    0.13    0.04
  -1  -2  -3    0.06    0.05
   1  -2   3    0.07    0.03
  -1   2  -3    0.04    0.05
  -1   2  -3    0.08    0.04
   1   2   3    0.10    0.06
   2  -2   3    8.41    0.64
  -2  -2  -3    7.63    0.57
  -2  -2  -3    8.20    0.56
   2  -2   3    8.44    0.55
  -2  -2  -3    8.66    0.60
   2  -2   3    8.69    0.53
  -2   2  -3    7.97    0.57
  -2   2  -3    9.02    0.56
   2   2   3    8.54    0.63
  -2   2  -3    7.46    0.59
  -3  -2  -3    0.22    0.08
   3  -2   3    0.14    0.05
   3  -2   3    0.15    0.03
  -3  -2  -3    0.23    0.07
   3  -2   3    0.03    0.08
  -3  -2  -3    0.14    0.05
  -3   2  -3    0.19    0.06
   3   2   3    0.18    0.07
  -3   2  -3    0.24    0.07
  -3   2  -3    0.15    0.05
  -4  -2  -3   27.69    1.84
  -4  -2  -3   26.60    1.80
  -4  -2  -3   29.05    1.93
   4  -2   3   26.74    2.04
   4  -2   3   27.60    1.70
  -4   2  -3   28.95    1.93
   4   2   3   28.61    2.04
  -4   2  -3   24.39    1.84
  -4   2  -3   28.68    1.74
  -4   2  -3   26.88    1.80
  -5  -2  -3    0.16    0.07
  -5  -2  -3    0.04    0.09
   5  -2   3    0.09    0.09
   5  -2   3    0.18    0.05
  -5  -2  -3    0.14    0.07
  -5   2  -3    0.25    0.06
   5   2   3    0.16    0.09
  -5   2  -3    0.22    0.07
  -5   2  -3    0.13    0.06
  -5   2  -3    0.11    0.07
  -6  -2  -3    8.93    0.63
   6  -2   3    8.09    0.70
  -6  -2  -3    9.30    0.61
  -6  -2  -3    9.12    0.65
   6  -2   3    8.60    0.56
  -6   2  -3    9.09    0.61
   6   2   3    8.49    0.69
  -6   2  -3    8.95    0.58
  -6   2  -3    9.01    0.62
  -7  -2  -3    0.04    0.07
  -7  -2  -3    0.08    0.07
   7  -2   3   -0.03    0.09
  -7  -2  -3    0.03    0.09
   7   2   3   -0.06    0.10
  -7   2  -3    0.01    0.07
  -7   2  -3    0.08    0.07
  -7   2  -3    0.01    0.06
  -8  -2  -3   11.03    0.75
  -8  -2  -3   11.10    0.80
  -8  -2  -3   11.07    0.77
   8  -2   3   12.10    0.87
  -8   2  -3   10.44    0.77
  -8   2  -3   10.52    0.75
   8   2   3   10.31    0.85
  -9  -2  -3    0.48    0.13
   9  -2   3    0.43    0.14
  -9   2  -3    0.56    0.11
   9   2   3    0.30    0.13
  -9   2  -3    0.44    0.10
 -10  -2  -3    8.18    0.59
  10  -2   3    7.92    0.66
 -10   2  -3    7.04    0.56
  10   2   3    7.73    0.65
 -10   2  -3    8.10    0.58
  11  -2   3    0.69    0.18
 -11   2  -3    0.61    0.15
 -11   2  -3    0.69    0.13
  12  -2   3    0.71    0.17
 -12  -2  -3    0.48    0.14
 -12   2  -3    0.53    0.14
  12   2   3    0.57    0.16
 -12   2  -3    0.53    0.12
  13  -2   3    0.20    0.14
 -13  -2  -3    0.37    0.12
 -13   2  -3    0.09    0.12
  13   2   3    0.51    0.15
 -14  -3   3    0.22    0.12
  14  -3  -3    0.07    0.13
 -14   3   3   -0.06    0.09
  13  -3  -3    1.78    0.30
 -13  -3   3    2.43    0.23
 -13  -3   3    1.74    0.22
 -13   3   3    1.72    0.21
 -12  -3   3    3.41    0.31
 -12  -3   3    3.22    0.29
  12  -3  -3    3.29    0.37
 -12   3   3    3.35    0.29
 -12   3   3    3.73    0.31
  11  -3  -3    3.59    0.38
 -11  -3   3    3.65    0.32
 -11  -3   3    3.68    0.31
 -11   3   3    3.38    0.30
  11   3  -3    3.81    0.37
 -11   3   3    4.34    0.32
 -10  -3   3    0.14    0.10
 -10  -3   3    0.12    0.08
 -10  -3   3    0.17    0.11
 -10   3   3    0.10    0.08
 -10   3   3    0.05    0.08
  10   3  -3    0.11    0.10
   9  -3  -3    2.14    0.19
  -9  -3   3    2.37    0.21
  -9  -3   3    1.73    0.20
  -9  -3   3    1.97    0.20
   9   3  -3    1.46    0.24
  -9   3   3    1.85    0.19
  -8  -3   3    0.56    0.09
  -8  -3   3    0.31    0.10
  -8  -3   3    0.52    0.09
  -8  -3   3    0.32    0.06
   8  -3  -3    0.42    0.08
  -8   3   3    0.36    0.08
   8   3  -3    0.25    0.09
  -8   3   3    0.44    0.08
  -8   3   3    0.37    0.10
  -7  -3   3   10.21    0.63
  -7  -3   3    9.13    0.62
  -7  -3   3    8.43    0.70
   7  -3  -3   10.21    0.61
  -7  -3   3   10.72    0.65
  -7   3   3    8.89    0.70
  -7   3   3    9.04    0.62
  -7   3   3    9.83    0.62
   7   3  -3    7.93    0.72
  -6  -3   3    0.12    0.06
  -6  -3   3    0.15    0.07
   6  -3  -3    0.10    0.06
  -6  -3   3    0.15    0.06
  -6  -3   3    0.24    0.08
  -6   3   3    0.16    0.05
  -6   3   3    0.12    0.03
  -6   3   3    0.19    0.06
  -6   3   3    0.18    0.07
  -5  -3   3    1.56    0.16
  -5  -3   3    1.39    0.13
   5  -3  -3    1.58    0.15
  -5  -3   3    1.42    0.18
  -5  -3   3    1.81    0.15
  -5   3   3    1.26    0.14
  -5   3   3    1.18    0.14
  -5   3   3    1.37    0.18
  -4  -3   3    0.03    0.06
  -4  -3   3    0.10    0.07
   4  -3  -3    0.01    0.05
  -4  -3   3    0.10    0.05
  -4  -3   3    0.02    0.04
  -4   3   3    0.03    0.04
  -4   3   3    0.06    0.05
  -4   3   3    0.01    0.05
  -3  -3   3   32.82    2.09
   3  -3  -3   31.65    2.26
   3  -3  -3   30.83    1.99
  -3  -3   3   32.67    2.14
  -3   3   3   29.91    2.28
  -3   3   3   35.52    2.03
  -2  -3   3    0.43    0.06
  -2  -3   3    0.47    0.06
   2  -3  -3    0.43    0.06
   2  -3  -3    0.65    0.08
  -2  -3   3    0.80    0.11
  -2  -3   3    0.65    0.07
  -2   3   3    0.70    0.10
  -2   3   3    0.64    0.09
  -2   3   3    0.49    0.08
   2   3  -3    0.50    0.07
   2   3  -3    0.52    0.06
  -1  -3   3    2.23    0.17
   1  -3  -3    1.93    0.16
  -1  -3   3    2.29    0.16
  -1   3   3    2.41    0.19
   1   3  -3    1.83    0.18
   1   3  -3    1.89    0.16
   0  -3  -3    0.00    0.04
   0  -3   3    0.07    0.04
   0  -3   3    0.02    0.04
   0  -3  -3   -0.02    0.05
   0  -3  -3    0.01    0.06
   0   3  -3    0.01    0.04
   0   3   3    0.12    0.05
   0   3  -3   -0.04    0.04
   1  -3   3    2.55    0.21
  -1  -3  -3    2.65    0.19
   1  -3   3    2.89    0.20
  -1  -3  -3    3.01    0.24
  -1  -3  -3    2.34    0.21
   1  -3   3    2.92    0.25
  -1   3  -3    2.96    0.21
   1   3   3    3.33    0.24
  -1   3  -3    2.39    0.22
   2  -3   3    0.66    0.07
  -2  -3  -3    0.62    0.08
   2  -3   3    0.39    0.09
  -2  -3  -3    0.61    0.08
  -2  -3  -3    0.54    0.06
  -2  -3  -3    0.60    0.07
   2  -3   3    0.56    0.06
  -2   3  -3    0.74    0.08
  -2   3  -3    0.85    0.11
   2   3   3    0.58    0.08
  -3  -3  -3    1.25    0.16
   3  -3   3    1.43    0.14
   3  -3   3    1.26    0.12
  -3  -3  -3    1.63    0.15
   3  -3   3    1.30    0.15
  -3  -3  -3    1.53    0.16
   3   3   3    1.51    0.18
  -3   3  -3    1.63    0.16
  -3   3  -3    1.38    0.15
  -3   3  -3    1.53    0.13
  -3   3  -3    1.68    0.15
   4  -3   3    2.54    0.20
  -4  -3  -3    3.20    0.23
  -4  -3  -3    3.28    0.23
  -4  -3  -3    2.17    0.24
   4  -3   3    2.37    0.27
  -4   3  -3    2.77    0.21
  -4   3  -3    2.52    0.20
  -4   3  -3    2.67    0.23
  -4   3  -3    2.45    0.23
  -5  -3  -3   24.40    1.56
   5  -3   3   21.78    1.37
   5  -3   3   22.26    1.65
  -5  -3  -3   21.96    1.45
  -5  -3  -3   21.78    1.48
  -5   3  -3   21.54    1.40
   5   3   3   22.49    1.64
  -5   3  -3   22.16    1.48
  -5   3  -3   20.01    1.45
   6  -3   3    2.78    0.32
  -6  -3  -3    3.43    0.27
  -6  -3  -3    3.35    0.28
  -6  -3  -3    3.31    0.27
   6  -3   3    2.90    0.23
  -6   3  -3    3.23    0.24
  -6   3  -3    3.05    0.26
  -6   3  -3    3.08    0.25
   6   3   3    3.05    0.30
   7  -3   3    0.33    0.07
   7  -3   3    0.31    0.12
  -7  -3  -3    0.42    0.11
  -7  -3  -3    0.37    0.09
  -7   3  -3    0.38    0.09
  -7   3  -3    0.36    0.08
   7   3   3    0.37    0.11
  -7   3  -3    0.32    0.08
   8  -3   3    2.62    0.31
  -8  -3  -3    2.78    0.25
  -8  -3  -3    2.90    0.27
  -8   3  -3    2.49    0.24
  -8   3  -3    2.85    0.25
   8   3   3    2.48    0.29
  -9  -3  -3    0.05    0.11
   9  -3   3   -0.03    0.13
   9   3   3   -0.02    0.12
  -9   3  -3    0.09    0.09
  -9   3  -3    0.05    0.08
  10  -3   3    3.94    0.42
 -10  -3  -3    4.27    0.36
 -10   3  -3    4.21    0.34
 -10   3  -3    4.35    0.35
  10   3   3    3.66    0.40
  11  -3   3    1.14    0.22
 -11  -3  -3    1.19    0.18
  11   3   3    1.26    0.21
 -11   3  -3    1.49    0.19
 -11   3  -3    1.45    0.20
 -12  -3  -3    0.27    0.13
  12  -3   3    0.54    0.16
 -12   3  -3    0.35    0.13
 -12   3  -3    0.39    0.11
  12   3   3    0.17    0.15
  13  -3   3    0.51    0.15
 -13  -3  -3   -0.07    0.11
 -13   3  -3    0.04    0.11
  14  -4  -3    0.04    0.14
 -14   4   3    0.08    0.09
 -13  -4   3    1.67    0.22
  13  -4  -3    1.17    0.21
 -13   4   3    1.18    0.17
 -12  -4   3    5.83    0.42
 -12  -4   3    5.00    0.40
  12  -4  -3    5.46    0.50
 -12   4   3    4.78    0.39
 -11  -4   3    1.89    0.22
  11  -4  -3    1.60    0.27
 -11  -4   3    1.68    0.19
 -11   4   3    1.39    0.18
 -11   4   3    1.60    0.21
 -10  -4   3    2.14    0.23
 -10  -4   3    2.24    0.21
 -10  -4   3    2.10    0.26
 -10   4   3    1.91    0.20
 -10   4   3    2.40    0.22
   9  -4  -3    0.21    0.08
  -9  -4   3    0.18    0.10
  -9  -4   3    0.12    0.09
  -9  -4   3    0.20    0.08
  -9   4   3    0.13    0.07
  -9   4   3    0.33    0.08
  -8  -4   3   23.67    1.71
   8  -4  -3   23.57    1.49
  -8  -4   3   25.04    1.52
  -8  -4   3   21.62    1.55
  -8  -4   3   23.76    1.60
   8   4  -3   22.96    1.77
  -8   4   3   24.41    1.60
  -8   4   3   26.27    1.71
  -8   4   3   22.89    1.51
  -7  -4   3    0.31    0.07
  -7  -4   3    0.45    0.09
   7  -4  -3    0.33    0.07
  -7  -4   3    0.33    0.06
  -7  -4   3    0.29    0.09
   7   4  -3    0.18    0.07
  -7   4   3    0.34    0.07
  -7   4   3    0.22    0.08
  -7   4   3    0.36    0.07
  -6  -4   3   22.41    1.32
  -6  -4   3   22.18    1.49
   6  -4  -3   21.20    1.30
  -6  -4   3   20.76    1.36
  -6  -4   3   20.21    1.39
  -6   4   3   20.95    1.39
  -6   4   3   20.54    1.49
  -6   4   3   21.73    1.32
   6   4  -3   18.96    1.54
  -6   4   3   18.80    1.35
   5  -4  -3    0.11    0.06
  -5  -4   3    0.15    0.06
  -5  -4   3    0.14    0.08
  -5  -4   3    0.20    0.05
  -5  -4   3    0.18    0.06
  -5   4   3    0.10    0.05
   5   4  -3    0.20    0.05
  -5   4   3    0.11    0.04
  -5   4   3    0.13    0.03
  -5   4   3    0.17    0.06
  -4  -4   3    1.30    0.14
  -4  -4   3    1.38    0.12
  -4  -4   3    1.30    0.15
   4  -4  -3    1.03    0.14
  -4  -4   3    1.47    0.16
  -4   4   3    1.02    0.13
  -4   4   3    1.22    0.12
  -3  -4   3    1.87    0.17
   3  -4  -3    1.83    0.16
   3  -4  -3    1.27    0.17
  -3  -4   3    2.05    0.17
  -3  -4   3    1.30    0.13
  -3  -4   3    1.59    0.16
  -3  -4   3    1.62    0.13
  -3   4   3    1.94    0.14
  -3   4   3    1.41    0.16
   3   4  -3    1.51    0.14
   2  -4  -3   14.39    0.88
  -2  -4   3   10.49    0.77
   2  -4  -3   11.89    0.78
  -2  -4   3   13.24    0.81
  -2   4   3   13.23    0.79
   2   4  -3   11.71    0.82
  -2   4   3   11.45    0.88
   1  -4  -3    2.06    0.17
  -1  -4   3    2.34    0.18
  -1  -4   3    2.39    0.16
   1  -4  -3    1.89    0.17
  -1   4   3    1.77    0.20
   1   4  -3    1.99    0.19
   0  -4  -3   36.81    2.20
   0  -4   3   34.55    2.31
   0  -4   3   33.13    2.20
   0  -4  -3   36.73    2.36
   0   4   3   36.24    2.62
   0   4  -3   32.96    2.48
   0   4  -3   38.80    2.32
   1  -4   3    2.40    0.18
   1  -4   3    2.34    0.21
   1  -4   3    2.35    0.18
  -1  -4  -3    2.01    0.20
   1   4   3    1.87    0.21
  -1   4  -3    2.35    0.18
  -1   4  -3    2.31    0.19
   2  -4   3    2.48    0.19
  -2  -4  -3    2.64    0.21
  -2  -4  -3    2.29    0.19
   2  -4   3    2.41    0.19
   2   4   3    2.40    0.22
  -2   4  -3    2.80    0.20
  -2   4  -3    2.28    0.21
   3  -4   3    0.11    0.05
  -3  -4  -3    0.13    0.04
   3  -4   3    0.21    0.08
   3  -4   3    0.17    0.06
  -3  -4  -3    0.09    0.07
  -3  -4  -3    0.14    0.07
  -3   4  -3    0.18    0.05
  -3   4  -3    0.23    0.04
  -3   4  -3    0.18    0.06
  -3   4  -3    0.20    0.06
   3   4   3    0.16    0.07
  -4  -4  -3   18.51    1.24
   4  -4   3   17.21    1.31
   4  -4   3   15.83    1.14
   4  -4   3   17.77    1.10
  -4  -4  -3   18.46    1.18
  -4   4  -3   18.05    1.18
   4   4   3   17.43    1.30
  -4   4  -3   17.00    1.15
  -4   4  -3   17.19    1.11
   5  -4   3    3.13    0.30
   5  -4   3    2.64    0.22
  -5  -4  -3    3.10    0.25
  -5  -4  -3    2.82    0.26
  -5   4  -3    2.97    0.22
  -5   4  -3    2.73    0.24
   5   4   3    2.94    0.27
  -5   4  -3    3.01    0.23
   6  -4   3   18.73    1.16
  -6  -4  -3   19.11    1.25
   6  -4   3   19.11    1.40
  -6  -4  -3   18.26    1.31
   6   4   3   18.32    1.38
  -6   4  -3   18.48    1.25
  -6   4  -3   18.10    1.18
  -6   4  -3   17.36    1.22
   7  -4   3    0.07    0.06
  -7  -4  -3    0.02    0.10
   7  -4   3    0.04    0.11
  -7  -4  -3    0.11    0.08
  -7   4  -3    0.05    0.06
  -7   4  -3    0.03    0.06
  -7   4  -3   -0.01    0.07
   7   4   3    0.05    0.10
  -8  -4  -3    2.13    0.23
   8  -4   3    1.78    0.28
  -8  -4  -3    2.21    0.21
  -8   4  -3    1.76    0.20
  -8   4  -3    1.93    0.21
   8   4   3    2.19    0.25
  -9  -4  -3    4.53    0.36
   9  -4   3    4.05    0.42
   9   4   3    3.90    0.39
  -9   4  -3    4.04    0.35
  -9   4  -3    4.39    0.34
  10  -4   3    2.63    0.33
 -10  -4  -3    2.19    0.25
 -10   4  -3    2.47    0.24
 -10   4  -3    2.28    0.25
  10   4   3    1.99    0.29
  11  -4   3    0.54    0.18
 -11  -4  -3    0.55    0.14
 -11   4  -3    0.69    0.12
  11   4   3    0.31    0.15
 -11   4  -3    0.49    0.13
  12  -4   3    0.92    0.19
 -12  -4  -3    0.47    0.15
 -12   4  -3    0.83    0.14
 -12   4  -3    0.86    0.15
  13  -4   3    0.57    0.16
 -13  -4  -3    0.17    0.13
 -13   4  -3    0.21    0.12
 -14  -5   3    0.23    0.11
  14  -5  -3    0.07    0.14
 -14   5   3   -0.05    0.09
  13  -5  -3    5.43    0.50
 -13  -5   3    5.27    0.42
 -13   5   3    5.04    0.39
  12  -5  -3    0.22    0.14
 -12  -5   3    0.22    0.12
 -12   5   3    0.07    0.09
  11  -5  -3    5.58    0.50
 -11  -5   3    5.42    0.43
 -11   5   3    4.95    0.40
 -11   5   3    5.91    0.43
 -10  -5   3    0.05    0.08
  10  -5  -3   -0.03    0.08
 -10  -5   3   -0.10    0.10
 -10  -5   3    0.14    0.11
 -10   5   3    0.00    0.07
 -10   5   3    0.13    0.08
   9  -5  -3    8.04    0.54
  -9  -5   3    7.53    0.58
  -9  -5   3    8.65    0.55
  -9  -5   3    8.11    0.62
  -9   5   3    8.44    0.57
  -9   5   3    7.42    0.54
  -8  -5   3   -0.04    0.07
  -8  -5   3    0.04    0.08
  -8  -5   3    0.04    0.05
  -8  -5   3   -0.10    0.08
   8  -5  -3    0.07    0.07
  -8   5   3    0.01    0.06
  -8   5   3    0.01    0.06
  -7  -5   3    2.45    0.20
  -7  -5   3    2.50    0.24
   7  -5  -3    2.66    0.21
  -7  -5   3    2.11    0.23
  -7  -5   3    2.44    0.20
  -7   5   3    2.47    0.21
  -7   5   3    2.54    0.24
  -7   5   3    2.02    0.20
  -6  -5   3    0.04    0.07
  -6  -5   3    0.01    0.05
  -6  -5   3   -0.06    0.06
  -6  -5   3   -0.05    0.07
   6  -5  -3    0.01    0.06
  -6   5   3   -0.04    0.07
  -6   5   3   -0.03    0.05
  -6   5   3    0.00    0.05
  -5  -5   3   19.02    1.22
   5  -5  -3   20.39    1.21
  -5  -5   3   19.51    1.26
  -5  -5   3   19.49    1.29
  -5  -5   3   21.80    1.37
  -5   5   3   17.66    1.28
  -5   5   3   17.03    1.25
  -5   5   3   17.74    1.37
  -5   5   3   20.36    1.22
   4  -5  -3    0.02    0.07
  -4  -5   3    0.06    0.05
   4  -5  -3    0.09    0.06
  -4  -5   3    0.09    0.06
  -4  -5   3    0.14    0.07
  -4  -5   3    0.13    0.04
  -4   5   3    0.07    0.06
  -4   5   3    0.06    0.05
  -4   5   3    0.08    0.03
  -3  -5   3    1.97    0.16
  -3  -5   3    2.45    0.19
  -3  -5   3    2.31    0.19
   3  -5  -3    1.98    0.18
  -3  -5   3    1.95    0.15
  -3  -5   3    2.33    0.20
   3  -5  -3    2.43    0.20
  -3   5   3    2.40    0.17
  -3   5   3    2.00    0.16
  -3   5   3    1.84    0.19
  -2  -5   3    0.12    0.06
  -2  -5   3    0.07    0.05
   2  -5  -3    0.15    0.06
  -2  -5   3    0.24    0.06
   2  -5  -3    0.25    0.07
  -2   5   3    0.18    0.05
  -2   5   3    0.16    0.03
   2   5  -3    0.19    0.06
  -2   5   3    0.15    0.05
   1  -5  -3    1.19    0.15
  -1  -5   3    0.73    0.09
   1  -5  -3    0.85    0.09
  -1  -5   3    1.01    0.11
   1   5  -3    0.83    0.10
  -1   5   3    1.14    0.11
  -1   5   3    0.90    0.14
   0  -5  -3    0.02    0.06
   0  -5   3    0.02    0.05
   0  -5  -3   -0.06    0.06
   0  -5   3    0.05    0.05
   0  -5  -3   -0.02    0.05
   0   5   3    0.04    0.05
   0   5   3    0.00    0.05
   0   5  -3    0.03    0.05
  -1  -5  -3    1.97    0.19
  -1  -5  -3    2.03    0.18
   1  -5   3    2.06    0.17
   1  -5   3    1.96    0.19
   1  -5   3    2.02    0.17
  -1  -5  -3    1.62    0.16
  -1   5  -3    2.30    0.17
   1   5   3    2.16    0.20
   2  -5   3   -0.09    0.04
  -2  -5  -3    0.05    0.05
  -2  -5  -3    0.07    0.06
  -2  -5  -3    0.04    0.04
   2  -5   3   -0.04    0.05
  -2  -5  -3   -0.13    0.06
   2  -5   3   -0.04    0.06
   2   5   3    0.01    0.06
  -2   5  -3   -0.02    0.04
  -3  -5  -3   12.91    0.80
  -3  -5  -3   12.09    0.83
   3  -5   3   12.05    0.92
   3  -5   3   10.82    0.80
  -3  -5  -3   12.53    0.87
   3  -5   3   12.81    0.78
  -3   5  -3   12.74    0.81
  -3   5  -3   11.91    0.77
   3   5   3   12.17    0.92
   4  -5   3    0.02    0.06
  -4  -5  -3    0.01    0.07
  -4  -5  -3    0.01    0.03
   4  -5   3    0.00    0.04
   4  -5   3   -0.03    0.08
  -4  -5  -3    0.01    0.07
  -4   5  -3   -0.04    0.05
  -4   5  -3   -0.02    0.05
  -4   5  -3   -0.03    0.04
   4   5   3    0.00    0.07
   5  -5   3    2.36    0.19
  -5  -5  -3    2.79    0.22
   5  -5   3    2.26    0.26
  -5  -5  -3    2.59    0.22
   5  -5   3    2.13    0.18
  -5   5  -3    2.05    0.18
  -5   5  -3    2.12    0.19
   5   5   3    2.34    0.24
  -5   5  -3    2.37    0.20
   6  -5   3    0.36    0.12
  -6  -5  -3    0.31    0.10
  -6  -5  -3    0.26    0.09
   6  -5   3    0.22    0.07
  -6   5  -3    0.37    0.08
  -6   5  -3    0.23    0.06
  -6   5  -3    0.26    0.07
   6   5   3    0.18    0.10
  -7  -5  -3    0.62    0.12
  -7  -5  -3    0.64    0.11
   7  -5   3    0.69    0.15
   7  -5   3    0.79    0.10
  -7   5  -3    0.54    0.09
  -7   5  -3    0.65    0.11
   7   5   3    0.62    0.12
  -7   5  -3    0.54    0.10
   8  -5   3    0.07    0.12
  -8  -5  -3    0.08    0.08
  -8  -5  -3    0.06    0.11
   8   5   3    0.15    0.12
  -8   5  -3   -0.08    0.08
  -8   5  -3   -0.02    0.07
  -9  -5  -3   12.67    0.87
   9  -5   3   13.00    0.98
   9   5   3   11.97    0.96
  -9   5  -3   11.91    0.84
  -9   5  -3   12.20    0.86
  10  -5   3    0.12    0.16
 -10  -5  -3   -0.03    0.12
 -10   5  -3    0.26    0.09
 -10   5  -3    0.45    0.12
  11  -5   3    0.66    0.19
 -11  -5  -3    0.43    0.15
 -11   5  -3    0.55    0.14
 -11   5  -3    0.36    0.11
  12  -5   3    0.21    0.15
 -12  -5  -3    0.11    0.13
 -12   5  -3    0.00    0.10
  14  -6  -3    0.35    0.16
 -14  -6   3    0.22    0.12
 -14   6   3    0.14    0.10
 -13  -6   3    0.59    0.15
  13  -6  -3    0.82    0.18
 -13   6   3    0.73    0.12
 -12  -6   3    6.22    0.47
  12  -6  -3    6.65    0.55
 -12   6   3    5.30    0.44
 -11  -6   3    0.25    0.12
  11  -6  -3    0.23    0.13
 -11   6   3    0.22    0.09
  10  -6  -3    1.17    0.15
 -10  -6   3    1.57    0.20
 -10   6   3    1.07    0.16
   9  -6  -3    0.46    0.10
  -9  -6   3    0.47    0.11
  -9  -6   3    0.61    0.11
  -9   6   3    0.61    0.10
  -9   6   3    0.52    0.10
   8  -6  -3    6.09    0.43
  -8  -6   3    5.88    0.43
  -8  -6   3    6.49    0.46
  -8  -6   3    6.13    0.49
  -8   6   3    6.90    0.46
  -8   6   3    5.82    0.43
  -7  -6   3    0.58    0.09
   7  -6  -3    0.48    0.09
  -7  -6   3    0.60    0.10
  -7  -6   3    0.53    0.08
  -7  -6   3    0.52    0.09
  -7   6   3    0.49    0.08
  -7   6   3    0.64    0.09
   6  -6  -3   31.88    1.96
  -6  -6   3   31.31    2.10
  -6  -6   3   31.16    2.23
  -6  -6   3   30.77    2.05
  -6   6   3   31.05    1.99
  -6   6   3   32.68    2.10
  -5  -6   3    0.07    0.06
   5  -6  -3    0.05    0.06
  -5  -6   3   -0.01    0.06
  -5  -6   3    0.05    0.07
  -5   6   3    0.03    0.05
  -5   6   3    0.09    0.06
  -5   6   3    0.04    0.05
   4  -6  -3   25.06    1.46
  -4  -6   3   22.28    1.66
   4  -6  -3   25.03    1.65
  -4  -6   3   21.74    1.52
  -4  -6   3   23.67    1.56
  -4   6   3   23.65    1.48
  -4   6   3   24.30    1.66
  -4   6   3   21.13    1.52
  -3  -6   3    0.93    0.10
  -3  -6   3    0.66    0.09
   3  -6  -3    0.88    0.13
   3  -6  -3    0.77    0.09
  -3  -6   3    0.87    0.11
  -3  -6   3    0.62    0.08
  -3   6   3    0.77    0.08
  -3   6   3    0.88    0.11
  -3   6   3    0.85    0.08
  -2  -6   3    8.92    0.57
   2  -6  -3    9.07    0.60
   2  -6  -3    7.67    0.54
  -2  -6   3    8.62    0.53
  -2  -6   3    7.40    0.60
   2   6  -3    7.88    0.57
  -2   6   3    9.10    0.54
  -2   6   3    8.09    0.55
  -1  -6   3    0.02    0.05
   1  -6  -3    0.01    0.06
  -1  -6   3   -0.06    0.06
  -1  -6   3    0.02    0.05
   1  -6  -3   -0.02    0.05
   1   6  -3   -0.03    0.06
  -1   6   3    0.05    0.04
  -1   6   3   -0.06    0.06
   0  -6   3   11.39    0.72
   0  -6  -3   11.59    0.74
   0  -6   3   10.83    0.69
   0  -6  -3    9.86    0.69
   0  -6  -3   11.60    0.78
   0   6  -3   11.04    0.73
   0   6   3    9.99    0.81
   0   6   3   10.51    0.70
   1  -6   3    0.16    0.06
  -1  -6  -3    0.11    0.06
   1  -6   3    0.13    0.05
  -1  -6  -3    0.17    0.07
  -1  -6  -3    0.13    0.05
   1  -6   3    0.13    0.06
  -1  -6  -3    0.03    0.06
  -1   6  -3    0.14    0.05
   1   6   3    0.09    0.06
  -2  -6  -3    9.77    0.71
  -2  -6  -3   12.39    0.77
   2  -6   3   12.56    0.72
   2  -6   3   11.05    0.75
  -2  -6  -3   11.82    0.80
  -2  -6  -3   11.47    0.75
   2  -6   3    9.69    0.84
  -2   6  -3   11.17    0.75
   2   6   3   11.44    0.84
  -3  -6  -3    1.07    0.16
   3  -6   3    0.95    0.14
  -3  -6  -3    0.91    0.11
   3  -6   3    0.79    0.09
  -3  -6  -3    0.95    0.12
   3  -6   3    0.89    0.11
  -3   6  -3    1.07    0.12
   3   6   3    0.81    0.10
  -4  -6  -3    6.77    0.50
   4  -6   3    8.25    0.50
   4  -6   3    6.98    0.51
  -4  -6  -3    8.25    0.54
   4  -6   3    7.28    0.60
  -4  -6  -3    7.56    0.56
  -4   6  -3    7.21    0.52
   4   6   3    7.73    0.58
  -4   6  -3    8.28    0.53
  -5  -6  -3    0.89    0.14
   5  -6   3    0.97    0.11
   5  -6   3    0.92    0.12
   5  -6   3    0.97    0.14
  -5  -6  -3    1.11    0.13
   5   6   3    0.89    0.12
  -5   6  -3    1.12    0.14
  -5   6  -3    1.12    0.15
  -6  -6  -3    1.12    0.14
  -6  -6  -3    1.38    0.16
   6  -6   3    1.12    0.16
   6  -6   3    1.03    0.15
  -6   6  -3    1.00    0.15
   6   6   3    1.12    0.19
  -6   6  -3    0.96    0.14
   7  -6   3    0.94    0.12
  -7  -6  -3    0.95    0.15
   7  -6   3    0.93    0.16
  -7  -6  -3    1.14    0.15
  -7   6  -3    1.06    0.13
  -7   6  -3    1.04    0.13
   7   6   3    0.94    0.14
  -8  -6  -3    0.62    0.12
   8  -6   3    0.70    0.15
   8  -6   3    0.64    0.11
  -8  -6  -3    0.67    0.13
  -8   6  -3    0.64    0.11
  -8   6  -3    0.66    0.11
  -9  -6  -3    3.20    0.29
   9  -6   3    2.60    0.36
  -9   6  -3    3.25    0.28
  -9   6  -3    2.93    0.27
 -10  -6  -3    4.72    0.43
  10  -6   3    5.64    0.52
 -10   6  -3    5.44    0.41
 -10   6  -3    5.53    0.43
  11  -6   3    1.46    0.25
 -11  -6  -3    1.43    0.20
 -11   6  -3    1.34    0.21
 -11   6  -3    1.67    0.22
  12  -6   3    1.89    0.29
 -12  -6  -3    0.91    0.17
 -12   6  -3    1.35    0.18
  13  -7  -3    0.56    0.16
 -13  -7   3    0.32    0.13
 -13   7   3    0.37    0.10
 -12  -7   3    1.78    0.24
  12  -7  -3    2.39    0.30
 -12   7   3    1.77    0.20
  11  -7  -3    0.02    0.13
 -11  -7   3    0.03    0.11
 -11   7   3   -0.04    0.08
 -10  -7   3    0.52    0.12
  10  -7  -3    0.32    0.11
 -10   7   3    0.32    0.09
   9  -7  -3    0.28    0.11
  -9  -7   3    0.50    0.12
  -9   7   3    0.46    0.09
  -9   7   3    0.77    0.11
  -8  -7   3    0.54    0.09
  -8  -7   3    0.75    0.12
   8  -7  -3    0.63    0.11
  -8   7   3    0.63    0.09
  -8   7   3    0.79    0.11
   7  -7  -3    0.41    0.10
  -7   7   3    0.52    0.08
   6  -7  -3    0.54    0.10
  -6  -7   3    0.59    0.09
  -6  -7   3    0.70    0.11
  -6  -7   3    0.92    0.13
  -6   7   3    0.57    0.08
  -6   7   3    0.78    0.09
  -5  -7   3    4.22    0.31
  -5  -7   3    3.49    0.29
   5  -7  -3    4.12    0.29
   5  -7  -3    4.04    0.31
  -5  -7   3    3.42    0.30
  -5   7   3    3.66    0.28
  -4  -7   3    0.02    0.04
  -4  -7   3   -0.04    0.07
   4  -7  -3   -0.04    0.07
  -4  -7   3    0.04    0.06
   4  -7  -3    0.03    0.06
  -4  -7   3    0.06    0.06
  -4   7   3    0.02    0.03
  -4   7   3    0.03    0.05
  -3  -7   3    4.06    0.31
  -3  -7   3    4.24    0.31
   3  -7  -3    4.43    0.32
   3  -7  -3    4.02    0.30
  -3  -7   3    3.84    0.28
  -3   7   3    4.53    0.29
   3   7  -3    4.46    0.32
  -3   7   3    3.66    0.29
  -2  -7   3    0.02    0.06
   2  -7  -3    0.04    0.06
  -2  -7   3    0.04    0.05
  -2  -7   3    0.06    0.05
   2  -7  -3    0.08    0.06
  -2   7   3    0.07    0.04
   2   7  -3    0.00    0.06
  -2   7   3    0.08    0.04
   1  -7  -3    6.23    0.49
  -1  -7   3    6.70    0.44
   1  -7  -3    6.46    0.44
  -1  -7   3    5.92    0.48
  -1  -7   3    7.33    0.46
  -1   7   3    6.88    0.43
   1   7  -3    6.96    0.47
   0  -7  -3    0.97    0.11
   0  -7   3    1.25    0.14
   0  -7   3    1.04    0.13
   0  -7  -3    1.04    0.16
   0  -7  -3    0.95    0.13
   0  -7  -3    0.78    0.10
   0   7   3    1.08    0.12
   0   7  -3    1.17    0.14
   0   7   3    0.96    0.15
   1  -7   3    4.41    0.27
  -1  -7  -3    3.51    0.29
  -1  -7  -3    4.19    0.29
  -1  -7  -3    3.40    0.26
   1  -7   3    3.41    0.28
  -1  -7  -3    4.27    0.29
   1  -7   3    3.28    0.30
  -1   7  -3    3.69    0.28
   1   7   3    3.86    0.31
  -2  -7  -3    1.89    0.18
   2  -7   3    1.93    0.17
  -2  -7  -3    2.01    0.19
   2  -7   3    1.76    0.18
  -2  -7  -3    1.85    0.15
  -2  -7  -3    1.86    0.17
   2  -7   3    1.89    0.18
   2   7   3    1.77    0.19
  -2   7  -3    1.76    0.17
   3  -7   3    0.54    0.08
   3  -7   3    0.58    0.09
  -3  -7  -3    0.59    0.08
   3  -7   3    0.61    0.09
  -3  -7  -3    0.59    0.10
  -3  -7  -3    0.65    0.08
  -3   7  -3    0.54    0.08
   3   7   3    0.48    0.09
   4  -7   3    1.05    0.13
  -4  -7  -3    1.03    0.14
  -4  -7  -3    1.17    0.13
   4  -7   3    0.97    0.13
  -4  -7  -3    1.07    0.12
   4  -7   3    1.09    0.15
  -4   7  -3    1.05    0.13
   4   7   3    0.80    0.12
   5  -7   3   -0.04    0.07
   5  -7   3   -0.01    0.09
  -5  -7  -3   -0.01    0.09
   5  -7   3   -0.02    0.05
  -5  -7  -3    0.04    0.07
  -5   7  -3    0.01    0.05
  -5   7  -3   -0.03    0.06
   6  -7   3    1.15    0.16
  -6  -7  -3    1.12    0.15
  -6  -7  -3    1.25    0.15
   6  -7   3    1.26    0.17
  -6   7  -3    1.45    0.16
  -6   7  -3    1.13    0.14
   7  -7   3    0.95    0.16
  -7  -7  -3    0.86    0.13
   7  -7   3    0.81    0.12
  -7  -7  -3    0.87    0.14
  -7   7  -3    0.81    0.11
  -7   7  -3    0.87    0.12
   8  -7   3    1.46    0.25
  -8  -7  -3    1.23    0.17
   8  -7   3    1.26    0.18
  -8   7  -3    1.22    0.18
  -8   7  -3    1.38    0.18
  -9  -7  -3    0.26    0.13
   9  -7   3   -0.20    0.14
  -9   7  -3    0.16    0.08
  -9   7  -3    0.07    0.10
 -10  -7  -3    3.64    0.36
  10  -7   3    4.10    0.43
 -10   7  -3    4.04    0.33
 -10   7  -3    4.16    0.35
  11  -7   3    0.46    0.18
 -11  -7  -3    0.59    0.14
 -12  -7  -3    1.49    0.23
 -12   7  -3    1.44    0.21
 -13  -8   3    0.70    0.15
 -12  -8   3    4.12    0.38
  12  -8  -3    5.17    0.46
  11  -8  -3    0.57    0.13
  11  -8  -3    0.74    0.18
 -11  -8   3    0.87    0.14
 -11   8   3    0.68    0.12
  10  -8  -3    0.77    0.14
 -10  -8   3    1.13    0.16
 -10   8   3    0.94    0.12
  -9  -8   3    0.18    0.11
   9  -8  -3   -0.01    0.09
   9  -8  -3    0.18    0.08
  -9   8   3    0.37    0.09
  -9   8   3    0.17    0.08
  -8  -8   3   11.20    0.84
   8  -8  -3   11.81    0.82
  -8  -8   3   13.47    0.87
   8  -8  -3   12.89    0.85
  -8   8   3   13.96    0.87
  -8   8   3   11.96    0.82
  -7  -8   3    0.36    0.09
   7  -8  -3    0.63    0.11
   7  -8  -3    0.37    0.10
  -7  -8   3    0.41    0.10
  -7   8   3    0.44    0.09
  -7   8   3    0.39    0.08
  -6  -8   3   15.73    1.10
   6  -8  -3   16.73    1.03
  -6  -8   3   14.93    1.07
   6  -8  -3   15.88    1.16
  -6   8   3   17.72    1.10
  -6   8   3   15.98    1.04
  -5  -8   3    0.14    0.08
   5  -8  -3    0.04    0.08
  -5  -8   3    0.15    0.07
   5  -8  -3    0.05    0.07
  -5   8   3    0.15    0.06
  -4  -8   3   15.23    0.96
  -4  -8   3   14.52    0.98
  -4  -8   3   13.49    0.90
   4  -8  -3   15.63    0.92
   4  -8  -3   13.57    1.03
  -4   8   3   14.05    0.92
  -3  -8   3    0.22    0.07
   3  -8  -3    0.10    0.07
   3  -8  -3    0.19    0.07
  -3  -8   3    0.08    0.06
  -3   8   3    0.16    0.04
  -3   8   3    0.16    0.05
   3   8  -3    0.23    0.07
   2  -8  -3    4.67    0.36
   2  -8  -3    5.09    0.36
  -2  -8   3    4.82    0.32
  -2  -8   3    4.24    0.34
   2  -8  -3    4.49    0.33
  -2   8   3    4.25    0.32
   2   8  -3    5.13    0.35
  -2   8   3    4.60    0.32
   1  -8  -3   -0.08    0.07
  -1  -8   3    0.00    0.06
   1  -8  -3   -0.01    0.06
   1  -8  -3   -0.02    0.07
  -1  -8   3    0.08    0.06
  -1   8   3    0.04    0.04
  -1   8   3    0.03    0.05
   1   8  -3   -0.13    0.06
   0  -8   3   21.26    1.29
   0  -8  -3   19.61    1.29
   0  -8  -3   18.46    1.45
   0  -8  -3   22.14    1.36
   0  -8   3   22.13    1.36
   0   8  -3   21.38    1.36
   0   8   3   19.47    1.30
   1  -8   3    0.06    0.06
  -1  -8  -3    0.05    0.06
  -1  -8  -3    0.07    0.06
   1  -8   3    0.04    0.06
  -1  -8  -3    0.06    0.07
  -1  -8  -3   -0.04    0.06
   1   8   3    0.01    0.06
   1   8   3    0.01    0.06
  -1   8  -3   -0.04    0.05
  -2  -8  -3    7.92    0.51
   2  -8   3    6.96    0.51
  -2  -8  -3    7.17    0.48
   2  -8   3    8.04    0.49
  -2  -8  -3    7.30    0.52
  -2  -8  -3    6.91    0.53
  -2   8  -3    7.09    0.51
   3  -8   3    0.52    0.10
  -3  -8  -3    0.42    0.09
   3  -8   3    0.90    0.13
  -3  -8  -3    0.57    0.10
  -3  -8  -3    0.61    0.09
   3  -8   3    0.33    0.08
  -3   8  -3    0.64    0.09
   4  -8   3    3.02    0.23
   4  -8   3    2.38    0.22
  -4  -8  -3    2.78    0.25
   4  -8   3    2.63    0.26
  -4  -8  -3    2.76    0.23
  -4  -8  -3    2.77    0.22
  -4   8  -3    2.63    0.22
   5  -8   3    0.75    0.13
   5  -8   3    0.67    0.10
   5  -8   3    0.77    0.11
  -5  -8  -3    0.77    0.12
  -5  -8  -3    0.68    0.10
  -5   8  -3    0.72    0.10
  -5   8  -3    0.75    0.10
  -6  -8  -3    3.46    0.31
   6  -8   3    3.43    0.34
   6  -8   3    3.67    0.29
  -6   8  -3    3.46    0.28
  -6   8  -3    4.05    0.30
   7  -8   3    0.13    0.11
   7  -8   3   -0.03    0.09
  -7  -8  -3    0.05    0.10
  -7   8  -3    0.04    0.07
  -7   8  -3    0.01    0.07
  -8  -8  -3    1.97    0.24
   8  -8   3    2.05    0.22
   8  -8   3    2.12    0.29
  -8   8  -3    2.06    0.23
  -8   8  -3    2.18    0.22
  -9  -8  -3    3.90    0.33
   9  -8   3    2.68    0.38
  -9   8  -3    3.18    0.30
  -9   8  -3    3.52    0.30
 -10  -8  -3    2.09    0.26
  10  -8   3    2.86    0.34
 -10   8  -3    2.31    0.25
  11  -8   3    0.26    0.16
 -11  -8  -3    0.28    0.14
 -11   8  -3    0.27    0.10
  12  -9  -3    0.19    0.14
 -12  -9   3    0.11    0.12
  11  -9  -3    5.92    0.50
  11  -9  -3    5.48    0.43
  11  -9  -3    4.86    0.39
 -11  -9   3    4.99    0.42
 -10  -9   3    0.00    0.11
  10  -9  -3    0.02    0.10
  10  -9  -3    0.31    0.10
  10  -9  -3   -0.07    0.12
   9  -9  -3    6.31    0.45
  -9  -9   3    6.07    0.47
   9  -9  -3    6.60    0.49
   9  -9  -3    5.89    0.46
   8  -9  -3    0.12    0.09
   8  -9  -3    0.04    0.09
   8  -9  -3    0.07    0.08
  -8  -9   3    0.12    0.11
  -8   9   3    0.09    0.07
  -8   9   3   -0.05    0.06
  -7  -9   3    6.35    0.48
   7  -9  -3    7.39    0.48
   7  -9  -3    6.48    0.49
  -7  -9   3    6.37    0.50
   7  -9  -3    7.49    0.52
  -7   9   3    6.30    0.46
  -7   9   3    7.13    0.49
  -6  -9   3    0.08    0.09
   6  -9  -3   -0.01    0.09
   6  -9  -3    0.09    0.08
  -6  -9   3    0.06    0.08
   6  -9  -3    0.01    0.08
  -6   9   3    0.04    0.06
  -6   9   3    0.03    0.06
   5  -9  -3   19.33    1.32
  -5  -9   3   17.92    1.23
   5  -9  -3   19.12    1.23
   5  -9  -3   19.69    1.18
  -5  -9   3   17.80    1.25
  -5   9   3   17.15    1.18
   4  -9  -3    0.21    0.08
  -4  -9   3    0.18    0.08
   4  -9  -3    0.15    0.08
   4  -9  -3    0.20    0.08
  -4  -9   3    0.19    0.06
  -4   9   3    0.17    0.06
   4   9  -3    0.05    0.07
   3  -9  -3    5.17    0.35
  -3  -9   3    5.01    0.36
   3  -9  -3    5.14    0.37
  -3  -9   3    4.30    0.33
   3  -9  -3    4.44    0.37
   3   9  -3    4.86    0.36
  -3   9   3    4.76    0.33
  -3   9   3    4.50    0.33
   2  -9  -3   -0.06    0.07
  -2  -9   3    0.02    0.06
  -2  -9   3   -0.04    0.07
   2  -9  -3   -0.08    0.07
  -2   9   3   -0.01    0.05
  -2   9   3    0.03    0.04
   2   9  -3   -0.02    0.07
  -1  -9   3    5.27    0.37
   1  -9  -3    4.67    0.40
   1  -9  -3    5.69    0.38
  -1  -9   3    5.96    0.39
   1  -9  -3    5.47    0.40
  -1   9   3    5.43    0.36
  -1   9   3    5.06    0.38
   1   9  -3    5.32    0.39
   0  -9  -3   -0.06    0.07
   0  -9   3    0.07    0.07
   0  -9  -3   -0.02    0.07
   0  -9   3    0.05    0.07
   0   9  -3    0.03    0.07
   0   9   3    0.06    0.05
  -1  -9  -3    4.04    0.31
   1  -9   3    4.62    0.32
   1  -9   3    4.47    0.31
  -1  -9  -3    4.34    0.32
   1   9   3    4.07    0.30
  -1   9  -3    3.87    0.32
   2  -9   3   -0.07    0.07
   2  -9   3   -0.12    0.06
  -2  -9  -3   -0.02    0.08
  -2  -9  -3   -0.02    0.05
  -2  -9  -3   -0.03    0.07
   2   9   3   -0.06    0.07
  -2   9  -3   -0.01    0.06
   3  -9   3   14.48    0.83
  -3  -9  -3   12.26    0.87
  -3  -9  -3   13.03    0.89
   3  -9   3   12.46    0.87
  -3   9  -3   12.59    0.87
  -4  -9  -3    0.05    0.09
  -4  -9  -3    0.09    0.06
   4  -9   3   -0.01    0.07
   4  -9   3    0.07    0.07
  -4   9  -3    0.05    0.05
   5  -9   3    4.67    0.34
   5  -9   3    4.65    0.40
   5  -9   3    4.95    0.34
  -5  -9  -3    4.48    0.36
  -5   9  -3    4.03    0.34
  -5   9  -3    4.88    0.35
  -6  -9  -3    0.10    0.10
   6  -9   3    0.34    0.10
   6  -9   3    0.12    0.09
  -6   9  -3    0.08    0.08
  -6   9  -3    0.09    0.06
  -7  -9  -3    1.71    0.22
   7  -9   3    2.40    0.25
   7  -9   3    2.04    0.21
  -7   9  -3    1.41    0.18
  -7   9  -3    1.72    0.20
  -8  -9  -3    0.06    0.12
   8  -9   3    0.06    0.10
   8  -9   3   -0.02    0.12
  -8   9  -3    0.09    0.10
  -8   9  -3    0.15    0.08
   9  -9   3    9.68    0.75
   9  -9   3    8.44    0.61
  -9  -9  -3    8.79    0.66
  -9   9  -3    9.22    0.66
  -9   9  -3    8.77    0.63
 -10  -9  -3    0.10    0.13
  10  -9   3    0.38    0.15
 -10   9  -3    0.19    0.10
 -11  -9  -3    0.55    0.13
 -11   9  -3    0.23    0.11
  12 -10  -3    0.94    0.18
 -12 -10   3    0.56    0.15
  11 -10  -3    0.58    0.11
 -11 -10   3    0.33    0.13
  11 -10  -3    0.40    0.13
  11 -10  -3    0.60    0.15
  10 -10  -3   -0.02    0.11
  10 -10  -3    0.11    0.13
  10 -10  -3   -0.05    0.10
 -10 -10   3   -0.02    0.12
   9 -10  -3    0.34    0.11
   9 -10  -3    0.31    0.11
  -9 -10   3    0.32    0.13
   9 -10  -3    0.22    0.09
   8 -10  -3    0.55    0.14
   8 -10  -3    0.54    0.12
  -8 -10   3    0.79    0.14
   8 -10  -3    0.49    0.13
  -7 -10   3    0.40    0.10
   7 -10  -3    0.48    0.11
   7 -10  -3    0.42    0.11
  -7 -10   3    0.41    0.12
   7 -10  -3    0.52    0.12
  -7  10   3    0.51    0.09
   6 -10  -3    6.88    0.57
  -6 -10   3    6.98    0.55
   6 -10  -3    7.57    0.55
   6 -10  -3    7.92    0.53
  -6 -10   3    8.04    0.54
  -6  10   3    7.99    0.54
   5 -10  -3    0.05    0.08
  -5 -10   3    0.01    0.08
   5 -10  -3    0.00    0.08
   5  10  -3    0.05    0.08
   4 -10  -3    1.27    0.19
   4 -10  -3    1.22    0.17
  -4 -10   3    0.82    0.11
  -4 -10   3    1.17    0.17
   4  10  -3    1.27    0.18
   3 -10  -3    0.47    0.10
  -3 -10   3    0.42    0.08
   3 -10  -3    0.46    0.10
  -3 -10   3    0.49    0.10
   3  10  -3    0.45    0.10
   2 -10  -3    7.54    0.51
  -2 -10   3    6.99    0.47
   2 -10  -3    7.29    0.48
  -2 -10   3    7.02    0.50
   2  10  -3    7.21    0.50
  -2  10   3    6.09    0.48
   1 -10  -3    0.10    0.08
  -1 -10   3    0.16    0.08
   1 -10  -3    0.00    0.08
  -1 -10   3    0.16    0.08
   1  10  -3    0.21    0.08
  -1  10   3    0.13    0.06
  -1  10   3    0.08    0.05
   0 -10   3    0.10    0.07
   0 -10  -3    0.03    0.07
   0 -10  -3    0.01    0.08
   0 -10   3    0.12    0.08
   0  10  -3    0.08    0.07
   0  10   3   -0.04    0.05
   0  10   3    0.00    0.06
   1 -10   3    0.19    0.08
  -1 -10  -3    0.15    0.08
   1 -10   3    0.12    0.08
  -1 -10  -3    0.20    0.07
   1  10   3    0.15    0.06
  -1  10  -3    0.14    0.07
   2 -10   3    0.95    0.12
   2 -10   3    0.86    0.12
  -2 -10  -3    1.07    0.13
  -2 -10  -3    1.09    0.16
  -2  10  -3    0.92    0.14
   2  10   3    0.87    0.11
   3 -10   3    0.18    0.09
  -3 -10  -3    0.34    0.09
   3 -10   3    0.29    0.09
  -3 -10  -3    0.40    0.10
   3  10   3    0.10    0.10
  -3  10  -3    0.39    0.08
   4 -10   3    0.67    0.10
  -4 -10  -3    0.59    0.11
   4 -10   3    0.66    0.11
  -4 -10  -3    0.67    0.10
  -4  10  -3    0.62    0.09
  -5 -10  -3    0.66    0.12
   5 -10   3    0.51    0.10
   5 -10   3    0.52    0.11
  -5  10  -3    0.54    0.10
  -5  10  -3    0.59    0.09
   6 -10   3    0.02    0.09
  -6 -10  -3    0.06    0.10
  -6  10  -3    0.09    0.08
  -6  10  -3    0.00    0.06
   7 -10   3    0.71    0.13
  -7 -10  -3    0.69    0.14
  -7  10  -3    0.71    0.11
  -7  10  -3    0.63    0.12
  -8 -10  -3    0.03    0.12
   8 -10   3   -0.02    0.10
  -8  10  -3   -0.04    0.07
  -8  10  -3   -0.07    0.09
   9 -10   3    2.64    0.30
  -9 -10  -3    2.05    0.25
   9 -10   3    1.57    0.23
  -9  10  -3    2.50    0.24
 -10 -10  -3    0.34    0.13
 -10  10  -3    0.32    0.11
 -11 -11   3    0.81    0.15
  11 -11  -3    0.77    0.13
  11 -11  -3    1.07    0.18
 -10 -11   3   -0.04    0.12
  10 -11  -3    0.00    0.12
  10 -11  -3    0.11    0.10
  -9 -11   3    1.66    0.22
   9 -11  -3    1.26    0.18
   9 -11  -3    1.89    0.26
   9 -11  -3    1.34    0.19
   8 -11  -3    0.04    0.09
  -8 -11   3    0.14    0.12
   8 -11  -3    0.11    0.10
   7 -11  -3    3.27    0.30
  -7 -11   3    3.22    0.30
   7 -11  -3    3.77    0.31
   7  11  -3    3.79    0.32
  -6 -11   3    0.05    0.09
   6 -11  -3    0.11    0.09
   6 -11  -3    0.01    0.09
   6  11  -3    0.16    0.09
  -6  11   3    0.11    0.07
   5 -11  -3    3.29    0.28
  -5 -11   3    3.09    0.28
   5 -11  -3    3.18    0.27
   5  11  -3    2.91    0.28
  -4 -11   3    0.07    0.09
   4 -11  -3    0.06    0.09
   4 -11  -3    0.03    0.09
   4  11  -3    0.05    0.08
  -3 -11   3    1.62    0.19
  -3 -11   3    1.30    0.17
   3 -11  -3    1.61    0.19
   3 -11  -3    1.60    0.21
   3  11  -3    1.71    0.19
   2 -11  -3    0.13    0.09
  -2 -11   3    0.14    0.09
  -2 -11   3    0.04    0.08
   2 -11  -3    0.14    0.09
  -2  11   3    0.10    0.06
   2  11  -3    0.16    0.08
  -1 -11   3    5.25    0.39
   1 -11  -3    5.38    0.39
  -1 -11   3    5.07    0.36
   1 -11  -3    5.14    0.37
  -1  11   3    4.51    0.37
   1  11  -3    5.33    0.39
   0 -11  -3    0.13    0.08
   0 -11  -3    0.11    0.09
   0 -11   3    0.13    0.08
   0 -11   3    0.07    0.08
   0  11  -3    0.13    0.08
   0  11   3    0.12    0.07
  -1 -11  -3    2.77    0.24
  -1 -11  -3    3.17    0.26
   1 -11   3    3.06    0.25
   1 -11   3    2.90    0.25
  -1  11  -3    2.56    0.24
   1  11   3    2.94    0.25
  -2 -11  -3    0.42    0.11
   2 -11   3    0.44    0.10
   2 -11   3    0.54    0.11
  -2  11  -3    0.48    0.09
   3 -11   3    1.06    0.13
  -3 -11  -3    1.05    0.14
   3 -11   3    0.90    0.13
  -3 -11  -3    0.95    0.13
  -3  11  -3    1.01    0.14
  -4 -11  -3    0.19    0.09
  -4 -11  -3    0.38    0.11
   4 -11   3    0.35    0.10
   4 -11   3    0.29    0.09
  -4  11  -3    0.45    0.09
   5 -11   3    0.36    0.10
   5 -11   3    0.45    0.11
  -5 -11  -3    0.39    0.11
  -5  11  -3    0.52    0.10
  -5  11  -3    0.35    0.08
   6 -11   3    0.17    0.11
  -6 -11  -3    0.31    0.11
  -6  11  -3    0.17    0.08
  -6  11  -3    0.27    0.10
   7 -11   3    1.54    0.19
  -7 -11  -3    1.32    0.20
  -7  11  -3    1.53    0.19
  -7  11  -3    1.21    0.17
   8 -11   3    0.06    0.11
  -8 -11  -3    0.29    0.13
  -8  11  -3    0.10    0.10
   9 -11   3    0.39    0.13
  -9 -11  -3    0.76    0.14
  10 -12  -3    1.79    0.20
  10  12  -3    1.70    0.23
   9 -12  -3    0.06    0.10
   9  12  -3    0.02    0.11
   8 -12  -3    8.01    0.60
   8 -12  -3    8.21    0.59
   8  12  -3    9.33    0.63
   7 -12  -3    0.00    0.10
   7 -12  -3   -0.01    0.09
  -7 -12   3    0.07    0.09
   7  12  -3    0.03    0.11
   6 -12  -3    8.35    0.61
  -6 -12   3    8.71    0.61
   6 -12  -3    8.40    0.59
   6  12  -3    8.44    0.62
   5 -12  -3    0.02    0.09
   5 -12  -3    0.09    0.10
  -5 -12   3    0.04    0.09
   5  12  -3   -0.05    0.09
   4 -12  -3    8.04    0.57
  -4 -12   3    7.96    0.57
   4 -12  -3    8.16    0.55
   4  12  -3    7.25    0.56
  -3 -12   3    0.08    0.08
   3 -12  -3   -0.11    0.09
   3 -12  -3   -0.02    0.09
  -3 -12   3    0.08    0.09
   3  12  -3   -0.06    0.08
  -2 -12   3    3.00    0.26
   2 -12  -3    2.38    0.25
  -2 -12   3    2.47    0.23
   2 -12  -3    2.64    0.26
   2  12  -3    2.82    0.25
   1 -12  -3   -0.05    0.09
   1 -12  -3   -0.03    0.09
  -1 -12   3    0.14    0.09
  -1 -12   3    0.09    0.09
  -1  12   3    0.09    0.07
   1  12  -3    0.08    0.09
   0 -12  -3    4.14    0.35
   0 -12   3    4.73    0.36
   0 -12   3    4.70    0.34
   0 -12  -3    4.76    0.37
   0  12   3    4.28    0.35
   0  12  -3    5.08    0.36
   1 -12   3    0.03    0.08
   1 -12   3    0.04    0.08
  -1 -12  -3   -0.05    0.09
  -1  12  -3    0.02    0.08
   1  12   3   -0.03    0.07
   2 -12   3    3.35    0.28
  -2 -12  -3    3.49    0.29
   2 -12   3    3.35    0.29
   2  12   3    3.56    0.29
  -2  12  -3    3.33    0.28
   3 -12   3   -0.02    0.08
  -3 -12  -3    0.09    0.09
   3 -12   3   -0.03    0.09
  -3  12  -3   -0.01    0.07
   4 -12   3    5.34    0.40
  -4 -12  -3    5.04    0.40
   4 -12   3    5.54    0.39
  -4  12  -3    5.18    0.39
   5 -12   3   -0.05    0.08
   5 -12   3   -0.10    0.09
  -5 -12  -3   -0.09    0.10
  -5  12  -3   -0.04    0.08
  -5  12  -3   -0.08    0.06
   6 -12   3    3.33    0.29
  -6 -12  -3    3.37    0.30
  -6  12  -3    3.14    0.27
  -6  12  -3    3.45    0.29
  -7 -12  -3    0.36    0.14
   7 -12   3    0.26    0.11
  -7  12  -3    0.23    0.10
   8 -12   3    2.05    0.22
  -8 -12  -3    1.81    0.23
  -8  12  -3    2.18    0.23
  -9 -12  -3   -0.24    0.12
   9 -12   3   -0.27    0.10
   9 -13  -3    0.30    0.10
   9  13  -3    0.12    0.11
   8 -13  -3    0.28    0.10
   8 -13  -3    0.08    0.10
   8  13  -3    0.18    0.11
   7 -13  -3    0.27    0.12
   7 -13  -3    0.13    0.10
  -7 -13   3    0.07    0.10
   7  13  -3    0.23    0.12
   6 -13  -3    0.09    0.11
   6 -13  -3    0.00    0.10
  -6 -13   3    0.08    0.10
   6  13  -3    0.04    0.10
  -5 -13   3    0.75    0.14
   5 -13  -3    0.80    0.14
   5 -13  -3    0.78    0.14
   5  13  -3    0.58    0.13
  -4 -13   3    0.08    0.10
   4 -13  -3   -0.09    0.10
   4 -13  -3   -0.01    0.10
   4  13  -3   -0.04    0.09
   3 -13  -3   -0.10    0.10
   3 -13  -3    0.06    0.10
  -3 -13   3    0.08    0.10
   3  13  -3    0.02    0.09
  -2 -13   3    0.01    0.08
  -2 -13   3    0.02    0.09
   2 -13  -3   -0.23    0.09
   2 -13  -3   -0.15    0.09
   2  13  -3   -0.06    0.09
   1 -13  -3    0.45    0.12
   1 -13  -3    0.53    0.12
  -1 -13   3    0.61    0.12
  -1 -13   3    0.60    0.11
   1  13  -3    0.54    0.11
   0 -13   3    0.02    0.10
   0 -13   3    0.04    0.09
   0 -13  -3    0.07    0.08
   0 -13  -3   -0.04    0.10
   0  13  -3    0.03    0.08
   0  13   3    0.10    0.08
  -1 -13  -3    0.01    0.10
   1 -13   3    0.18    0.10
   1 -13   3    0.20    0.10
  -1  13  -3    0.08    0.08
   1  13   3    0.03    0.08
   2 -13   3    0.03    0.10
  -2 -13  -3   -0.12    0.09
   2 -13   3    0.00    0.09
  -2  13  -3    0.11    0.08
   2  13   3    0.10    0.09
   3 -13   3    0.21    0.10
  -3 -13  -3    0.03    0.09
   3 -13   3    0.17    0.10
   3  13   3    0.22    0.10
  -3  13  -3    0.19    0.08
   4 -13   3    0.17    0.11
   4 -13   3    0.13    0.10
  -4  13  -3    0.19    0.08
   5 -13   3    0.22    0.11
   5 -13   3    0.39    0.10
  -5  13  -3    0.26    0.10
  -5  13  -3    0.24    0.08
   6 -13   3    0.39    0.12
  -6  13  -3    0.28    0.10
  -7 -13  -3   -0.23    0.12
   7 -13   3    0.01    0.10
  -7  13  -3    0.11    0.09
   8 -13   3   -0.08    0.10
   8 -14  -3    0.03    0.09
   8 -14  -3    0.19    0.10
   8  14  -3    0.10    0.11
   7 -14  -3    0.05    0.11
   7 -14  -3    0.26    0.11
   7  14  -3    0.15    0.11
  -6 -14   3    0.11    0.11
   6 -14  -3    0.20    0.11
   6 -14  -3    0.43    0.11
   6  14  -3    0.09    0.11
   5 -14  -3    0.11    0.10
   5 -14  -3   -0.01    0.11
  -5 -14   3    0.05    0.10
   5  14  -3    0.07    0.10
  -4 -14   3    0.64    0.14
   4 -14  -3    0.54    0.14
   4 -14  -3    0.54    0.13
   4  14  -3    0.36    0.12
   3 -14  -3   -0.13    0.11
   3 -14  -3    0.21    0.10
  -3 -14   3    0.07    0.11
   3  14  -3   -0.11    0.09
   2 -14  -3    0.14    0.10
  -2 -14   3    0.05    0.09
   2 -14  -3    0.11    0.11
  -2 -14   3   -0.03    0.10
   2  14  -3    0.02    0.09
   1 -14  -3    0.03    0.09
  -1 -14   3    0.15    0.09
  -1 -14   3    0.02    0.10
   1 -14  -3   -0.04    0.10
   1  14  -3   -0.06    0.10
   0 -14   3    2.02    0.22
   0 -14   3    1.80    0.21
   0 -14  -3    1.82    0.22
   0  14  -3    2.04    0.21
   1 -14   3   -0.01    0.09
   1 -14   3   -0.07    0.10
  -1 -14  -3   -0.08    0.10
  -1  14  -3    0.05    0.08
   1  14   3    0.03    0.08
  -2 -14  -3    1.57    0.20
   2 -14   3    1.40    0.19
   2 -14   3    1.50    0.19
   2  14   3    1.53    0.19
  -2  14  -3    1.29    0.17
   3 -14   3   -0.12    0.10
   3 -14   3   -0.02    0.09
  -3 -14  -3   -0.04    0.09
   3  14   3    0.12    0.09
  -3  14  -3   -0.03    0.07
   4 -14   3    0.08    0.10
   4 -14   3   -0.11    0.10
   4  14   3   -0.02    0.09
  -4  14  -3   -0.07    0.07
   5 -14   3    0.05    0.11
   5 -14   3    0.16    0.10
  -5  14  -3    0.16    0.09
   5  14   3    0.15    0.11
   6 -14   3   -0.07    0.10
  -6  14  -3    0.02    0.09
  -6 -15   3   -0.06    0.10
   6 -15  -3    0.06    0.10
   6 -15  -3    0.01    0.10
   6  15  -3    0.18    0.10
   5 -15  -3    1.14    0.17
   5 -15  -3    1.37    0.20
   5  15  -3    1.38    0.19
  -4 -15   3    0.11    0.11
   4 -15  -3    0.04    0.10
   4 -15  -3    0.07    0.11
   4  15  -3   -0.15    0.09
  -3 -15   3    2.86    0.27
   3 -15  -3    2.80    0.28
   3 -15  -3    2.55    0.26
   3  15  -3    2.63    0.26
  -2 -15   3    0.02    0.11
   2 -15  -3   -0.11    0.11
   2 -15  -3    0.03    0.10
   2  15  -3    0.02    0.09
   1 -15  -3    4.08    0.37
   1 -15  -3    4.12    0.35
  -1 -15   3    5.01    0.37
  -1 -15   3    4.44    0.34
   1  15  -3    4.30    0.35
   0 -15  -3   -0.18    0.10
   0 -15   3    0.14    0.09
   0 -15   3    0.11    0.11
   0  15  -3   -0.13    0.09
   1 -15   3    2.16    0.23
   1 -15   3    1.72    0.20
  -1 -15  -3    1.85    0.22
  -1  15  -3    1.95    0.20
   2 -15   3   -0.09    0.09
   2 -15   3   -0.09    0.10
  -2 -15  -3   -0.20    0.09
  -2  15  -3   -0.14    0.07
   3 -15   3    1.11    0.16
  -3 -15  -3    1.35    0.19
   3 -15   3    1.33    0.19
  -3  15  -3    1.12    0.16
   3  15   3    1.35    0.19
   4 -15   3    0.06    0.10
   4 -15   3   -0.07    0.10
   4  15   3    0.23    0.10
  -4  15  -3    0.00    0.08
   5 -15   3    0.25    0.11
   4 -16  -3    1.56    0.22
  -4 -16   3    1.58    0.22
   3 -16  -3   -0.08    0.10
  -3 -16   3    0.08    0.10
   3 -16  -3   -0.13    0.11
   3  16  -3    0.22    0.10
  -2 -16   3    2.18    0.22
   2 -16  -3    1.30    0.18
   2 -16  -3    1.48    0.20
   2  16  -3    1.77    0.20
   1 -16  -3   -0.10    0.11
  -1 -16   3   -0.07    0.10
   1  16  -3   -0.10    0.09
   0 -16   3    0.96    0.16
   0 -16   3    1.01    0.16
   0 -16  -3    0.89    0.16
   0  16  -3    1.25    0.16
   1 -16   3   -0.04    0.10
   1 -16   3    0.24    0.10
  -1 -16  -3   -0.09    0.10
  -1  16  -3    0.09    0.09
   2 -16   3    0.33    0.11
  -2 -16  -3    0.36    0.12
   2 -16   3    0.61    0.12
  -2  16  -3    0.28    0.10
 -15   0   4   -0.18    0.09
 -14   0   4    7.98    0.61
  14   0  -4    9.71    0.73
 -13   0   4   -0.12    0.09
  13   0  -4    0.11    0.12
  12   0  -4   44.20    3.24
 -12   0   4   43.57    2.91
 -12   0   4   42.88    2.77
 -11   0   4   -0.09    0.08
 -11   0   4   -0.04    0.10
  11   0  -4   -0.06    0.10
 -11   0   4   -0.04    0.09
 -10   0   4   14.61    1.04
 -10   0   4   15.99    1.12
 -10   0   4   15.29    0.99
  -9   0   4   -0.08    0.06
  -9   0   4   -0.07    0.08
  -9   0   4    0.01    0.07
  -8   0   4   35.21    2.63
  -8   0   4   36.23    2.46
  -8   0   4   39.45    2.34
  -7   0   4   -0.03    0.05
   7   0  -4   -0.06    0.05
  -7   0   4   -0.08    0.06
  -7   0   4    0.03    0.07
  -6   0   4   63.62    4.59
  -6   0   4   67.47    4.49
   6   0  -4   67.50    4.27
  -6   0   4   77.90    4.35
  -6   0   4   70.51    4.90
  -5   0   4   -0.12    0.05
  -5   0   4   -0.09    0.06
  -5   0   4   -0.05    0.05
  -5   0   4    0.01    0.04
  -4   0   4    0.28    0.07
  -4   0   4    0.34    0.06
  -4   0   4    0.47    0.08
   3   0  -4    0.00    0.06
  -3   0   4   -0.04    0.06
  -3   0   4    0.03    0.05
  -3   0   4    0.03    0.06
  -3   0   4    0.01    0.04
   2   0  -4  165.73   11.11
  -2   0   4  170.09   11.24
  -2   0   4  146.21   10.30
  -2   0   4  156.69   11.71
   1   0  -4   -0.03    0.05
  -1   0   4   -0.09    0.04
  -1   0   4   -0.06    0.03
   0   0  -4  310.89   20.44
   0   0   4  269.48   21.54
   0   0   4  301.54   18.95
  -1   0  -4    0.02    0.05
   2   0   4   47.89    3.53
  -2   0  -4   47.72    3.12
  -2   0  -4   52.16    3.35
  -2   0  -4   44.33    3.18
  -3   0  -4    0.00    0.06
  -3   0  -4    0.08    0.06
  -3   0  -4    0.03    0.05
   3   0   4    0.01    0.08
   4   0   4    2.53    0.26
  -4   0  -4    2.92    0.23
  -4   0  -4    2.57    0.22
  -4   0  -4    1.93    0.22
  -5   0  -4    0.13    0.09
  -5   0  -4    0.17    0.07
   5   0   4    0.38    0.10
  -6   0  -4    1.43    0.17
  -6   0  -4    1.28    0.17
   6   0   4    1.18    0.16
  -6   0  -4    1.26    0.18
  -8   0  -4   32.72    2.08
  -8   0  -4   30.88    2.13
   8   0   4   31.24    2.36
 -10   0  -4   17.55    1.18
  10   0   4   17.63    1.34
 -10   0  -4   17.17    1.21
  11   0   4    0.00    0.14
 -11   0  -4   -0.06    0.12
  12   0   4    6.62    0.59
 -12   0  -4    6.81    0.52
 -13   0  -4    0.18    0.11
  13   0   4    0.19    0.14
  15  -1  -4    0.48    0.13
 -15  -1   4   -0.06    0.10
 -15   1   4    0.12    0.10
 -14  -1   4    0.15    0.10
  14  -1  -4    0.23    0.13
 -14   1   4    0.15    0.10
  13  -1  -4    0.84    0.17
 -13  -1   4    0.73    0.14
 -13   1   4    0.58    0.13
  13   1  -4    0.95    0.17
  12  -1  -4    3.46    0.36
 -12  -1   4    2.96    0.29
 -12  -1   4    3.82    0.30
  12   1  -4    4.10    0.36
 -12   1   4    2.77    0.28
  11  -1  -4    2.67    0.33
 -11  -1   4    3.18    0.26
 -11  -1   4    3.27    0.27
 -11  -1   4    2.85    0.31
 -11   1   4    2.91    0.26
 -11   1   4    3.09    0.31
  11   1  -4    2.65    0.32
 -11   1   4    3.32    0.27
 -10  -1   4    0.41    0.09
 -10  -1   4    0.33    0.10
 -10  -1   4    0.29    0.11
  10   1  -4    0.27    0.10
 -10   1   4    0.45    0.11
 -10   1   4    0.18    0.09
 -10   1   4    0.41    0.09
  -9  -1   4    5.10    0.38
  -9  -1   4    5.35    0.37
  -9  -1   4    5.18    0.42
  -9  -1   4    4.77    0.36
  -9   1   4    4.82    0.36
  -9   1   4    5.29    0.38
  -9   1   4    5.31    0.43
  -8  -1   4    0.97    0.11
  -8  -1   4    0.73    0.10
  -8  -1   4    1.02    0.11
  -8  -1   4    0.98    0.13
   8  -1  -4    0.79    0.10
  -8   1   4    0.74    0.11
  -8   1   4    1.12    0.14
  -8   1   4    1.02    0.13
  -7  -1   4   20.10    1.42
   7  -1  -4   21.19    1.32
  -7  -1   4   21.00    1.52
  -7  -1   4   22.07    1.35
  -7  -1   4   21.07    1.39
  -7   1   4   22.97    1.35
  -7   1   4   18.60    1.42
  -7   1   4   22.80    1.52
  -6  -1   4    0.24    0.06
  -6  -1   4    0.22    0.06
  -6   1   4    0.32    0.06
  -6   1   4    0.36    0.08
  -5  -1   4   12.52    0.82
  -5  -1   4   13.10    0.93
  -5  -1   4   12.83    0.85
  -5  -1   4   12.35    0.86
   5  -1  -4   13.10    0.81
  -5   1   4   14.56    0.93
  -5   1   4   11.22    0.86
  -5   1   4   13.16    0.83
  -5   1   4   13.37    0.85
  -4  -1   4    0.04    0.05
  -4  -1   4    0.11    0.05
  -4  -1   4   -0.02    0.05
  -4  -1   4    0.08    0.07
  -4   1   4    0.12    0.05
  -4   1   4    0.15    0.06
  -4   1   4    0.06    0.06
   3  -1  -4    0.19    0.07
  -3  -1   4    0.17    0.04
  -3  -1   4    0.27    0.06
  -3  -1   4   -0.01    0.06
  -3   1   4    0.09    0.06
  -3   1   4    0.09    0.06
  -3   1   4    0.02    0.07
   3   1  -4    0.09    0.06
  -3   1   4    0.25    0.05
  -2   1   4    3.13    0.25
  -2   1   4    3.08    0.22
  -1  -1   4   23.64    1.73
  -1  -1   4   26.12    1.67
   1  -1  -4   30.77    1.87
  -1  -1   4   26.92    1.96
  -1   1   4   23.06    1.73
  -1   1   4   29.52    1.68
   0  -1  -4    4.55    0.27
   0   1   4    3.14    0.28
   1  -1   4   71.15    4.91
  -1  -1  -4   77.68    4.66
   1  -1   4   73.25    4.32
  -1  -1  -4   67.66    4.42
  -1  -1  -4   66.56    4.33
  -1   1  -4   58.69    4.42
  -1   1  -4   68.91    4.66
  -1   1  -4   56.82    4.32
   1   1   4   70.06    4.91
   1   1   4   57.77    4.31
   2  -1   4    1.57    0.15
  -2  -1  -4    1.39    0.17
  -2  -1  -4    2.08    0.18
  -2  -1  -4    2.23    0.17
   2   1   4    1.56    0.20
  -2   1  -4    1.65    0.17
   3  -1   4    2.57    0.28
   3  -1   4    2.86    0.21
  -3  -1  -4    2.93    0.24
  -3  -1  -4    2.83    0.24
  -3   1  -4    3.03    0.23
   3   1   4    3.04    0.27
  -3   1  -4    3.16    0.24
  -4  -1  -4    0.09    0.08
  -4  -1  -4    0.01    0.06
   4  -1   4    0.05    0.05
  -4  -1  -4    0.05    0.07
   4  -1   4   -0.03    0.08
   4   1   4   -0.01    0.08
  -4   1  -4    0.06    0.06
  -4   1  -4    0.08    0.06
  -4   1  -4    0.05    0.07
  -5  -1  -4    9.93    0.70
   5  -1   4    9.78    0.65
  -5  -1  -4   10.96    0.75
   5  -1   4   11.29    0.80
  -5  -1  -4   10.38    0.72
  -5   1  -4   10.06    0.74
  -5   1  -4   10.04    0.70
  -5   1  -4    9.97    0.71
   5   1   4   10.24    0.79
   6  -1   4    0.14    0.10
  -6  -1  -4    0.03    0.09
  -6  -1  -4    0.11    0.07
  -6  -1  -4    0.12    0.07
  -6   1  -4    0.05    0.08
   6   1   4    0.04    0.10
  -6   1  -4    0.11    0.07
  -6   1  -4    0.12    0.07
  -7  -1  -4   23.80    1.56
  -7  -1  -4   21.27    1.53
   7  -1   4   24.98    1.74
  -7  -1  -4   23.72    1.64
  -7   1  -4   23.43    1.64
  -7   1  -4   20.83    1.52
   7   1   4   22.15    1.73
  -7   1  -4   24.53    1.56
  -8  -1  -4   11.65    0.75
  -8  -1  -4   10.81    0.77
  -8  -1  -4   11.94    0.74
  -8   1  -4    8.92    0.72
  -8   1  -4    9.59    0.74
   8   1   4   10.33    0.83
  -9  -1  -4    7.16    0.56
   9  -1   4    8.27    0.66
  -9  -1  -4    7.69    0.58
  -9   1  -4    8.20    0.57
   9   1   4    7.34    0.65
  -9   1  -4    8.39    0.58
  10  -1   4    5.18    0.51
 -10   1  -4    5.71    0.44
 -10   1  -4    5.74    0.45
 -11  -1  -4    0.26    0.13
  11  -1   4    0.31    0.16
 -11   1  -4    0.26    0.13
 -11   1  -4    0.20    0.11
  11   1   4    0.12    0.14
 -12  -1  -4    2.67    0.26
  12  -1   4    1.90    0.31
 -12   1  -4    1.76    0.24
  13  -1   4    0.49    0.16
 -13   1  -4    0.48    0.14
  13   1   4    0.31    0.15
  15  -2  -4    0.28    0.13
 -15   2   4    0.08    0.09
  14  -2  -4    0.19    0.13
 -14  -2   4   -0.04    0.10
 -14   2   4    0.05    0.09
 -13  -2   4    2.08    0.23
 -13  -2   4    2.36    0.24
  13  -2  -4    2.23    0.30
 -13   2   4    1.81    0.22
  12  -2  -4    0.00    0.12
 -12  -2   4    0.15    0.10
 -12  -2   4    0.01    0.10
  12   2  -4    0.02    0.11
 -12   2   4   -0.05    0.09
 -11  -2   4    0.76    0.15
 -11  -2   4    0.77    0.12
 -11  -2   4    0.64    0.12
 -11   2   4    0.94    0.13
  11   2  -4    0.64    0.14
 -11   2   4    0.59    0.11
 -10  -2   4    0.08    0.09
 -10  -2   4    0.21    0.10
 -10  -2   4    0.18    0.08
 -10   2   4    0.12    0.10
 -10   2   4    0.18    0.08
  10   2  -4    0.12    0.09
 -10   2   4    0.15    0.07
  -9  -2   4    0.86    0.11
  -9  -2   4    0.89    0.11
  -9  -2   4    0.76    0.12
  -9  -2   4    0.81    0.12
   9  -2  -4    0.69    0.09
  -9   2   4    0.83    0.11
  -9   2   4    0.80    0.13
  -9   2   4    0.85    0.11
   9   2  -4    0.59    0.12
  -8  -2   4    0.27    0.07
  -8  -2   4    0.28    0.06
   8  -2  -4    0.33    0.07
  -8  -2   4    0.20    0.08
  -8  -2   4    0.06    0.09
  -8   2   4    0.34    0.07
  -8   2   4    0.26    0.07
  -8   2   4    0.24    0.09
  -7  -2   4    0.50    0.08
  -7  -2   4    0.58    0.08
   7  -2  -4    0.49    0.08
  -7  -2   4    0.61    0.10
  -7  -2   4    0.58    0.09
  -7   2   4    0.60    0.08
  -7   2   4    0.47    0.08
  -7   2   4    0.64    0.10
  -6  -2   4    0.87    0.09
   6  -2  -4    0.87    0.12
  -6  -2   4    0.75    0.09
  -6  -2   4    0.78    0.11
  -6  -2   4    0.76    0.09
  -6   2   4    0.97    0.12
  -6   2   4    0.82    0.11
  -6   2   4    0.65    0.10
  -5  -2   4    0.16    0.06
  -5  -2   4    0.30    0.08
   5  -2  -4    0.21    0.06
  -5  -2   4    0.21    0.06
  -5  -2   4    0.27    0.05
  -5   2   4    0.24    0.06
  -5   2   4    0.22    0.05
  -5   2   4    0.11    0.07
  -4  -2   4    0.14    0.06
  -4  -2   4    0.16    0.05
   4  -2  -4    0.13    0.05
  -4  -2   4    0.13    0.04
  -4  -2   4    0.13    0.07
  -4   2   4    0.06    0.06
  -4   2   4    0.16    0.05
  -3  -2   4   -0.06    0.04
  -3  -2   4    0.09    0.06
   3  -2  -4   -0.01    0.07
  -3  -2   4    0.03    0.05
  -3  -2   4    0.06    0.05
  -3   2   4   -0.02    0.04
   3   2  -4   -0.05    0.04
   3   2  -4   -0.09    0.05
  -3   2   4   -0.02    0.06
   2  -2  -4    0.35    0.07
  -2  -2   4    0.32    0.07
  -2  -2   4    0.20    0.05
  -2  -2   4    0.23    0.06
  -2  -2   4    0.33    0.04
  -2   2   4    0.42    0.06
   2   2  -4    0.19    0.05
  -2   2   4    0.32    0.06
  -2   2   4    0.37    0.05
  -1  -2   4    0.90    0.13
  -1  -2   4    1.14    0.14
  -1   2   4    1.45    0.12
  -1   2   4    1.27    0.14
  -1   2   4    1.44    0.15
   1   2  -4    1.13    0.13
   0  -2   4    2.49    0.19
   0  -2   4    2.64    0.23
   0  -2  -4    2.21    0.18
   0  -2   4    2.53    0.20
   0   2  -4    2.60    0.20
   0   2  -4    2.53    0.21
  -1  -2  -4   10.04    0.68
   1  -2   4   10.58    0.76
   1  -2   4   10.82    0.66
  -1  -2  -4    9.60    0.66
   1  -2   4    9.15    0.63
   1   2   4   10.10    0.75
  -1   2  -4    8.99    0.68
  -1   2  -4    9.65    0.71
  -1   2  -4   11.05    0.67
  -2  -2  -4    0.43    0.08
  -2  -2  -4    0.45    0.06
   2  -2   4    0.39    0.09
   2  -2   4    0.46    0.05
  -2  -2  -4    0.50    0.08
   2  -2   4    0.37    0.06
   2   2   4    0.33    0.09
  -2   2  -4    0.53    0.08
  -2   2  -4    0.37    0.06
  -2   2  -4    0.50    0.07
  -3  -2  -4    1.22    0.14
  -3  -2  -4    1.17    0.12
   3  -2   4    1.12    0.13
   3  -2   4    1.07    0.12
  -3  -2  -4    1.11    0.15
   3  -2   4    1.09    0.11
  -3   2  -4    0.90    0.14
  -3   2  -4    1.37    0.14
   3   2   4    1.07    0.17
  -3   2  -4    1.09    0.14
  -4  -2  -4    3.71    0.28
   4  -2   4    3.57    0.24
  -4  -2  -4    3.80    0.28
  -4  -2  -4    3.22    0.28
   4  -2   4    3.46    0.31
  -4   2  -4    3.58    0.28
  -4   2  -4    3.25    0.27
   4   2   4    3.40    0.31
  -4   2  -4    3.40    0.28
  -5  -2  -4    6.04    0.44
  -5  -2  -4    5.92    0.43
   5  -2   4    5.98    0.48
   5  -2   4    5.20    0.38
  -5  -2  -4    5.67    0.42
  -5   2  -4    6.32    0.44
  -5   2  -4    5.86    0.42
  -5   2  -4    5.82    0.41
   5   2   4    5.11    0.47
  -6  -2  -4    1.37    0.16
   6  -2   4    1.66    0.23
   6  -2   4    1.56    0.14
  -6  -2  -4    1.48    0.18
  -6  -2  -4    1.55    0.19
  -6   2  -4    1.57    0.18
   6   2   4    1.30    0.22
  -6   2  -4    1.55    0.18
  -6   2  -4    1.47    0.17
  -7  -2  -4   16.00    1.08
   7  -2   4   15.39    1.20
  -7  -2  -4   16.03    1.06
  -7  -2  -4   16.21    1.12
  -7   2  -4   15.45    1.08
  -7   2  -4   15.70    1.05
   7   2   4   15.03    1.19
   8  -2   4    0.42    0.14
  -8  -2  -4    0.43    0.10
  -8  -2  -4    0.44    0.10
  -8  -2  -4    0.54    0.12
  -8   2  -4    0.31    0.11
   8   2   4    0.53    0.13
  -8   2  -4    0.27    0.09
  -9  -2  -4   12.38    0.85
   9  -2   4   11.49    0.94
  -9   2  -4   11.77    0.82
  -9   2  -4   12.97    0.84
   9   2   4   11.03    0.94
  10  -2   4    0.23    0.15
 -10  -2  -4    0.42    0.13
 -10   2  -4    0.21    0.10
  10   2   4    0.20    0.15
 -10   2  -4    0.08    0.12
  11  -2   4    2.71    0.35
 -11  -2  -4    2.36    0.27
  11   2   4    2.36    0.33
 -11   2  -4    2.78    0.28
 -11   2  -4    3.03    0.29
 -12  -2  -4    0.36    0.13
  12  -2   4    0.17    0.15
 -12   2  -4    0.28    0.12
  12   2   4    0.27    0.15
 -12   2  -4    0.06    0.10
  13   2   4    0.70    0.17
  15  -3  -4    0.71    0.16
 -14  -3   4   -0.08    0.09
  14  -3  -4    0.18    0.12
 -14   3   4    0.20    0.09
 -13  -3   4    5.50    0.41
  13  -3  -4    5.13    0.48
 -13  -3   4    5.04    0.39
 -13   3   4    4.72    0.39
  12  -3  -4    0.72    0.16
 -12  -3   4    0.71    0.13
 -12   3   4    0.69    0.13
 -11  -3   4    6.85    0.48
 -11  -3   4    7.01    0.50
 -11  -3   4    6.95    0.55
 -11   3   4    6.38    0.48
 -10  -3   4   -0.03    0.07
 -10  -3   4    0.05    0.09
 -10  -3   4    0.06    0.09
 -10   3   4   -0.01    0.09
 -10   3   4    0.02    0.07
  10   3  -4   -0.03    0.08
 -10   3   4    0.04    0.07
  -9  -3   4   10.78    0.77
  -9  -3   4   12.49    0.77
   9  -3  -4   11.04    0.74
  -9  -3   4   11.52    0.86
  -9  -3   4   11.09    0.80
   9   3  -4   11.46    0.89
  -9   3   4   11.96    0.80
  -9   3   4   10.67    0.76
  -9   3   4   13.45    0.86
  -8  -3   4   -0.04    0.06
   8  -3  -4    0.01    0.06
  -8  -3   4   -0.04    0.08
  -8  -3   4    0.00    0.07
  -8  -3   4   -0.01    0.05
  -8   3   4   -0.04    0.06
   8   3  -4   -0.12    0.07
  -8   3   4   -0.14    0.08
  -8   3   4    0.01    0.06
  -7  -3   4   42.55    2.68
   7  -3  -4   44.75    2.64
  -7  -3   4   42.99    2.83
  -7  -3   4   41.08    2.76
  -7  -3   4   44.41    3.02
  -7   3   4   39.87    2.83
  -7   3   4   39.63    2.68
  -7   3   4   45.54    3.02
  -6  -3   4    0.07    0.08
   6  -3  -4    0.11    0.06
  -6  -3   4    0.05    0.05
  -6  -3   4    0.03    0.06
  -6  -3   4    0.04    0.06
  -6   3   4    0.03    0.06
  -6   3   4    0.07    0.04
  -6   3   4    0.11    0.06
  -5  -3   4   10.66    0.73
  -5  -3   4   12.37    0.78
  -5  -3   4   10.07    0.69
  -5  -3   4   10.89    0.71
   5  -3  -4   10.97    0.68
  -5   3   4   11.03    0.78
  -5   3   4    9.41    0.72
  -5   3   4   10.57    0.69
  -4  -3   4    0.01    0.06
  -4  -3   4   -0.01    0.05
  -4  -3   4   -0.05    0.06
   4  -3  -4   -0.01    0.05
   4  -3  -4   -0.16    0.08
  -4  -3   4    0.04    0.04
  -4   3   4    0.07    0.05
  -4   3   4    0.03    0.03
  -4   3   4    0.05    0.05
  -3  -3   4   19.64    1.33
  -3  -3   4   21.28    1.31
  -3  -3   4   18.98    1.26
   3  -3  -4   22.39    1.41
   3  -3  -4   18.56    1.24
   3   3  -4   19.55    1.31
   3   3  -4   17.28    1.40
  -3   3   4   21.95    1.27
  -3   3   4   20.64    1.42
  -2  -3   4    1.05    0.13
   2  -3  -4    0.99    0.09
  -2  -3   4    1.32    0.15
  -2   3   4    0.86    0.13
   2   3  -4    1.00    0.10
  -2   3   4    1.23    0.16
  -2   3   4    1.27    0.12
  -1  -3   4   15.58    1.02
  -1  -3   4   16.38    1.07
   1  -3  -4   16.60    1.02
  -1  -3   4   15.51    1.20
   1   3  -4   14.69    1.14
   1   3  -4   17.15    1.07
  -1   3   4   18.04    1.03
  -1   3   4   15.00    1.21
  -1   3   4   17.79    1.16
   0  -3   4    1.56    0.15
   0  -3   4    1.25    0.14
   0  -3  -4    1.36    0.14
   0   3  -4    1.78    0.14
   0   3   4    1.75    0.18
  -1  -3  -4   30.05    1.88
  -1  -3  -4   25.72    1.74
  -1  -3  -4   25.28    1.78
  -1  -3  -4   27.75    1.66
   1  -3   4   26.58    1.74
   1  -3   4   26.21    1.66
   1  -3   4   27.81    1.98
  -1   3  -4   26.27    1.74
   1   3   4   27.97    1.98
  -1   3  -4   24.18    1.87
  -2  -3  -4    0.69    0.09
  -2  -3  -4    0.66    0.08
   2  -3   4    0.67    0.08
   2  -3   4    0.49    0.09
   2  -3   4    0.59    0.07
  -2  -3  -4    0.87    0.13
  -2  -3  -4    0.63    0.08
  -2   3  -4    0.82    0.08
   2   3   4    0.64    0.09
  -2   3  -4    0.81    0.11
  -2   3  -4    0.62    0.08
  -3  -3  -4    3.46    0.27
   3  -3   4    4.04    0.25
   3  -3   4    3.91    0.32
   3  -3   4    3.43    0.25
  -3  -3  -4    3.42    0.28
  -3  -3  -4    3.14    0.24
  -3   3  -4    3.59    0.29
  -3   3  -4    3.53    0.27
   3   3   4    3.33    0.31
  -3   3  -4    3.78    0.27
   4  -3   4    0.12    0.05
  -4  -3  -4    0.16    0.08
  -4  -3  -4    0.20    0.07
   4  -3   4    0.12    0.08
  -4  -3  -4    0.10    0.06
   4  -3   4    0.15    0.04
  -4   3  -4    0.14    0.06
  -4   3  -4    0.10    0.06
  -4   3  -4    0.12    0.06
   4   3   4    0.25    0.09
  -5  -3  -4   17.46    1.15
  -5  -3  -4   18.06    1.23
  -5  -3  -4   17.67    1.18
   5  -3   4   16.06    1.08
   5  -3   4   17.69    1.31
  -5   3  -4   17.50    1.23
  -5   3  -4   17.86    1.17
  -5   3  -4   16.60    1.15
   5   3   4   17.13    1.30
   6  -3   4    0.06    0.10
  -6  -3  -4   -0.02    0.07
  -6  -3  -4    0.00    0.08
  -6  -3  -4    0.00    0.09
   6  -3   4    0.07    0.05
  -6   3  -4    0.02    0.06
   6   3   4    0.05    0.10
  -6   3  -4    0.00    0.07
   7  -3   4   19.53    1.44
  -7  -3  -4   18.70    1.30
  -7  -3  -4   20.12    1.36
  -7   3  -4   20.07    1.29
  -7   3  -4   16.94    1.26
   7   3   4   18.78    1.43
  -8  -3  -4    1.14    0.17
   8  -3   4    1.14    0.18
  -8  -3  -4    1.03    0.15
   8   3   4    0.97    0.16
  -8   3  -4    1.15    0.18
  -8   3  -4    1.29    0.18
  -9  -3  -4   14.56    1.06
   9  -3   4   16.30    1.19
  -9   3  -4   16.19    1.06
  -9   3  -4   13.89    1.03
   9   3   4   15.24    1.17
  10  -3   4    0.26    0.15
 -10  -3  -4    0.05    0.13
 -10   3  -4    0.05    0.11
 -10   3  -4    0.09    0.10
  10   3   4    0.03    0.14
 -11  -3  -4    1.84    0.24
  11  -3   4    1.87    0.30
 -11   3  -4    1.87    0.24
 -11   3  -4    1.61    0.23
  11   3   4    1.62    0.28
 -12  -3  -4    0.07    0.13
  12  -3   4    0.13    0.15
  12   3   4   -0.01    0.14
 -12   3  -4    0.22    0.11
 -12   3  -4    0.02    0.10
  14  -4  -4    2.73    0.32
 -14   4   4    2.29    0.23
  13  -4  -4    0.41    0.15
 -13  -4   4    0.30    0.13
 -13  -4   4    0.22    0.11
 -13   4   4    0.31    0.10
  12  -4  -4   11.21    0.87
 -12  -4   4   10.75    0.76
 -12  -4   4   11.13    0.73
 -12   4   4    9.64    0.72
 -11  -4   4   -0.01    0.08
 -11  -4   4    0.18    0.10
 -11  -4   4   -0.07    0.11
 -11   4   4   -0.04    0.07
  10  -4  -4    1.33    0.15
 -10  -4   4    1.16    0.16
 -10  -4   4    0.94    0.15
 -10  -4   4    1.11    0.14
 -10   4   4    1.01    0.15
  -9  -4   4    0.02    0.07
  -9  -4   4   -0.04    0.08
   9  -4  -4   -0.04    0.06
  -9  -4   4   -0.04    0.08
  -9  -4   4   -0.01    0.05
  -9   4   4    0.02    0.06
  -9   4   4   -0.06    0.09
  -9   4   4   -0.08    0.06
  -8  -4   4    6.92    0.51
  -8  -4   4    6.34    0.56
  -8  -4   4    7.57    0.49
   8  -4  -4    7.00    0.48
  -8  -4   4    7.27    0.49
  -8   4   4    7.37    0.55
  -8   4   4    7.42    0.50
  -8   4   4    7.29    0.48
  -7  -4   4    0.04    0.08
  -7  -4   4    0.06    0.06
  -7  -4   4    0.06    0.06
  -7  -4   4    0.01    0.07
   7  -4  -4    0.02    0.06
  -7   4   4   -0.03    0.05
  -7   4   4    0.01    0.07
  -7   4   4   -0.01    0.05
  -6  -4   4   16.44    1.05
   6  -4  -4   15.71    1.01
  -6  -4   4   15.51    1.02
  -6  -4   4   18.03    1.15
  -6  -4   4   16.79    1.08
  -6   4   4   14.81    1.02
  -6   4   4   14.93    1.07
  -6   4   4   15.61    1.15
  -5  -4   4    0.04    0.06
  -5  -4   4    0.02    0.06
  -5  -4   4   -0.02    0.07
   5  -4  -4    0.05    0.05
  -5  -4   4    0.06    0.05
  -5   4   4    0.03    0.05
  -5   4   4    0.02    0.06
  -5   4   4    0.03    0.04
  -4  -4   4    1.54    0.17
  -4  -4   4    1.51    0.13
  -4  -4   4    1.79    0.16
   4  -4  -4    1.35    0.15
   4  -4  -4    1.71    0.19
  -4  -4   4    1.68    0.17
   4   4  -4    1.64    0.14
  -4   4   4    1.49    0.16
  -4   4   4    1.47    0.14
  -4   4   4    1.40    0.13
  -3  -4   4    0.37    0.07
  -3  -4   4    0.35    0.07
   3  -4  -4    0.25    0.06
   3  -4  -4    0.37    0.08
  -3  -4   4    0.33    0.04
  -3   4   4    0.32    0.06
   3   4  -4    0.25    0.07
   3   4  -4    0.19    0.05
  -3   4   4    0.27    0.06
  -2  -4   4    4.13    0.32
   2  -4  -4    4.72    0.31
  -2  -4   4    5.01    0.35
  -2  -4   4    3.96    0.30
  -2   4   4    4.20    0.37
   2   4  -4    4.56    0.32
  -2   4   4    4.60    0.30
  -2   4   4    4.56    0.34
   2   4  -4    4.63    0.33
  -1  -4   4    0.25    0.06
   1  -4  -4    0.25    0.06
  -1  -4   4    0.18    0.06
   1  -4  -4    0.29    0.05
   1  -4  -4    0.34    0.08
  -1   4   4    0.38    0.05
  -1   4   4    0.30    0.07
   1   4  -4    0.30    0.04
   1   4  -4    0.33    0.06
  -1   4   4    0.48    0.06
   0  -4   4    2.36    0.18
   0  -4  -4    1.95    0.16
   0  -4   4    2.20    0.18
   0  -4   4    1.67    0.16
   0  -4  -4    2.01    0.17
   0   4  -4    1.65    0.16
   0   4   4    2.17    0.17
   0   4  -4    1.87    0.18
  -1  -4  -4    0.35    0.07
   1  -4   4    0.33    0.06
  -1  -4  -4    0.29    0.08
  -1  -4  -4    0.40    0.05
   1  -4   4    0.32    0.07
   1  -4   4    0.40    0.06
  -1   4  -4    0.42    0.06
  -1   4  -4    0.37    0.06
   1   4   4    0.44    0.07
   2  -4   4    9.42    0.56
   2  -4   4    8.76    0.66
  -2  -4  -4    8.28    0.55
   2  -4   4    8.28    0.58
  -2  -4  -4    8.03    0.59
  -2   4  -4    9.27    0.58
  -2   4  -4    8.12    0.62
   2   4   4    9.14    0.66
   3  -4   4    0.33    0.09
  -3  -4  -4    0.55    0.08
   3  -4   4    0.31    0.06
  -3  -4  -4    0.55    0.09
  -3  -4  -4    0.51    0.09
   3  -4   4    0.44    0.07
  -3   4  -4    0.39    0.07
  -3   4  -4    0.41    0.07
   3   4   4    0.40    0.09
  -3   4  -4    0.41    0.08
   4  -4   4    0.11    0.04
   4  -4   4    0.08    0.06
  -4  -4  -4    0.12    0.08
   4  -4   4    0.14    0.08
  -4  -4  -4    0.17    0.08
  -4   4  -4    0.14    0.06
  -4   4  -4    0.16    0.07
  -4   4  -4    0.15    0.05
   4   4   4    0.10    0.09
  -5  -4  -4    1.77    0.19
   5  -4   4    1.48    0.15
  -5  -4  -4    1.57    0.18
   5  -4   4    1.42    0.21
  -5   4  -4    1.31    0.16
  -5   4  -4    1.59    0.17
   5   4   4    1.33    0.21
   6  -4   4    0.43    0.12
  -6  -4  -4    0.40    0.10
   6  -4   4    0.34    0.07
  -6  -4  -4    0.44    0.09
  -6   4  -4    0.33    0.08
   6   4   4    0.36    0.11
  -6   4  -4    0.39    0.09
  -7  -4  -4    1.22    0.19
  -7  -4  -4    1.21    0.16
   7  -4   4    1.36    0.23
   7  -4   4    0.98    0.14
  -7   4  -4    1.21    0.14
   7   4   4    1.07    0.16
  -7   4  -4    1.10    0.14
   8  -4   4    5.93    0.49
  -8  -4  -4    5.47    0.43
  -8  -4  -4    5.53    0.43
  -8   4  -4    4.71    0.40
   8   4   4    5.21    0.47
  -8   4  -4    5.64    0.42
   9  -4   4    1.14    0.20
  -9  -4  -4    1.64    0.23
   9   4   4    1.02    0.18
  -9   4  -4    1.15    0.16
  -9   4  -4    1.19    0.15
  10  -4   4    1.57    0.23
 -10  -4  -4    1.37    0.19
 -10   4  -4    1.40    0.21
  10   4   4    1.49    0.21
 -10   4  -4    1.61    0.20
  11  -4   4    0.81    0.19
 -11  -4  -4    0.49    0.15
 -11   4  -4    0.72    0.13
  11   4   4    0.51    0.17
 -11   4  -4    0.70    0.15
 -12  -4  -4    0.64    0.17
  12  -4   4    1.67    0.27
 -12   4  -4    1.28    0.18
 -12   4  -4    1.04    0.16
  14  -5  -4    0.31    0.15
 -14   5   4    0.33    0.09
  13  -5  -4    0.17    0.14
 -13  -5   4   -0.01    0.11
 -13   5   4    0.09    0.09
  12  -5  -4    1.13    0.19
 -12  -5   4    1.19    0.16
 -12   5   4    1.19    0.17
 -11  -5   4   -0.09    0.09
 -11  -5   4    0.10    0.10
 -11  -5   4   -0.21    0.10
 -11   5   4   -0.07    0.07
 -10  -5   4    0.14    0.08
  10  -5  -4    0.13    0.08
 -10  -5   4    0.09    0.10
 -10  -5   4    0.15    0.10
 -10   5   4    0.11    0.07
  -9  -5   4    0.69    0.12
  -9  -5   4    0.41    0.12
  -9  -5   4    0.80    0.11
   9  -5  -4    0.59    0.10
  -9  -5   4    0.61    0.11
  -9   5   4    0.97    0.14
  -9   5   4    0.68    0.10
  -8  -5   4    1.29    0.14
   8  -5  -4    1.12    0.15
  -8  -5   4    1.27    0.17
  -8  -5   4    0.95    0.13
  -8  -5   4    1.05    0.14
  -8   5   4    1.10    0.14
  -8   5   4    0.91    0.14
  -8   5   4    1.02    0.14
   7  -5  -4    0.08    0.07
  -7  -5   4    0.01    0.06
  -7  -5   4   -0.06    0.06
  -7  -5   4    0.03    0.08
  -7  -5   4   -0.03    0.07
  -7   5   4    0.09    0.06
  -7   5   4   -0.02    0.07
  -7   5   4    0.14    0.05
  -6  -5   4    0.05    0.06
  -6  -5   4    0.13    0.07
  -6  -5   4    0.09    0.08
  -6  -5   4    0.03    0.05
   6  -5  -4    0.04    0.06
  -6   5   4    0.07    0.04
  -6   5   4    0.04    0.06
  -6   5   4    0.06    0.06
  -5  -5   4    0.06    0.07
  -5  -5   4    0.07    0.04
   5  -5  -4    0.10    0.08
   5  -5  -4    0.02    0.06
  -5  -5   4   -0.10    0.08
  -5  -5   4    0.08    0.06
  -5   5   4    0.03    0.04
  -5   5   4    0.02    0.05
  -5   5   4   -0.02    0.05
  -4  -5   4    0.06    0.06
  -4  -5   4   -0.09    0.07
   4  -5  -4   -0.06    0.07
  -4  -5   4    0.01    0.03
  -4  -5   4   -0.01    0.05
   4  -5  -4   -0.02    0.05
  -4   5   4    0.02    0.05
  -4   5   4   -0.03    0.05
   3  -5  -4    0.64    0.08
  -3  -5   4    0.55    0.06
  -3  -5   4    0.58    0.08
  -3  -5   4    0.75    0.12
   3  -5  -4    0.72    0.10
  -3  -5   4    0.49    0.07
  -3   5   4    0.45    0.07
   3   5  -4    0.53    0.08
  -3   5   4    0.51    0.07
  -2  -5   4    0.09    0.06
  -2  -5   4    0.18    0.06
   2  -5  -4    0.21    0.07
   2  -5  -4    0.13    0.06
  -2  -5   4    0.12    0.06
  -2   5   4    0.14    0.08
  -2   5   4    0.16    0.05
   2   5  -4    0.15    0.06
  -2   5   4    0.17    0.05
   1  -5  -4    0.50    0.08
  -1  -5   4    0.63    0.08
  -1  -5   4    0.66    0.08
   1  -5  -4    0.68    0.08
   1   5  -4    0.99    0.13
  -1   5   4    0.76    0.09
  -1   5   4    0.88    0.11
   0  -5  -4    0.30    0.08
   0  -5  -4    0.35    0.07
   0  -5  -4    0.33    0.07
   0  -5   4    0.36    0.06
   0  -5   4    0.39    0.07
   0  -5   4    0.29    0.06
   0   5  -4    0.40    0.07
   0   5  -4    0.41    0.05
   0   5   4    0.27    0.07
   0   5   4    0.39    0.07
  -1  -5  -4    1.65    0.16
  -1  -5  -4    1.41    0.17
   1  -5   4    1.63    0.15
   1  -5   4    1.53    0.17
   1  -5   4    1.82    0.15
  -1  -5  -4    1.41    0.14
   1   5   4    1.68    0.18
  -1   5  -4    1.33    0.15
  -1   5  -4    1.46    0.14
   2  -5   4    3.16    0.27
  -2  -5  -4    2.63    0.22
  -2  -5  -4    2.81    0.24
   2  -5   4    2.91    0.23
  -2  -5  -4    3.24    0.25
   2  -5   4    2.70    0.23
  -2   5  -4    3.20    0.24
  -2   5  -4    3.25    0.23
   2   5   4    2.96    0.27
  -3  -5  -4   -0.01    0.04
   3  -5   4    0.00    0.06
  -3  -5  -4    0.04    0.07
  -3  -5  -4    0.04    0.07
   3  -5   4    0.03    0.05
   3  -5   4    0.00    0.07
  -3   5  -4    0.06    0.05
   3   5   4    0.03    0.07
  -3   5  -4    0.05    0.06
  -4  -5  -4    1.08    0.15
   4  -5   4    0.91    0.11
  -4  -5  -4    0.92    0.14
   4  -5   4    1.02    0.18
   4  -5   4    0.95    0.12
  -4   5  -4    0.92    0.14
  -4   5  -4    1.00    0.11
   4   5   4    0.93    0.12
  -5  -5  -4    1.67    0.18
   5  -5   4    1.75    0.23
  -5  -5  -4    1.68    0.20
   5  -5   4    1.68    0.17
   5   5   4    1.73    0.22
  -5   5  -4    1.68    0.17
  -5   5  -4    1.81    0.18
  -6  -5  -4    0.05    0.09
  -6  -5  -4    0.05    0.08
   6  -5   4    0.01    0.06
   6  -5   4   -0.03    0.10
  -6   5  -4    0.01    0.07
  -6   5  -4    0.01    0.06
   6   5   4    0.06    0.10
  -7  -5  -4   -0.03    0.08
   7  -5   4   -0.02    0.07
  -7  -5  -4   -0.03    0.10
   7  -5   4   -0.10    0.11
  -7   5  -4   -0.06    0.07
   7   5   4    0.09    0.11
  -7   5  -4   -0.05    0.06
  -8  -5  -4    3.38    0.30
   8  -5   4    3.46    0.36
  -8  -5  -4    3.39    0.31
   8   5   4    3.26    0.35
  -8   5  -4    3.37    0.29
  -8   5  -4    3.36    0.29
   9  -5   4    1.78    0.25
  -9  -5  -4    1.83    0.24
   9   5   4    1.88    0.28
  -9   5  -4    1.86    0.22
  -9   5  -4    1.82    0.22
  10  -5   4    1.95    0.32
 -10  -5  -4    1.53    0.24
  10   5   4    2.18    0.30
 -10   5  -4    2.00    0.24
 -10   5  -4    2.20    0.23
  11  -5   4    0.33    0.16
 -11   5  -4    0.34    0.12
 -11   5  -4    0.32    0.10
 -12  -5  -4    0.79    0.16
 -12   5  -4    1.02    0.16
 -12   5  -4    1.15    0.18
 -14  -6   4   -0.09    0.11
  14  -6  -4    0.33    0.15
 -14   6   4    0.29    0.08
  13  -6  -4    0.58    0.16
 -13  -6   4    0.36    0.12
 -13   6   4    0.39    0.10
 -12  -6   4    2.02    0.22
  12  -6  -4    2.17    0.30
 -12   6   4    1.53    0.19
 -11  -6   4    0.16    0.11
 -11   6   4    0.06    0.08
 -10  -6   4    2.91    0.27
 -10  -6   4    2.44    0.28
  10  -6  -4    3.00    0.25
 -10  -6   4    3.05    0.25
 -10   6   4    2.73    0.24
   9  -6  -4    0.01    0.08
  -9  -6   4   -0.09    0.07
  -9  -6   4   -0.03    0.09
  -9  -6   4   -0.01    0.08
  -9   6   4    0.05    0.06
  -8  -6   4    2.39    0.21
  -8  -6   4    2.24    0.24
  -8  -6   4    2.61    0.21
  -8  -6   4    1.92    0.24
   8  -6  -4    2.51    0.22
  -8   6   4    2.82    0.22
  -8   6   4    2.34    0.21
  -7  -6   4    0.07    0.06
  -7  -6   4    0.05    0.08
  -7  -6   4    0.10    0.08
   7  -6  -4    0.10    0.07
  -7  -6   4    0.03    0.07
  -7   6   4    0.14    0.06
  -7   6   4    0.07    0.06
  -7   6   4    0.10    0.08
   6  -6  -4   13.31    0.83
  -6  -6   4   13.18    0.86
  -6  -6   4   12.64    0.83
  -6  -6   4   12.84    0.88
   6  -6  -4   13.77    0.93
  -6  -6   4   11.82    0.93
  -6   6   4   13.63    0.93
  -6   6   4   12.54    0.83
  -6   6   4   12.38    0.87
  -5  -6   4   -0.02    0.04
   5  -6  -4   -0.03    0.07
  -5  -6   4   -0.01    0.07
  -5  -6   4   -0.04    0.06
   5  -6  -4    0.02    0.06
  -5  -6   4    0.04    0.06
  -5   6   4   -0.04    0.05
  -5   6   4    0.01    0.06
  -5   6   4   -0.01    0.04
   4  -6  -4   10.38    0.69
  -4  -6   4   11.23    0.74
  -4  -6   4   10.79    0.72
   4  -6  -4   11.50    0.78
  -4  -6   4   10.95    0.78
  -4   6   4    9.45    0.78
  -4   6   4   10.47    0.69
   4   6  -4   11.40    0.73
  -3  -6   4    0.33    0.06
   3  -6  -4    0.33    0.08
  -3  -6   4    0.17    0.07
   3  -6  -4    0.35    0.07
  -3  -6   4    0.24    0.07
   3   6  -4    0.32    0.08
  -3   6   4    0.22    0.04
  -3   6   4    0.32    0.05
  -3   6   4    0.30    0.06
  -2  -6   4    1.76    0.17
   2  -6  -4    1.18    0.16
  -2  -6   4    1.38    0.16
   2  -6  -4    2.04    0.18
  -2  -6   4    1.59    0.15
   2   6  -4    1.64    0.18
  -2   6   4    1.72    0.14
  -2   6   4    1.48    0.13
  -1  -6   4    0.01    0.05
  -1  -6   4    0.03    0.05
   1  -6  -4   -0.05    0.07
   1  -6  -4   -0.05    0.06
  -1   6   4   -0.03    0.07
  -1   6   4    0.04    0.05
   1   6  -4    0.00    0.06
   0  -6   4    2.78    0.26
   0  -6  -4    2.65    0.24
   0  -6  -4    3.43    0.26
   0  -6  -4    3.71    0.28
   0  -6   4    3.45    0.24
   0  -6   4    3.43    0.26
   0   6   4    3.32    0.28
   0   6  -4    3.73    0.26
   0   6   4    3.56    0.25
   1  -6   4    0.87    0.13
  -1  -6  -4    0.99    0.11
   1  -6   4    1.18    0.13
  -1  -6  -4    0.84    0.09
  -1  -6  -4    0.92    0.10
   1  -6   4    0.91    0.13
  -1   6  -4    1.11    0.14
   1   6   4    0.85    0.15
  -2  -6  -4    5.42    0.41
   2  -6   4    6.40    0.44
   2  -6   4    6.17    0.50
  -2  -6  -4    7.12    0.48
  -2  -6  -4    6.01    0.44
  -2  -6  -4    6.97    0.46
   2  -6   4    6.63    0.43
  -2   6  -4    6.77    0.45
   2   6   4    6.49    0.50
  -3  -6  -4    0.18    0.08
  -3  -6  -4    0.13    0.05
   3  -6   4    0.16    0.07
  -3  -6  -4    0.13    0.08
   3  -6   4    0.14    0.06
   3  -6   4    0.20    0.08
  -3   6  -4    0.18    0.06
   3   6   4    0.15    0.08
   4  -6   4    1.35    0.14
  -4  -6  -4    1.21    0.18
   4  -6   4    1.33    0.20
  -4  -6  -4    1.37    0.17
   4  -6   4    1.44    0.16
   4   6   4    1.41    0.19
  -4   6  -4    1.60    0.16
  -4   6  -4    1.40    0.15
  -5  -6  -4    0.10    0.08
  -5  -6  -4    0.04    0.09
   5  -6   4   -0.02    0.09
   5  -6   4    0.10    0.07
   5   6   4    0.08    0.09
  -5   6  -4    0.13    0.07
  -5   6  -4    0.13    0.06
   6  -6   4    0.19    0.08
  -6  -6  -4    0.10    0.10
   6  -6   4    0.17    0.11
  -6  -6  -4    0.16    0.09
   6   6   4    0.07    0.11
  -6   6  -4    0.13    0.08
  -6   6  -4    0.11    0.06
  -7  -6  -4    0.47    0.11
  -7  -6  -4    0.69    0.13
   7  -6   4    0.52    0.10
   7  -6   4    0.63    0.14
  -7   6  -4    0.62    0.11
   7   6   4    0.61    0.13
  -7   6  -4    0.57    0.10
  -8  -6  -4    6.15    0.45
  -8  -6  -4    6.16    0.46
   8  -6   4    5.71    0.52
   8   6   4    6.10    0.50
  -8   6  -4    5.12    0.43
  -8   6  -4    5.45    0.44
  -9  -6  -4    6.68    0.52
   9  -6   4    6.47    0.60
  -9   6  -4    6.88    0.50
  -9   6  -4    6.72    0.51
  10  -6   4    1.41    0.24
 -10  -6  -4    1.16    0.19
 -10   6  -4    1.34    0.20
 -10   6  -4    1.53    0.21
  11  -6   4    2.16    0.30
 -11  -6  -4    1.79    0.24
 -11   6  -4    1.52    0.23
 -11   6  -4    1.95    0.24
 -12  -6  -4    0.59    0.14
 -12   6  -4    0.45    0.13
  13  -7  -4    5.92    0.50
 -13  -7   4    5.37    0.43
 -13   7   4    4.98    0.40
 -12  -7   4    0.18    0.12
  12  -7  -4    0.12    0.14
 -12   7   4    0.01    0.08
 -11  -7   4    3.70    0.31
  11  -7  -4    3.59    0.29
 -11   7   4    3.19    0.28
 -10  -7   4    0.08    0.11
  10  -7  -4    0.00    0.09
 -10   7   4    0.14    0.08
  -9  -7   4    4.47    0.37
   9  -7  -4    5.03    0.35
  -9   7   4    4.55    0.34
  -8  -7   4    0.57    0.11
  -8  -7   4    0.47    0.09
  -8  -7   4    0.36    0.10
   8  -7  -4    0.46    0.10
  -8   7   4    0.46    0.08
  -7  -7   4   18.27    1.33
   7  -7  -4   20.54    1.18
   7  -7  -4   19.25    1.33
  -7  -7   4   17.33    1.26
  -7  -7   4   17.75    1.23
  -7   7   4   17.95    1.25
  -7   7   4   19.02    1.19
   6  -7  -4    0.14    0.07
  -6  -7   4    0.11    0.08
  -6  -7   4    0.12    0.07
  -6  -7   4    0.15    0.07
   6  -7  -4    0.05    0.09
  -6   7   4    0.12    0.06
  -6   7   4    0.11    0.05
  -5  -7   4    4.87    0.41
   5  -7  -4    6.01    0.38
   5  -7  -4    5.70    0.42
  -5  -7   4    4.87    0.40
  -5  -7   4    5.31    0.38
  -5   7   4    5.52    0.37
  -4  -7   4    0.66    0.09
  -4  -7   4    0.61    0.08
   4  -7  -4    0.77    0.11
  -4  -7   4    0.58    0.08
   4  -7  -4    0.72    0.10
  -4   7   4    0.69    0.08
   4   7  -4    0.71    0.10
  -3  -7   4   22.04    1.43
  -3  -7   4   21.41    1.63
   3  -7  -4   24.62    1.63
  -3  -7   4   24.39    1.51
   3  -7  -4   26.69    1.45
  -3   7   4   21.10    1.50
  -3   7   4   22.29    1.46
   3   7  -4   22.02    1.52
  -2  -7   4    0.01    0.06
  -2  -7   4   -0.02    0.06
   2  -7  -4    0.00    0.08
   2  -7  -4    0.07    0.06
  -2  -7   4    0.08    0.06
  -2   7   4    0.03    0.05
   2   7  -4    0.06    0.07
  -2   7   4    0.10    0.03
  -1  -7   4    1.97    0.20
  -1  -7   4    2.32    0.20
   1  -7  -4    1.69    0.19
  -1  -7   4    2.50    0.18
   1  -7  -4    2.45    0.22
  -1   7   4    2.07    0.22
   1   7  -4    2.47    0.21
  -1   7   4    2.27    0.18
   0  -7  -4   -0.01    0.07
   0  -7   4    0.03    0.06
   0  -7   4    0.10    0.06
   0  -7  -4    0.05    0.06
   0  -7  -4    0.03    0.07
   0   7  -4    0.05    0.06
   0   7   4   -0.01    0.06
   0   7   4    0.09    0.06
  -1  -7  -4    8.29    0.60
  -1  -7  -4    8.06    0.54
   1  -7   4    8.14    0.56
  -1  -7  -4    8.65    0.58
   1  -7   4    8.90    0.54
  -1  -7  -4    8.14    0.57
   1   7   4    7.66    0.55
  -1   7  -4    8.85    0.57
   1   7   4    7.97    0.63
  -2  -7  -4   -0.01    0.07
  -2  -7  -4    0.12    0.05
  -2  -7  -4    0.09    0.07
   2  -7   4    0.11    0.07
   2  -7   4    0.03    0.06
  -2  -7  -4    0.06    0.06
   2  -7   4    0.07    0.06
   2   7   4    0.00    0.06
  -2   7  -4    0.08    0.06
  -3  -7  -4    5.15    0.36
   3  -7   4    4.81    0.37
   3  -7   4    4.67    0.42
  -3  -7  -4    5.24    0.38
  -3  -7  -4    5.21    0.40
   3  -7   4    5.69    0.36
   3   7   4    5.31    0.42
  -3   7  -4    5.36    0.37
  -4  -7  -4   -0.05    0.08
   4  -7   4   -0.09    0.07
   4  -7   4   -0.16    0.08
   4  -7   4   -0.07    0.06
  -4  -7  -4   -0.04    0.07
  -4   7  -4   -0.01    0.05
  -4   7  -4    0.03    0.06
   4   7   4   -0.04    0.08
  -5  -7  -4    6.81    0.50
   5  -7   4    6.56    0.54
   5  -7   4    6.95    0.46
  -5  -7  -4    6.55    0.49
   5   7   4    6.83    0.53
  -5   7  -4    6.57    0.48
  -5   7  -4    6.45    0.47
   6  -7   4    0.32    0.09
   6  -7   4    0.19    0.11
  -6  -7  -4    0.32    0.10
  -6  -7  -4    0.33    0.11
  -6   7  -4    0.26    0.08
  -6   7  -4    0.31    0.09
   7  -7   4    2.42    0.23
  -7  -7  -4    2.44    0.24
  -7  -7  -4    2.51    0.25
   7  -7   4    2.42    0.29
  -7   7  -4    2.66    0.24
  -7   7  -4    2.18    0.23
  -8  -7  -4    0.38    0.13
  -8  -7  -4    0.24    0.10
   8  -7   4    0.27    0.15
   8  -7   4    0.21    0.10
  -8   7  -4    0.22    0.09
  -8   7  -4    0.31    0.10
   9  -7   4   15.55    1.12
  -9  -7  -4   13.58    1.00
  -9   7  -4   13.28    0.96
  -9   7  -4   14.30    0.99
  10  -7   4    0.85    0.19
 -10  -7  -4    0.75    0.16
 -10   7  -4    0.82    0.15
 -10   7  -4    0.76    0.12
 -11  -7  -4    3.98    0.38
  11  -7   4    5.16    0.46
 -11   7  -4    4.72    0.39
  13  -8  -4    1.61    0.26
 -13  -8   4    0.85    0.15
  12  -8  -4    2.89    0.26
 -12  -8   4    2.71    0.27
  12  -8  -4    2.77    0.34
 -12   8   4    2.36    0.24
 -11  -8   4    0.56    0.13
  11  -8  -4    0.68    0.12
  11  -8  -4    0.27    0.11
 -11   8   4    0.38    0.09
 -10  -8   4    0.12    0.12
  10  -8  -4    0.34    0.10
  10  -8  -4    0.12    0.10
 -10   8   4    0.26    0.08
  -9  -8   4    0.50    0.11
   9  -8  -4    0.47    0.11
   9  -8  -4    0.47    0.12
  -9   8   4    0.34    0.08
   8  -8  -4    1.34    0.20
  -8  -8   4    1.94    0.21
  -8  -8   4    1.58    0.18
   8  -8  -4    1.26    0.16
  -8   8   4    1.20    0.16
  -7  -8   4    0.20    0.08
   7  -8  -4    0.24    0.10
  -7  -8   4    0.23    0.09
   7  -8  -4    0.18    0.09
  -7   8   4    0.17    0.07
  -7   8   4    0.20    0.07
  -6  -8   4    4.47    0.32
   6  -8  -4    3.98    0.30
   6  -8  -4    3.80    0.33
  -6  -8   4    4.23    0.30
  -6   8   4    3.53    0.30
  -6   8   4    3.56    0.28
  -5  -8   4    0.33    0.08
   5  -8  -4    0.26    0.08
  -5  -8   4    0.29    0.09
   5  -8  -4    0.35    0.10
  -5   8   4    0.31    0.07
   5   8  -4    0.34    0.09
   4  -8  -4   13.54    1.00
   4  -8  -4   15.33    0.90
  -4  -8   4   13.59    0.94
  -4  -8   4   12.35    0.88
  -4   8   4   14.59    0.90
   4   8  -4   14.86    0.95
   3  -8  -4   -0.06    0.08
  -3  -8   4   -0.02    0.06
  -3  -8   4    0.04    0.07
   3  -8  -4   -0.04    0.06
  -3   8   4    0.02    0.05
   3   8  -4   -0.03    0.07
   2  -8  -4    1.50    0.16
  -2  -8   4    1.22    0.15
  -2  -8   4    1.37    0.15
  -2  -8   4    1.56    0.16
   2  -8  -4    1.37    0.17
   2   8  -4    1.62    0.17
  -2   8   4    1.64    0.14
  -2   8   4    1.49    0.13
  -1  -8   4    0.05    0.06
   1  -8  -4    0.02    0.06
   1  -8  -4   -0.10    0.07
  -1  -8   4    0.00    0.06
   1   8  -4    0.00    0.06
  -1   8   4    0.01    0.05
   0  -8  -4    0.65    0.09
   0  -8   4    0.67    0.09
   0  -8  -4    0.57    0.09
   0  -8   4    0.50    0.09
   0  -8  -4    0.54    0.09
   0   8   4    0.60    0.08
   0   8   4    0.61    0.09
   0   8  -4    0.62    0.09
  -1  -8  -4    0.02    0.07
   1  -8   4   -0.01    0.06
   1  -8   4   -0.04    0.07
  -1  -8  -4   -0.02    0.07
  -1  -8  -4    0.05    0.06
  -1  -8  -4    0.13    0.06
   1   8   4    0.04    0.07
  -1   8  -4    0.03    0.06
   1   8   4    0.03    0.07
  -2  -8  -4   11.03    0.69
  -2  -8  -4   11.93    0.74
  -2  -8  -4   10.04    0.78
   2  -8   4   10.52    0.73
   2  -8   4   11.59    0.71
  -2  -8  -4   10.82    0.75
  -2   8  -4   10.80    0.74
   2   8   4   10.65    0.82
  -3  -8  -4    0.66    0.10
   3  -8   4    0.65    0.10
  -3  -8  -4    0.64    0.09
   3  -8   4    0.41    0.09
  -3  -8  -4    0.63    0.09
   3  -8   4    0.59    0.10
  -3   8  -4    0.59    0.09
   4  -8   4    2.15    0.20
   4  -8   4    2.30    0.21
  -4  -8  -4    2.12    0.22
  -4  -8  -4    2.46    0.20
   4  -8   4    2.10    0.23
  -4   8  -4    2.21    0.20
  -4   8  -4    2.08    0.20
  -5  -8  -4    1.16    0.16
   5  -8   4    1.31    0.17
   5  -8   4    1.27    0.20
   5  -8   4    1.32    0.16
  -5  -8  -4    1.47    0.19
  -5   8  -4    1.65    0.17
  -5   8  -4    1.46    0.16
   6  -8   4   -0.04    0.10
   6  -8   4   -0.01    0.09
  -6  -8  -4    0.11    0.08
  -6  -8  -4    0.11    0.10
  -6   8  -4   -0.03    0.06
  -6   8  -4    0.00    0.07
   7  -8   4    0.94    0.16
  -7  -8  -4    0.74    0.12
  -7  -8  -4    0.97    0.15
   7  -8   4    0.80    0.13
  -7   8  -4    0.85    0.13
  -7   8  -4    0.84    0.12
   8  -8   4    1.37    0.20
   8  -8   4    1.12    0.15
  -8   8  -4    1.13    0.15
  -8   8  -4    1.25    0.17
   9  -8   4    4.44    0.45
  -9  -8  -4    4.03    0.38
  -9   8  -4    4.64    0.36
  -9   8  -4    4.73    0.38
 -10  -8  -4    0.43    0.14
 -10   8  -4    0.16    0.09
 -10   8  -4    0.07    0.10
  11  -8   4    3.70    0.38
 -11   8  -4    3.32    0.31
 -12  -9   4    1.13    0.17
  12  -9  -4    1.38    0.19
  12  -9  -4    1.25    0.21
  11  -9  -4    0.56    0.13
 -11  -9   4    0.60    0.14
  11  -9  -4    0.36    0.16
  11  -9  -4    0.44    0.12
 -10  -9   4    0.12    0.12
  10  -9  -4    0.32    0.11
  10  -9  -4    0.10    0.10
   9  -9  -4    0.71    0.12
   9  -9  -4    0.62    0.13
   9  -9  -4    0.93    0.15
  -9  -9   4    0.82    0.14
  -9   9   4    0.72    0.11
   8  -9  -4    0.22    0.10
   8  -9  -4    0.32    0.11
   8  -9  -4    0.32    0.10
  -8  -9   4    0.36    0.11
  -8  -9   4    0.31    0.09
  -8   9   4    0.29    0.08
   7  -9  -4    1.11    0.15
  -7  -9   4    1.04    0.14
   7  -9  -4    1.30    0.18
  -7  -9   4    1.43    0.19
  -7   9   4    0.87    0.12
  -6  -9   4    0.03    0.10
   6  -9  -4    0.14    0.08
   6  -9  -4    0.08    0.09
  -6  -9   4    0.02    0.08
  -6   9   4    0.10    0.06
  -6   9   4    0.02    0.06
   6   9  -4    0.09    0.09
   5  -9  -4    0.65    0.11
  -5  -9   4    0.72    0.11
   5  -9  -4    0.46    0.11
   5   9  -4    0.53    0.10
  -5   9   4    0.49    0.08
  -4  -9   4    0.08    0.06
   4  -9  -4   -0.09    0.08
   4  -9  -4   -0.03    0.07
  -4  -9   4    0.09    0.08
   4   9  -4   -0.05    0.07
  -4   9   4   -0.01    0.05
   3  -9  -4    0.96    0.13
  -3  -9   4    0.91    0.13
   3  -9  -4    1.06    0.12
  -3  -9   4    1.06    0.16
  -3   9   4    1.12    0.13
   3   9  -4    1.01    0.12
   2  -9  -4   -0.01    0.07
  -2  -9   4   -0.02    0.07
   2  -9  -4   -0.05    0.07
   2  -9  -4   -0.05    0.08
  -2  -9   4   -0.05    0.07
  -2   9   4   -0.08    0.05
  -2   9   4    0.01    0.04
   2   9  -4   -0.11    0.07
   1  -9  -4    1.40    0.17
  -1  -9   4    1.61    0.18
  -1  -9   4    1.28    0.15
   1  -9  -4    1.53    0.19
   1  -9  -4    1.21    0.16
   1   9  -4    1.63    0.18
  -1   9   4    1.33    0.14
  -1   9   4    1.53    0.14
   0  -9  -4    0.14    0.07
   0  -9  -4    0.09    0.08
   0  -9   4    0.08    0.07
   0  -9   4    0.04    0.07
   0  -9  -4    0.11    0.08
   0   9   4    0.07    0.06
   0   9  -4    0.11    0.07
  -1  -9  -4    1.35    0.17
  -1  -9  -4    1.38    0.15
  -1  -9  -4    1.29    0.16
  -1  -9  -4    1.21    0.14
   1  -9   4    1.21    0.16
   1  -9   4    1.18    0.16
  -1   9  -4    1.14    0.16
   1   9   4    1.07    0.12
  -2  -9  -4    0.56    0.10
   2  -9   4    0.48    0.09
   2  -9   4    0.53    0.10
  -2  -9  -4    0.44    0.09
  -2  -9  -4    0.43    0.09
  -2   9  -4    0.54    0.09
   2   9   4    0.39    0.10
  -3  -9  -4    0.15    0.09
   3  -9   4    0.09    0.07
   3  -9   4    0.08    0.08
  -3  -9  -4    0.07    0.07
  -3   9  -4    0.14    0.07
   4  -9   4    1.17    0.17
   4  -9   4    1.06    0.16
  -4  -9  -4    1.21    0.19
  -4   9  -4    1.46    0.16
  -4   9  -4    1.38    0.16
  -5  -9  -4    1.22    0.15
   5  -9   4    1.15    0.14
   5  -9   4    1.03    0.14
   5  -9   4    1.14    0.16
  -5   9  -4    1.00    0.12
  -5   9  -4    1.18    0.16
   6  -9   4    0.23    0.10
   6  -9   4    0.29    0.11
  -6  -9  -4    0.29    0.11
  -6   9  -4    0.23    0.09
  -6   9  -4    0.18    0.08
   7  -9   4    0.38    0.11
   7  -9   4    0.55    0.13
  -7  -9  -4    0.37    0.12
  -7   9  -4    0.29    0.09
  -7   9  -4    0.35    0.10
   8  -9   4    2.90    0.33
   8  -9   4    2.52    0.26
  -8  -9  -4    3.10    0.29
  -8   9  -4    2.99    0.27
  -8   9  -4    2.91    0.29
   9  -9   4    0.40    0.13
  -9  -9  -4    0.22    0.13
  -9   9  -4   -0.05    0.08
  -9   9  -4    0.09    0.10
 -10  -9  -4    0.95    0.16
 -10   9  -4    0.80    0.15
  12 -10  -4    4.77    0.42
 -12 -10   4    3.78    0.35
  11 -10  -4   -0.06    0.10
 -11 -10   4    0.00    0.12
  11 -10  -4    0.15    0.11
  11 -10  -4    0.18    0.13
  10 -10  -4    3.60    0.33
  10 -10  -4    3.55    0.30
 -10 -10   4    3.64    0.32
   9 -10  -4   -0.03    0.10
   9 -10  -4    0.17    0.09
  -9 -10   4   -0.08    0.11
   9 -10  -4   -0.03    0.09
   8 -10  -4    4.48    0.38
  -8 -10   4    4.58    0.37
   8 -10  -4    4.71    0.35
   8 -10  -4    4.58    0.36
  -8 -10   4    4.23    0.35
  -7 -10   4    0.08    0.09
   7 -10  -4    0.14    0.09
   7 -10  -4    0.09    0.09
   7 -10  -4    0.12    0.10
   7  10  -4    0.06    0.10
   6 -10  -4    6.76    0.50
  -6 -10   4    6.52    0.49
   6 -10  -4    6.37    0.47
   6 -10  -4    6.72    0.52
   6  10  -4    7.32    0.50
   5 -10  -4    0.02    0.08
   5 -10  -4   -0.15    0.09
  -5 -10   4    0.04    0.08
   5 -10  -4    0.10    0.09
  -5  10   4    0.02    0.06
   5  10  -4    0.03    0.08
  -4 -10   4   10.38    0.76
  -4 -10   4   12.86    0.82
   4 -10  -4   11.20    0.87
   4 -10  -4   12.76    0.82
   4 -10  -4   13.25    0.79
  -4  10   4   10.58    0.77
   4  10  -4   12.95    0.82
  -3 -10   4    0.36    0.09
   3 -10  -4    0.29    0.09
   3 -10  -4    0.31    0.09
  -3 -10   4    0.33    0.08
  -3  10   4    0.26    0.06
   3  10  -4    0.29    0.09
  -2 -10   4    4.75    0.36
  -2 -10   4    4.69    0.33
   2 -10  -4    4.62    0.37
   2 -10  -4    4.83    0.35
  -2  10   4    4.58    0.33
   2  10  -4    4.56    0.36
  -1 -10   4    0.34    0.09
  -1 -10   4    0.34    0.08
   1 -10  -4    0.37    0.10
   1 -10  -4    0.35    0.09
   1  10  -4    0.36    0.09
  -1  10   4    0.35    0.06
  -1  10   4    0.31    0.07
   0 -10   4    2.22    0.20
   0 -10  -4    2.09    0.20
   0 -10   4    2.13    0.21
   0 -10  -4    2.28    0.22
   0  10  -4    2.36    0.21
   0  10   4    1.98    0.18
   0  10   4    2.07    0.20
  -1 -10  -4    0.00    0.06
   1 -10   4   -0.03    0.07
  -1 -10  -4   -0.02    0.07
   1 -10   4   -0.02    0.07
  -1  10  -4   -0.03    0.07
   1  10   4   -0.02    0.06
   2 -10   4    6.18    0.43
  -2 -10  -4    5.49    0.44
   2 -10   4    6.35    0.41
  -2 -10  -4    5.86    0.43
  -2  10  -4    5.41    0.42
   2  10   4    6.14    0.42
   3 -10   4   -0.06    0.08
   3 -10   4   -0.08    0.07
  -3 -10  -4   -0.01    0.09
  -3 -10  -4   -0.05    0.07
  -3  10  -4    0.00    0.06
   3  10   4   -0.15    0.09
   4 -10   4    3.52    0.27
   4 -10   4    3.03    0.27
  -4 -10  -4    3.19    0.28
  -4  10  -4    3.08    0.26
  -5 -10  -4    0.02    0.10
   5 -10   4   -0.03    0.09
   5 -10   4    0.00    0.07
  -5  10  -4   -0.07    0.07
  -5  10  -4   -0.03    0.07
   6 -10   4    1.32    0.16
  -6 -10  -4    1.30    0.17
  -6  10  -4    1.37    0.18
  -6  10  -4    1.21    0.16
   7 -10   4    0.05    0.10
  -7 -10  -4    0.14    0.12
  -7  10  -4    0.18    0.09
  -7  10  -4    0.09    0.08
   8 -10   4    5.69    0.43
  -8 -10  -4    5.50    0.45
  -8  10  -4    5.75    0.44
  -8  10  -4    6.03    0.45
  -9 -10  -4    1.90    0.23
  -9  10  -4    1.61    0.22
 -10 -10  -4    1.54    0.21
 -10  10  -4    1.57    0.21
  11 -11  -4    0.60    0.13
 -11 -11   4    0.81    0.16
  11 -11  -4    0.84    0.17
  11  11  -4    0.56    0.15
 -10 -11   4   -0.07    0.12
  10 -11  -4    0.17    0.12
  10 -11  -4    0.00    0.10
  10  11  -4   -0.04    0.11
   9 -11  -4    1.97    0.22
   9 -11  -4    1.95    0.22
   9  11  -4    2.23    0.25
   8 -11  -4    0.18    0.11
   8 -11  -4    0.14    0.10
  -8 -11   4    0.33    0.10
   8  11  -4    0.20    0.11
   7 -11  -4    7.32    0.54
  -7 -11   4    7.38    0.53
   7 -11  -4    6.78    0.51
   7  11  -4    7.55    0.54
   6 -11  -4   -0.06    0.09
  -6 -11   4    0.00    0.10
   6 -11  -4   -0.01    0.09
   6  11  -4   -0.02    0.09
   5 -11  -4    1.52    0.21
  -5 -11   4    1.45    0.20
   5 -11  -4    1.40    0.19
   5  11  -4    1.31    0.19
   4 -11  -4    0.02    0.09
  -4 -11   4    0.07    0.07
  -4 -11   4    0.07    0.09
   4 -11  -4   -0.05    0.09
   4  11  -4   -0.03    0.08
  -3 -11   4    1.12    0.14
  -3 -11   4    1.07    0.15
   3 -11  -4    1.17    0.15
   3 -11  -4    1.12    0.15
   3  11  -4    1.15    0.18
   2 -11  -4    0.03    0.09
   2 -11  -4   -0.02    0.09
  -2 -11   4    0.08    0.08
  -2 -11   4    0.07    0.08
   2  11  -4    0.03    0.08
  -1 -11   4    0.08    0.08
  -1 -11   4    0.10    0.08
   1 -11  -4    0.08    0.09
   1 -11  -4    0.06    0.08
   1  11  -4    0.07    0.08
  -1  11   4    0.11    0.06
   0 -11   4   -0.03    0.08
   0 -11  -4    0.01    0.08
   0 -11   4    0.06    0.08
   0 -11  -4    0.04    0.08
   0  11   4    0.02    0.07
   0  11  -4    0.03    0.08
   1 -11   4    0.92    0.12
  -1 -11  -4    0.90    0.11
   1 -11   4    0.79    0.12
  -1 -11  -4    0.77    0.12
   1  11   4    0.80    0.10
  -1  11  -4    0.78    0.11
   2 -11   4    0.05    0.09
  -2 -11  -4   -0.05    0.08
   2 -11   4    0.10    0.08
  -2  11  -4    0.09    0.07
   2  11   4    0.01    0.08
  -3 -11  -4    0.61    0.10
  -3 -11  -4    0.59    0.12
   3 -11   4    0.54    0.11
   3 -11   4    0.67    0.12
   3  11   4    0.64    0.11
  -3  11  -4    0.53    0.10
  -4 -11  -4    0.12    0.10
   4 -11   4    0.13    0.09
   4 -11   4    0.15    0.10
   4  11   4   -0.02    0.11
  -4  11  -4    0.20    0.08
   5 -11   4    2.00    0.22
  -5 -11  -4    1.94    0.22
   5 -11   4    1.82    0.21
  -5  11  -4    1.91    0.20
  -5  11  -4    2.01    0.21
  -6 -11  -4    0.54    0.13
   6 -11   4    0.39    0.12
  -6  11  -4    0.38    0.09
  -6  11  -4    0.47    0.11
   7 -11   4    1.03    0.16
  -7 -11  -4    1.11    0.16
  -7  11  -4    1.13    0.17
  -7  11  -4    0.91    0.13
  -8 -11  -4    0.64    0.13
   8 -11   4    0.55    0.13
  -8  11  -4    0.66    0.13
  -8  11  -4    0.67    0.12
  -9 -11  -4    3.27    0.31
  -9  11  -4    3.75    0.32
  10 -12  -4    0.33    0.12
  10  12  -4    0.41    0.13
   9 -12  -4   -0.02    0.10
   9 -12  -4   -0.03    0.09
   9  12  -4    0.05    0.11
   8 -12  -4    0.48    0.12
   8 -12  -4    0.62    0.13
   8  12  -4    0.31    0.13
   7 -12  -4    0.06    0.10
   7 -12  -4    0.00    0.10
  -7 -12   4    0.03    0.09
   7  12  -4    0.15    0.10
   6 -12  -4    0.03    0.10
   6 -12  -4    0.05    0.10
  -6 -12   4    0.05    0.10
   6  12  -4   -0.04    0.10
  -5 -12   4    0.01    0.10
   5 -12  -4   -0.03    0.10
   5 -12  -4   -0.02    0.10
   5  12  -4   -0.02    0.09
  -4 -12   4    0.17    0.10
   4 -12  -4    0.14    0.10
   4 -12  -4    0.02    0.10
   4  12  -4    0.07    0.09
  -3 -12   4   -0.04    0.09
  -3 -12   4   -0.07    0.08
   3 -12  -4   -0.02    0.09
   3 -12  -4    0.01    0.10
   3  12  -4   -0.02    0.08
   2 -12  -4    0.02    0.09
   2 -12  -4    0.06    0.09
  -2 -12   4    0.07    0.09
  -2 -12   4    0.10    0.09
   2  12  -4    0.12    0.09
   1 -12  -4   -0.09    0.09
  -1 -12   4   -0.02    0.08
  -1 -12   4    0.07    0.09
   1 -12  -4   -0.08    0.08
   1  12  -4    0.01    0.08
   0 -12  -4   -0.04    0.08
   0 -12  -4    0.05    0.09
   0 -12   4    0.05    0.09
   0 -12   4    0.04    0.09
   0  12  -4    0.08    0.08
   0  12   4    0.02    0.07
  -1 -12  -4    0.05    0.10
   1 -12   4    0.05    0.09
   1 -12   4    0.04    0.09
  -1  12  -4    0.14    0.08
   1  12   4    0.13    0.08
   2 -12   4    0.22    0.10
  -2 -12  -4    0.21    0.09
   2 -12   4    0.10    0.09
  -2  12  -4    0.25    0.08
   3 -12   4    0.32    0.11
   3 -12   4    0.30    0.10
  -3 -12  -4    0.34    0.10
  -3  12  -4    0.40    0.09
   4 -12   4    0.28    0.10
   4 -12   4    0.41    0.11
  -4  12  -4    0.36    0.09
   5 -12   4    0.54    0.13
  -5 -12  -4    0.66    0.13
   5 -12   4    0.58    0.12
  -5  12  -4    0.62    0.11
  -5  12  -4    0.59    0.12
  -6 -12  -4    0.72    0.15
   6 -12   4    0.59    0.13
  -6  12  -4    0.68    0.12
  -6  12  -4    0.45    0.10
  -7 -12  -4    0.31    0.14
   7 -12   4    0.21    0.12
  -7  12  -4    0.39    0.09
  -7  12  -4    0.43    0.10
   8 -12   4    0.22    0.11
  -8 -12  -4   -0.13    0.12
  -8  12  -4    0.03    0.09
   9 -13  -4    2.19    0.22
   9 -13  -4    1.85    0.21
   8 -13  -4   -0.04    0.09
   8 -13  -4    0.06    0.10
   8  13  -4    0.06    0.10
   7 -13  -4    5.22    0.41
  -7 -13   4    5.15    0.42
   7 -13  -4    5.02    0.40
   7  13  -4    5.77    0.43
  -6 -13   4   -0.11    0.10
   6 -13  -4   -0.03    0.10
   6 -13  -4    0.04    0.10
   6  13  -4    0.00    0.10
   5 -13  -4    3.75    0.32
  -5 -13   4    4.11    0.34
   5 -13  -4    3.71    0.33
   5  13  -4    3.78    0.33
  -4 -13   4   -0.06    0.10
   4 -13  -4   -0.09    0.10
   4 -13  -4   -0.08    0.10
   4  13  -4    0.02    0.09
  -3 -13   4    2.22    0.24
   3 -13  -4    2.34    0.24
  -3 -13   4    2.00    0.21
   3 -13  -4    2.20    0.24
   3  13  -4    2.19    0.23
   2 -13  -4   -0.10    0.09
  -2 -13   4   -0.03    0.10
   2 -13  -4   -0.12    0.10
  -2 -13   4    0.12    0.09
   2  13  -4   -0.04    0.09
  -1 -13   4    2.92    0.26
   1 -13  -4    2.98    0.27
  -1 -13   4    3.04    0.28
   1 -13  -4    2.80    0.28
   1  13  -4    3.43    0.28
   0 -13   4   -0.01    0.09
   0 -13   4   -0.01    0.09
   0 -13  -4   -0.01    0.08
   0 -13  -4   -0.07    0.10
   0  13  -4   -0.04    0.09
  -1 -13  -4    2.54    0.25
   1 -13   4    2.43    0.23
   1 -13   4    2.29    0.24
   1  13   4    2.69    0.23
  -1  13  -4    2.26    0.22
   2 -13   4   -0.09    0.09
   2 -13   4   -0.08    0.09
  -2 -13  -4   -0.08    0.08
  -2  13  -4   -0.03    0.07
   2  13   4    0.02    0.08
   3 -13   4    1.37    0.18
  -3 -13  -4    1.35    0.18
   3 -13   4    1.27    0.19
  -3  13  -4    1.24    0.17
   3  13   4    1.45    0.19
   4 -13   4   -0.07    0.10
   4 -13   4   -0.05    0.09
  -4  13  -4    0.00    0.08
  -4  13  -4   -0.01    0.08
   5 -13   4    2.35    0.24
  -5  13  -4    2.40    0.23
  -5  13  -4    2.72    0.25
   6 -13   4    0.01    0.10
  -6  13  -4    0.02    0.08
  -6  13  -4    0.02    0.09
  -7 -13  -4    0.91    0.17
   7 -13   4    1.04    0.15
  -7  13  -4    1.42    0.17
   8 -14  -4    0.69    0.12
   8 -14  -4    0.31    0.12
   8  14  -4    0.38    0.13
   7 -14  -4   -0.04    0.10
  -7 -14   4   -0.07    0.11
   7 -14  -4    0.08    0.10
   7  14  -4    0.16    0.11
   6 -14  -4    0.89    0.16
   6 -14  -4    1.51    0.20
  -6 -14   4    0.81    0.15
   6  14  -4    1.33    0.19
   5 -14  -4    0.02    0.11
   5 -14  -4   -0.04    0.11
  -5 -14   4   -0.03    0.10
   5  14  -4    0.09    0.10
   4 -14  -4    1.77    0.23
   4 -14  -4    1.75    0.23
  -4 -14   4    2.00    0.24
   4  14  -4    1.82    0.22
  -3 -14   4    0.11    0.11
   3 -14  -4   -0.09    0.11
   3 -14  -4   -0.07    0.10
   3  14  -4   -0.08    0.10
  -2 -14   4    2.42    0.25
   2 -14  -4    2.54    0.26
   2 -14  -4    2.45    0.25
  -2 -14   4    2.13    0.22
   2  14  -4    2.26    0.24
   1 -14  -4    0.24    0.09
  -1 -14   4    0.00    0.10
   1 -14  -4   -0.06    0.10
  -1 -14   4   -0.06    0.10
   1  14  -4    0.04    0.09
   0 -14   4    1.51    0.18
   0 -14  -4    1.44    0.20
   0 -14   4    1.32    0.20
   0  14  -4    1.22    0.17
   1 -14   4    0.10    0.10
  -1 -14  -4    0.06    0.10
   1 -14   4    0.12    0.10
  -1  14  -4    0.22    0.09
   2 -14   4    0.21    0.11
   2 -14   4    0.30    0.11
  -2 -14  -4    0.32    0.10
  -2  14  -4    0.15    0.09
   3 -14   4    0.14    0.11
   3 -14   4    0.30    0.10
   3  14   4    0.29    0.10
  -3  14  -4    0.07    0.08
   4 -14   4   -0.09    0.10
   4 -14   4    0.01    0.09
  -4  14  -4   -0.01    0.08
  -4  14  -4   -0.04    0.07
   4  14   4    0.07    0.10
   5 -14   4    0.20    0.11
   5  14   4    0.10    0.11
  -5  14  -4    0.37    0.08
  -5  14  -4    0.13    0.09
   6 -14   4    0.08    0.10
  -6  14  -4   -0.07    0.08
   6 -15  -4    0.19    0.10
   6 -15  -4   -0.10    0.10
  -6 -15   4    0.15    0.10
   6  15  -4    0.02    0.10
   5 -15  -4    0.29    0.13
   5 -15  -4    0.70    0.12
  -5 -15   4    0.36    0.12
   5  15  -4    0.21    0.11
   4 -15  -4    0.34    0.10
  -4 -15   4    0.01    0.10
   4 -15  -4   -0.11    0.11
   4  15  -4   -0.20    0.09
  -3 -15   4    0.11    0.11
   3 -15  -4   -0.03    0.11
   3 -15  -4    0.23    0.10
   3  15  -4    0.07    0.09
   2 -15  -4    0.18    0.10
  -2 -15   4    0.09    0.11
   2 -15  -4   -0.01    0.11
   2  15  -4    0.12    0.09
   1 -15  -4    0.04    0.10
  -1 -15   4    0.27    0.11
  -1 -15   4    0.18    0.10
   1  15  -4   -0.01    0.09
   0 -15  -4    0.06    0.10
   0 -15   4    0.15    0.11
   0 -15   4    0.15    0.10
   0  15  -4    0.11    0.08
  -1 -15  -4    0.19    0.10
   1 -15   4    0.16    0.10
   1 -15   4    0.04    0.11
  -1  15  -4    0.10    0.09
  -2 -15  -4   -0.08    0.10
   2 -15   4    0.06    0.10
   2 -15   4    0.51    0.11
  -2  15  -4    0.25    0.09
   3 -15   4    0.18    0.10
   3 -15   4   -0.14    0.10
  -3  15  -4   -0.04    0.08
   4 -15   4   -0.03    0.10
   4 -15   4    0.45    0.11
  -4  15  -4    0.18    0.09
  -4  15  -4    0.11    0.09
   3 -16  -4    0.04    0.10
  -3 -16   4    0.12    0.11
   3 -16  -4   -0.05    0.11
   3  16  -4    0.04    0.09
   2 -16  -4    1.15    0.18
  -2 -16   4    1.59    0.21
   2  16  -4    1.49    0.18
   1 -16  -4   -0.26    0.10
  -1 -16   4    0.08    0.10
  -1 -16   4   -0.11    0.10
   1  16  -4   -0.03    0.09
   0 -16  -4    0.78    0.14
   0 -16   4    0.69    0.14
   0 -16   4    0.70    0.14
   0  16  -4    0.72    0.12
   1 -16   4    0.08    0.10
  -1 -16  -4   -0.22    0.10
  -1  16  -4    0.11    0.09
 -15   0   5    0.52    0.11
 -14   0   5   -0.12    0.10
  14   0  -5    0.07    0.12
  13   0  -5    3.99    0.37
 -13   0   5    2.85    0.29
 -12   0   5   -0.02    0.12
 -11   0   5    0.11    0.08
 -11   0   5    0.15    0.11
 -10   0   5   -0.05    0.08
 -10   0   5   -0.08    0.07
 -10   0   5    0.02    0.07
  -9   0   5    0.90    0.11
  -9   0   5    0.77    0.13
  -9   0   5    1.25    0.14
  -8   0   5   -0.08    0.06
  -8   0   5   -0.05    0.06
   8   0  -5   -0.14    0.05
  -8   0   5   -0.04    0.08
  -8   0   5    0.01    0.06
  -7   0   5    2.24    0.19
   7   0  -5    1.95    0.18
  -7   0   5    2.56    0.19
  -6   0   5    0.02    0.07
  -6   0   5    0.03    0.04
   6   0  -5   -0.02    0.05
  -6   0   5    0.03    0.05
  -6   0   5   -0.01    0.06
  -5   0   5    1.35    0.18
  -5   0   5    1.74    0.15
  -5   0   5    1.40    0.13
   4   0  -5    1.20    0.16
  -4   0   5    1.15    0.16
   2   0  -5   -0.03    0.03
  -2   0   5    0.02    0.06
  -2   0   5   -0.10    0.06
  -2   0   5   -0.05    0.04
  -2   0   5   -0.04    0.06
   2   0  -5    0.16    0.07
   1   0  -5   12.10    0.83
  -1   0   5   12.35    0.84
  -1   0   5   13.08    0.80
   0   0  -5   -0.10    0.07
   0   0  -5   -0.07    0.05
   0   0   5    0.03    0.07
   0   0  -5    0.02    0.04
   0   0   5   -0.03    0.05
   1   0   5    8.94    0.71
  -1   0  -5   10.84    0.71
  -1   0  -5    9.82    0.73
   1   0   5   11.55    0.81
  -1   0  -5   12.53    0.77
   2   0   5    0.03    0.04
  -2   0  -5    0.05    0.06
  -2   0  -5    0.09    0.05
   2   0   5    0.10    0.08
  -2   0  -5    0.06    0.06
  -3   0  -5    7.10    0.51
  -3   0  -5    7.84    0.55
   3   0   5    7.53    0.58
  -3   0  -5    7.28    0.53
   4   0   5    0.46    0.10
  -4   0  -5    0.35    0.07
  -4   0  -5    0.36    0.09
  -4   0  -5    0.41    0.08
  -5   0  -5    4.05    0.31
   5   0   5    3.95    0.36
  -5   0  -5    3.74    0.32
  -5   0  -5    3.91    0.32
  -6   0  -5    0.00    0.08
  -6   0  -5   -0.01    0.07
  -6   0  -5   -0.03    0.07
   6   0   5   -0.04    0.10
   7   0   5   19.11    1.49
  -7   0  -5   19.30    1.40
  -7   0  -5   21.06    1.31
  -7   0  -5   19.42    1.35
   8   0   5    1.71    0.27
  -9   0  -5   24.47    1.79
   9   0   5   26.33    1.99
  -9   0  -5   28.39    1.76
 -10   0  -5    1.84    0.25
  10   0   5    1.93    0.31
 -10   0  -5    1.82    0.25
 -11   0  -5   10.59    0.76
  11   0   5   10.32    0.85
 -12   0  -5    0.32    0.13
  12   0   5    0.26    0.15
 -15  -1   5    3.81    0.32
 -15   1   5    3.94    0.32
  14  -1  -5    0.55    0.16
 -14  -1   5    0.25    0.11
 -14   1   5    0.40    0.11
 -13  -1   5    9.09    0.65
  13  -1  -5    9.95    0.77
 -13   1   5    9.40    0.65
 -12  -1   5   -0.12    0.12
  12  -1  -5   -0.01    0.12
 -12  -1   5    0.13    0.10
  12   1  -5    0.02    0.11
 -12   1   5    0.04    0.12
 -12   1   5   -0.12    0.10
 -11  -1   5    1.39    0.17
 -11  -1   5    1.11    0.17
 -11  -1   5    1.36    0.17
 -11   1   5    1.43    0.17
  11   1  -5    1.19    0.18
 -11   1   5    1.48    0.18
 -10  -1   5    0.12    0.08
 -10  -1   5    0.28    0.10
 -10  -1   5    0.28    0.08
 -10   1   5    0.28    0.10
 -10   1   5    0.21    0.08
   9  -1  -5    7.08    0.53
  -9  -1   5    8.73    0.55
  -9  -1   5    8.11    0.56
  -9  -1   5    8.66    0.63
  -9  -1   5    8.09    0.57
  -9   1   5    8.28    0.55
  -9   1   5    7.82    0.57
  -9   1   5    8.72    0.62
  -8  -1   5    0.40    0.08
  -8  -1   5    0.49    0.10
  -8  -1   5    0.30    0.07
  -8  -1   5    0.43    0.08
   8  -1  -5    0.43    0.07
   8   1  -5    0.42    0.07
  -8   1   5    0.39    0.10
  -8   1   5    0.55    0.08
  -7  -1   5   35.36    2.03
  -7  -1   5   28.97    2.29
   7  -1  -5   31.88    2.00
  -7  -1   5   33.91    2.10
  -7  -1   5   31.90    2.14
  -7   1   5   27.58    2.14
  -7   1   5   33.61    2.03
   7   1  -5   30.61    1.99
  -7   1   5   36.24    2.29
  -6  -1   5    0.23    0.06
  -6  -1   5    0.16    0.06
   6  -1  -5    0.19    0.06
  -6  -1   5    0.13    0.07
  -6  -1   5    0.16    0.05
  -6   1   5    0.17    0.05
  -6   1   5    0.22    0.07
  -6   1   5    0.17    0.07
  -6   1   5    0.21    0.06
  -5  -1   5   20.77    1.39
   5  -1  -5   22.09    1.50
   5  -1  -5   19.67    1.32
  -5  -1   5   23.60    1.51
  -5  -1   5   19.64    1.41
  -5  -1   5   21.39    1.34
  -5   1   5   20.77    1.34
  -5   1   5   22.56    1.51
  -5   1   5   20.59    1.39
  -4  -1   5    0.68    0.10
   4  -1  -5    0.72    0.10
  -4  -1   5    0.40    0.08
  -4  -1   5    0.62    0.09
   4   1  -5    0.35    0.06
  -4   1   5    0.44    0.08
  -4   1   5    0.54    0.08
   4   1  -5    0.52    0.08
  -3  -1   5  158.36   10.16
  -3  -1   5  158.32   10.49
  -3  -1   5  163.44   11.44
   3  -1  -5  164.21   11.32
  -3  -1   5  152.48   11.92
   3   1  -5  145.61   10.50
  -3   1   5  158.99   11.92
   3   1  -5  166.57   11.32
  -3   1   5  169.65   10.49
  -3   1   5  163.65   10.16
  -3   1   5  188.09   11.45
  -2  -1   5    0.91    0.11
   2  -1  -5    1.56    0.17
  -2  -1   5    1.44    0.15
  -2  -1   5    1.25    0.11
  -2  -1   5    1.39    0.16
   2   1  -5    1.29    0.15
   2   1  -5    1.03    0.12
  -2   1   5    1.04    0.11
  -2   1   5    1.13    0.12
  -2   1   5    1.50    0.15
  -2   1   5    1.14    0.16
  -1  -1   5   98.90    6.60
   1  -1  -5  117.95    7.13
  -1  -1   5  106.82    7.50
   1  -1  -5   92.63    6.61
  -1  -1   5   99.86    6.39
  -1   1   5   97.01    6.61
  -1   1   5  108.10    6.40
  -1   1   5  100.60    7.50
   1   1  -5   90.22    6.61
   1   1  -5  111.15    7.12
   0  -1   5    1.25    0.15
   0  -1  -5    1.18    0.13
   0  -1  -5    1.47    0.17
   0  -1  -5    1.12    0.12
   0   1  -5    1.41    0.14
   0   1   5    1.79    0.19
   0   1  -5    1.31    0.17
   0   1   5    1.24    0.11
   0   1  -5    1.43    0.13
  -1  -1  -5   37.72    2.48
   1  -1   5   40.49    2.48
   1  -1   5   38.29    2.81
  -1  -1  -5   42.07    2.67
   1   1   5   36.53    2.81
  -1   1  -5   37.47    2.67
  -1   1  -5   34.91    2.48
   2  -1   5    1.61    0.14
  -2  -1  -5    1.66    0.16
   2  -1   5    1.60    0.19
  -2  -1  -5    1.64    0.16
  -2  -1  -5    1.53    0.17
  -2   1  -5    1.53    0.16
  -2   1  -5    1.49    0.16
   2   1   5    1.57    0.20
  -2   1  -5    1.86    0.18
  -3  -1  -5   17.80    1.21
  -3  -1  -5   17.95    1.15
  -3  -1  -5   14.84    1.13
   3  -1   5   16.42    1.28
  -3   1  -5   16.88    1.13
  -3   1  -5   16.82    1.15
  -3   1  -5   18.23    1.21
   3   1   5   17.84    1.28
  -4  -1  -5    1.60    0.18
   4  -1   5    1.52    0.21
  -4  -1  -5    1.71    0.17
  -4  -1  -5    1.43    0.17
  -4   1  -5    1.65    0.18
  -4   1  -5    1.38    0.18
  -4   1  -5    1.50    0.17
   4   1   5    1.32    0.20
   5  -1   5    6.67    0.58
  -5  -1  -5    7.22    0.53
  -5  -1  -5    7.52    0.51
  -5  -1  -5    7.05    0.52
  -5   1  -5    7.25    0.54
  -5   1  -5    7.04    0.50
   5   1   5    7.45    0.57
  -5   1  -5    7.17    0.52
   6  -1   5   -0.05    0.10
  -6  -1  -5    0.07    0.08
  -6  -1  -5    0.05    0.09
  -6  -1  -5    0.09    0.07
  -6   1  -5    0.07    0.08
  -6   1  -5    0.08    0.07
  -6   1  -5    0.04    0.07
   6   1   5    0.05    0.10
  -7  -1  -5   14.52    0.98
  -7  -1  -5   15.56    1.04
  -7  -1  -5   15.24    1.00
   7  -1   5   13.52    1.10
  -7   1  -5   14.38    1.00
  -7   1  -5   14.62    1.04
  -7   1  -5   12.36    0.97
   7   1   5   14.88    1.10
  -8  -1  -5    5.77    0.49
  -8  -1  -5    6.49    0.48
  -8  -1  -5    6.11    0.50
  -8   1  -5    7.02    0.49
  -8   1  -5    7.40    0.48
   8   1   5    5.90    0.55
  -9  -1  -5   19.44    1.21
   9  -1   5   17.34    1.36
  -9  -1  -5   19.38    1.23
   9   1   5   19.58    1.37
  -9   1  -5   15.52    1.20
  -9   1  -5   15.54    1.22
 -10  -1  -5    5.98    0.51
  10  -1   5    7.54    0.60
 -10  -1  -5    6.09    0.50
 -10   1  -5    7.81    0.52
 -10   1  -5    7.23    0.52
  10   1   5    5.63    0.58
 -11  -1  -5    8.91    0.62
  11  -1   5    8.07    0.70
 -11   1  -5    8.31    0.62
 -11   1  -5    7.21    0.60
  11   1   5    8.82    0.69
  12  -1   5    1.04    0.21
 -12  -1  -5    1.06    0.17
 -12   1  -5    1.30    0.20
  12   1   5    0.92    0.20
  15  -2  -5    0.27    0.12
 -15  -2   5   -0.10    0.10
 -15   2   5    0.08    0.09
 -14  -2   5    0.45    0.12
  14  -2  -5    0.75    0.17
 -14   2   5    0.60    0.12
  13  -2  -5    0.00    0.12
 -13  -2   5    0.04    0.10
 -13   2   5    0.21    0.10
  12  -2  -5    3.63    0.38
 -12  -2   5    3.78    0.31
 -12  -2   5    3.78    0.36
  12   2  -5    3.91    0.37
 -12   2   5    3.48    0.30
 -11  -2   5   -0.02    0.10
 -11  -2   5   -0.06    0.08
 -11  -2   5    0.14    0.09
 -11   2   5   -0.13    0.09
  11   2  -5   -0.12    0.09
 -11   2   5   -0.07    0.07
 -10  -2   5    1.87    0.22
 -10  -2   5    1.57    0.18
 -10  -2   5    1.59    0.18
 -10   2   5    1.37    0.22
  10   2  -5    1.56    0.22
 -10   2   5    1.50    0.17
  -9  -2   5    0.10    0.08
  -9  -2   5    0.09    0.06
  -9  -2   5    0.06    0.09
  -9  -2   5    0.08    0.07
   9  -2  -5    0.04    0.06
  -9   2   5    0.09    0.08
  -9   2   5    0.15    0.07
  -8  -2   5   53.18    3.78
  -8  -2   5   57.22    3.58
  -8  -2   5   56.86    4.04
   8  -2  -5   59.01    3.52
  -8  -2   5   55.29    3.69
  -8   2   5   51.62    3.78
  -8   2   5   59.46    3.59
  -8   2   5   63.77    4.04
  -7  -2   5    0.09    0.06
  -7  -2   5    0.12    0.08
  -7  -2   5    0.12    0.06
  -7  -2   5   -0.07    0.06
  -7   2   5   -0.04    0.08
  -7   2   5    0.16    0.06
  -7   2   5    0.08    0.05
  -6  -2   5   20.38    1.27
  -6  -2   5   21.67    1.44
   6  -2  -5   21.66    1.26
  -6  -2   5   19.64    1.34
  -6  -2   5   19.71    1.32
  -6   2   5   19.56    1.44
  -6   2   5   17.57    1.34
  -6   2   5   20.72    1.28
   5  -2  -5   -0.12    0.05
  -5  -2   5   -0.03    0.04
  -5  -2   5    0.08    0.06
  -5  -2   5    0.02    0.05
   5  -2  -5    0.02    0.09
  -5  -2   5    0.08    0.07
  -5   2   5    0.05    0.05
  -5   2   5   -0.07    0.06
  -4  -2   5    0.32    0.07
   4  -2  -5    0.30    0.06
  -4  -2   5    0.28    0.06
   4  -2  -5    0.29    0.09
  -4  -2   5    0.26    0.07
  -4  -2   5    0.34    0.05
   4   2  -5    0.24    0.06
   4   2  -5    0.15    0.06
  -4   2   5    0.31    0.07
  -4   2   5    0.22    0.06
   3  -2  -5    0.11    0.07
  -3  -2   5   -0.10    0.05
  -3  -2   5    0.04    0.04
  -3  -2   5    0.06    0.07
  -3   2   5    0.04    0.07
  -3   2   5   -0.05    0.05
   3   2  -5   -0.07    0.05
  -3   2   5    0.10    0.06
  -2  -2   5   24.82    1.55
  -2  -2   5   22.53    1.49
   2  -2  -5   26.29    1.67
  -2  -2   5   23.65    1.68
  -2  -2   5   23.85    1.75
   2   2  -5   21.65    1.54
  -2   2   5   23.85    1.68
  -2   2   5   21.65    1.75
  -2   2   5   23.70    1.49
   2   2  -5   25.39    1.66
   1  -2  -5    0.51    0.08
   1  -2  -5    0.63    0.10
  -1  -2   5    0.52    0.07
  -1  -2   5    0.74    0.08
   1   2  -5    0.65    0.11
   1   2  -5    0.39    0.07
  -1   2   5    0.49    0.08
   0  -2   5   27.86    1.75
   0  -2  -5   26.11    1.75
   0  -2   5   29.31    1.98
   0  -2   5   26.54    1.69
   0  -2  -5   23.50    1.78
   0   2   5   27.61    1.98
   0   2  -5   27.19    1.88
   0   2  -5   26.92    1.75
  -1  -2  -5    0.05    0.05
   1  -2   5    0.07    0.07
   1  -2   5    0.00    0.05
  -1  -2  -5    0.10    0.07
   1  -2   5    0.01    0.05
  -1  -2  -5    0.17    0.06
   1   2   5    0.03    0.07
  -1   2  -5    0.06    0.05
  -1   2  -5    0.09    0.05
   2  -2   5   13.35    0.96
  -2  -2  -5   12.64    0.85
  -2  -2  -5   11.80    0.87
   2  -2   5   12.71    0.80
  -2  -2  -5   13.68    0.91
   2  -2   5   13.23    0.84
  -2   2  -5   12.59    0.85
  -2   2  -5   11.60    0.86
   2   2   5   12.88    0.96
  -2   2  -5   13.36    0.91
   3  -2   5    0.21    0.06
  -3  -2  -5    0.29    0.07
  -3  -2  -5    0.29    0.08
   3  -2   5    0.24    0.09
  -3  -2  -5    0.30    0.08
  -3   2  -5    0.29    0.07
  -3   2  -5    0.29    0.06
   3   2   5    0.19    0.09
  -3   2  -5    0.25    0.07
  -4  -2  -5   10.02    0.65
   4  -2   5    8.51    0.70
  -4  -2  -5    9.75    0.62
  -4  -2  -5    8.86    0.63
   4  -2   5    8.93    0.57
  -4   2  -5    9.09    0.61
  -4   2  -5    7.68    0.62
  -4   2  -5    8.21    0.65
   4   2   5    9.61    0.70
   5  -2   5    0.03    0.10
  -5  -2  -5    0.17    0.08
  -5  -2  -5    0.28    0.10
   5  -2   5    0.14    0.06
  -5  -2  -5    0.10    0.07
  -5   2  -5    0.10    0.07
  -5   2  -5    0.15    0.08
   5   2   5    0.16    0.10
  -5   2  -5    0.14    0.07
   6  -2   5    0.39    0.12
  -6  -2  -5    0.47    0.11
  -6  -2  -5    0.43    0.10
  -6  -2  -5    0.49    0.10
   6   2   5    0.29    0.12
  -6   2  -5    0.45    0.09
  -6   2  -5    0.37    0.09
  -6   2  -5    0.49    0.09
   7  -2   5    0.22    0.12
  -7  -2  -5    0.23    0.08
  -7   2  -5    0.11    0.09
  -7   2  -5    0.08    0.08
  -7   2  -5    0.27    0.09
  -8  -2  -5   16.89    1.09
  -8  -2  -5   15.04    1.14
  -8  -2  -5   17.10    1.07
   8  -2   5   15.78    1.21
  -8   2  -5   15.14    1.09
   8   2   5   16.04    1.21
  -8   2  -5   14.34    1.06
   9  -2   5    1.10    0.19
  -9   2  -5    1.00    0.15
  -9   2  -5    0.98    0.16
 -10  -2  -5    8.01    0.62
  10  -2   5    9.04    0.70
 -10   2  -5    7.22    0.60
  10   2   5    8.71    0.68
 -10   2  -5    8.14    0.61
  11  -2   5    0.78    0.19
 -11   2  -5    0.36    0.13
 -11   2  -5    0.69    0.15
 -12  -2  -5    0.59    0.13
  12  -2   5    0.65    0.18
 -12   2  -5    0.32    0.13
 -12   2  -5    0.68    0.15
  12   2   5    0.40    0.16
 -15   3   5    0.74    0.13
  14  -3  -5    0.78    0.17
 -14  -3   5    0.51    0.12
 -14   3   5    0.65    0.12
  13  -3  -5    0.66    0.15
 -13  -3   5    0.79    0.14
 -13   3   5    0.58    0.12
 -12  -3   5    0.52    0.11
 -12  -3   5    0.12    0.13
 -12  -3   5    0.20    0.10
 -12   3   5    0.19    0.09
 -11  -3   5    0.27    0.10
 -11  -3   5    0.00    0.09
 -11  -3   5   -0.09    0.10
 -11   3   5    0.04    0.08
 -11   3   5    0.05    0.10
 -10  -3   5    0.06    0.08
 -10  -3   5    0.10    0.08
 -10  -3   5    0.06    0.09
  10  -3  -5    0.04    0.07
 -10   3   5    0.08    0.07
  10   3  -5    0.02    0.08
 -10   3   5    0.14    0.09
  -9  -3   5    1.72    0.17
   9  -3  -5    1.71    0.17
  -9  -3   5    1.86    0.17
  -9  -3   5    1.28    0.22
  -9  -3   5    1.80    0.19
  -9   3   5    1.64    0.17
  -9   3   5    1.59    0.21
   8  -3  -5    0.04    0.06
  -8  -3   5    0.10    0.08
  -8  -3   5    0.02    0.07
  -8  -3   5    0.03    0.06
  -8  -3   5   -0.01    0.06
  -8   3   5    0.01    0.06
  -8   3   5    0.04    0.08
  -7  -3   5   11.38    0.80
  -7  -3   5   10.29    0.72
  -7  -3   5   11.15    0.70
  -7  -3   5   10.00    0.73
   7  -3  -5   10.96    0.69
  -7   3   5   10.42    0.79
  -7   3   5   11.20    0.70
   6  -3  -5   -0.06    0.05
  -6  -3   5   -0.05    0.06
  -6  -3   5   -0.11    0.05
  -6  -3   5   -0.04    0.07
  -6  -3   5   -0.01    0.06
  -6   3   5   -0.01    0.05
  -6   3   5   -0.12    0.06
   5  -3  -5   17.97    1.19
  -5  -3   5   16.05    1.10
  -5  -3   5   15.96    1.06
  -5  -3   5   18.79    1.20
   5  -3  -5   16.37    1.05
  -5  -3   5   15.82    1.12
   5   3  -5   14.99    1.18
  -5   3   5   18.71    1.19
  -5   3   5   15.50    1.06
   4  -3  -5    1.09    0.13
  -4  -3   5    1.36    0.16
  -4  -3   5    1.03    0.14
   4  -3  -5    1.37    0.16
  -4  -3   5    0.91    0.14
  -4  -3   5    1.05    0.11
  -4   3   5    1.10    0.15
   4   3  -5    1.06    0.11
   4   3  -5    1.19    0.15
  -4   3   5    1.35    0.13
  -3  -3   5   25.23    1.61
   3  -3  -5   23.73    1.53
  -3  -3   5   24.97    1.55
  -3  -3   5   22.21    1.82
   3  -3  -5   28.25    1.74
  -3  -3   5   26.03    1.76
  -3   3   5   26.23    1.56
   3   3  -5   23.91    1.73
  -3   3   5   22.27    1.83
   3   3  -5   24.41    1.61
  -3   3   5   24.71    1.75
  -2  -3   5    1.14    0.10
  -2  -3   5    1.28    0.14
   2  -3  -5    1.08    0.13
  -2  -3   5    1.06    0.13
   2  -3  -5    1.66    0.18
  -2  -3   5    1.04    0.16
   2   3  -5    1.39    0.14
  -2   3   5    1.29    0.16
  -2   3   5    1.41    0.14
   2   3  -5    1.11    0.14
  -2   3   5    1.55    0.13
  -1  -3   5    3.42    0.28
   1  -3  -5    3.38    0.26
  -1  -3   5    3.55    0.31
   1  -3  -5    4.29    0.32
   1   3  -5    3.60    0.29
   1   3  -5    3.79    0.28
  -1   3   5    4.21    0.30
  -1   3   5    4.22    0.32
  -1   3   5    4.06    0.27
   0  -3   5    0.26    0.04
   0  -3   5    0.28    0.06
   0  -3  -5    0.33    0.05
   0  -3   5    0.32    0.07
   0  -3  -5    0.22    0.05
   0  -3   5    0.23    0.06
   0  -3  -5    0.31    0.08
   0   3  -5    0.28    0.06
   0   3   5    0.28    0.07
   0   3  -5    0.18    0.06
   1  -3   5    6.71    0.44
   1  -3   5    6.91    0.42
   1  -3   5    6.61    0.50
  -1  -3  -5    5.80    0.44
   1   3   5    6.39    0.50
  -1   3  -5    6.16    0.44
  -1   3  -5    6.25    0.47
  -2  -3  -5    0.76    0.10
  -2  -3  -5    0.75    0.09
  -2  -3  -5    0.97    0.14
   2  -3   5    0.72    0.11
   2  -3   5    0.83    0.11
   2  -3   5    0.81    0.09
  -2   3  -5    0.90    0.10
   2   3   5    0.76    0.11
  -2   3  -5    0.73    0.09
  -2   3  -5    0.80    0.12
  -3  -3  -5    1.12    0.15
   3  -3   5    1.09    0.11
   3  -3   5    1.11    0.13
   3  -3   5    1.05    0.13
  -3  -3  -5    1.33    0.16
  -3  -3  -5    0.99    0.15
  -3   3  -5    1.14    0.14
   3   3   5    1.21    0.18
  -3   3  -5    1.24    0.13
  -3   3  -5    0.89    0.14
  -4  -3  -5    1.44    0.17
   4  -3   5    1.17    0.14
  -4  -3  -5    1.51    0.17
   4  -3   5    1.20    0.16
  -4  -3  -5    1.65    0.17
  -4   3  -5    1.29    0.14
  -4   3  -5    0.99    0.16
  -4   3  -5    1.52    0.16
   4   3   5    1.06    0.15
  -5  -3  -5    0.41    0.10
   5  -3   5    0.35    0.07
   5  -3   5    0.28    0.11
  -5  -3  -5    0.33    0.08
  -5  -3  -5    0.35    0.09
  -5   3  -5    0.35    0.08
  -5   3  -5    0.32    0.09
   5   3   5    0.34    0.11
  -5   3  -5    0.45    0.09
  -6  -3  -5    0.36    0.10
   6  -3   5    0.30    0.07
  -6  -3  -5    0.33    0.09
   6  -3   5    0.26    0.11
  -6  -3  -5    0.33    0.09
   6   3   5    0.25    0.11
  -6   3  -5    0.37    0.09
  -6   3  -5    0.34    0.08
  -6   3  -5    0.27    0.09
  -7  -3  -5    1.80    0.20
  -7  -3  -5    2.02    0.21
  -7  -3  -5    2.16    0.24
   7  -3   5    1.91    0.27
  -7   3  -5    1.59    0.20
   7   3   5    1.90    0.25
  -7   3  -5    1.93    0.21
  -8  -3  -5    8.02    0.61
   8  -3   5    8.48    0.67
  -8  -3  -5    9.25    0.61
  -8   3  -5    7.73    0.58
  -8   3  -5    7.58    0.59
   8   3   5    7.74    0.66
  -9  -3  -5    2.47    0.27
   9  -3   5    2.95    0.33
  -9   3  -5    2.34    0.26
   9   3   5    2.46    0.31
  -9   3  -5    2.37    0.26
  10  -3   5    6.54    0.59
 -10  -3  -5    6.39    0.52
 -10   3  -5    6.82    0.50
 -10   3  -5    6.53    0.51
  10   3   5    6.80    0.57
 -11  -3  -5    1.05    0.18
  11  -3   5    1.81    0.29
 -11   3  -5    1.47    0.19
  11   3   5    1.17    0.21
 -11   3  -5    1.17    0.17
 -12  -3  -5    1.47    0.22
  12  -3   5    1.99    0.29
 -12   3  -5    2.03    0.24
  12   3   5    2.26    0.29
 -14  -4   5    0.38    0.13
  14  -4  -5    0.75    0.17
 -14   4   5    0.43    0.11
 -13  -4   5    0.83    0.14
  13  -4  -5    0.84    0.18
 -13   4   5    0.77    0.13
 -12  -4   5    1.62    0.26
 -12  -4   5    1.52    0.21
 -12   4   5    1.95    0.19
 -11  -4   5    0.17    0.09
 -11  -4   5    0.11    0.10
 -11  -4   5    0.01    0.09
 -11   4   5    0.02    0.07
 -10  -4   5    3.98    0.35
  10  -4  -5    3.68    0.29
 -10  -4   5    3.99    0.32
 -10  -4   5    3.94    0.31
 -10   4   5    4.25    0.35
 -10   4   5    3.53    0.29
  -9  -4   5    0.10    0.07
  -9  -4   5    0.09    0.09
  -9  -4   5    0.06    0.08
   9  -4  -5    0.00    0.07
  -9  -4   5    0.06    0.06
  -9   4   5    0.09    0.06
  -9   4   5    0.11    0.08
  -8  -4   5   13.20    0.88
   8  -4  -5   12.86    0.83
  -8  -4   5   11.47    0.86
  -8  -4   5   13.67    0.95
  -8  -4   5   12.93    0.84
  -8   4   5   12.87    0.84
  -8   4   5   13.49    0.94
  -7  -4   5    0.28    0.09
   7  -4  -5    0.09    0.07
  -7  -4   5    0.15    0.06
  -7  -4   5    0.09    0.07
  -7   4   5    0.05    0.07
  -7   4   5    0.18    0.06
  -6  -4   5   11.64    0.83
  -6  -4   5   11.98    0.91
   6  -4  -5   12.52    0.79
  -6  -4   5   12.33    0.85
  -6  -4   5   13.11    0.80
   6  -4  -5   12.73    0.90
  -6   4   5   12.76    0.90
  -6   4   5   12.77    0.81
   5  -4  -5   -0.02    0.08
   5  -4  -5    0.04    0.06
  -5  -4   5    0.05    0.08
  -5  -4   5    0.00    0.04
  -5  -4   5    0.06    0.06
  -5  -4   5    0.01    0.06
  -5   4   5    0.00    0.03
  -5   4   5    0.05    0.05
  -5   4   5   -0.02    0.06
   5   4  -5    0.17    0.06
  -4  -4   5   27.69    1.85
   4  -4  -5   28.13    1.96
  -4  -4   5   25.86    1.75
   4  -4  -5   28.97    1.73
  -4  -4   5   29.68    1.98
  -4  -4   5   28.14    1.82
   4   4  -5   26.67    1.82
  -4   4   5   26.99    1.97
  -4   4   5   28.71    1.76
  -3  -4   5    0.23    0.08
  -3  -4   5    0.28    0.04
   3  -4  -5    0.30    0.08
  -3  -4   5    0.19    0.06
   3  -4  -5    0.27    0.06
  -3   4   5    0.33    0.06
   3   4  -5    0.27    0.05
  -3   4   5    0.22    0.08
   3   4  -5    0.22    0.07
  -3   4   5    0.31    0.06
  -2  -4   5    1.96    0.19
  -2  -4   5    1.56    0.17
  -2  -4   5    1.99    0.18
   2  -4  -5    1.94    0.17
   2   4  -5    1.89    0.16
  -2   4   5    1.71    0.17
  -2   4   5    2.17    0.16
   2   4  -5    2.49    0.19
  -2   4   5    2.05    0.21
  -1  -4   5    1.73    0.18
   1  -4  -5    1.87    0.16
  -1  -4   5    1.90    0.16
   1  -4  -5    2.15    0.21
   1  -4  -5    1.92    0.17
  -1  -4   5    1.91    0.17
  -1   4   5    1.85    0.17
   1   4  -5    1.70    0.16
   1   4  -5    1.95    0.18
  -1   4   5    2.26    0.21
  -1   4   5    2.27    0.17
   0  -4   5    3.21    0.22
   0  -4   5    2.92    0.22
   0  -4  -5    2.67    0.21
   0  -4   5    2.80    0.25
   0  -4  -5    2.89    0.22
   0   4  -5    2.70    0.23
   0   4   5    3.08    0.26
   0   4   5    2.73    0.23
   0   4   5    3.30    0.23
   0   4  -5    2.69    0.23
  -1  -4  -5    0.42    0.08
   1  -4   5    0.27    0.07
   1  -4   5    0.35    0.06
  -1  -4  -5    0.35    0.06
  -1  -4  -5    0.39    0.06
   1  -4   5    0.41    0.08
  -1   4  -5    0.39    0.06
   1   4   5    0.37    0.08
  -1   4  -5    0.33    0.06
  -2  -4  -5   11.24    0.83
  -2  -4  -5   11.27    0.76
   2  -4   5   13.00    0.78
  -2  -4  -5   13.98    0.88
   2  -4   5   12.02    0.92
   2  -4   5   12.07    0.81
  -2   4  -5   12.70    0.81
  -2   4  -5   11.40    0.87
   2   4   5   13.15    0.92
  -2   4  -5   11.55    0.83
   3  -4   5    0.31    0.06
   3  -4   5    0.31    0.07
   3  -4   5    0.25    0.09
  -3  -4  -5    0.40    0.09
  -3  -4  -5    0.36    0.08
  -3   4  -5    0.31    0.07
  -3   4  -5    0.33    0.07
   3   4   5    0.38    0.09
  -3   4  -5    0.38    0.08
   4  -4   5   10.19    0.86
   4  -4   5   11.06    0.72
  -4  -4  -5   11.78    0.81
  -4  -4  -5   10.90    0.77
   4   4   5   11.38    0.86
  -4   4  -5   11.43    0.77
  -4   4  -5   11.51    0.75
  -4   4  -5   11.57    0.81
   5  -4   5    0.84    0.14
  -5  -4  -5    0.90    0.12
  -5  -4  -5    1.13    0.17
   5  -4   5    0.93    0.13
   5   4   5    0.75    0.13
  -5   4  -5    0.80    0.13
  -5   4  -5    1.07    0.14
  -5   4  -5    0.94    0.12
  -6  -4  -5    8.31    0.54
   6  -4   5    7.20    0.60
  -6  -4  -5    7.39    0.56
   6  -4   5    7.03    0.49
  -6   4  -5    7.77    0.53
   6   4   5    7.21    0.60
  -6   4  -5    7.09    0.54
  -7  -4  -5    2.50    0.25
  -7  -4  -5    2.43    0.23
   7  -4   5    2.17    0.29
   7   4   5    2.21    0.29
  -7   4  -5    2.52    0.23
  -7   4  -5    2.50    0.23
  -8  -4  -5    4.15    0.34
   8  -4   5    4.17    0.40
  -8  -4  -5    4.05    0.35
  -8   4  -5    3.70    0.34
  -8   4  -5    4.03    0.34
   8   4   5    4.26    0.40
  -9  -4  -5    6.83    0.57
   9  -4   5    7.74    0.64
  -9  -4  -5    7.92    0.57
  -9   4  -5    7.53    0.55
  -9   4  -5    7.44    0.56
   9   4   5    7.28    0.63
  10  -4   5    2.02    0.31
 -10  -4  -5    1.60    0.24
 -10   4  -5    1.59    0.20
  10   4   5    2.44    0.30
 -10   4  -5    1.74    0.23
  11  -4   5    5.93    0.52
 -11  -4  -5    4.79    0.43
 -11   4  -5    5.60    0.45
 -11   4  -5    5.57    0.43
  11   4   5    5.16    0.49
  12  -4   5    0.35    0.16
 -12  -4  -5   -0.07    0.12
 -12   4  -5    0.14    0.11
 -12   4  -5    0.14    0.12
  14  -5  -5    0.29    0.14
 -14   5   5   -0.05    0.08
  13  -5  -5    6.42    0.56
 -13   5   5    5.89    0.45
 -12  -5   5   -0.18    0.10
 -12  -5   5   -0.12    0.09
 -12  -5   5    0.12    0.10
 -12   5   5   -0.07    0.07
 -11  -5   5    1.88    0.21
 -11  -5   5    2.23    0.24
 -11  -5   5    2.20    0.21
 -11   5   5    1.59    0.19
 -10  -5   5    0.26    0.09
 -10  -5   5    0.01    0.09
  10  -5  -5    0.00    0.07
 -10  -5   5    0.00    0.09
 -10   5   5    0.05    0.07
  -9  -5   5    3.43    0.28
  -9  -5   5    4.12    0.29
  -9  -5   5    3.68    0.30
   9  -5  -5    3.60    0.28
  -9  -5   5    3.65    0.33
  -9   5   5    3.63    0.32
  -9   5   5    3.64    0.28
   8  -5  -5   -0.01    0.06
  -8  -5   5    0.09    0.07
  -8  -5   5    0.16    0.08
  -8  -5   5    0.14    0.07
  -8  -5   5    0.15    0.08
  -8   5   5   -0.03    0.08
  -8   5   5    0.07    0.06
   7  -5  -5   31.43    2.33
  -7  -5   5   32.83    2.20
  -7  -5   5   31.53    2.15
   7  -5  -5   33.51    2.06
  -7  -5   5   33.45    2.35
  -7  -5   5   34.31    2.09
  -7   5   5   34.55    2.09
  -7   5   5   32.94    2.35
  -6  -5   5   -0.03    0.05
   6  -5  -5   -0.01    0.08
  -6  -5   5    0.05    0.08
  -6  -5   5    0.09    0.07
   6  -5  -5    0.00    0.06
  -6  -5   5    0.00    0.06
  -6   5   5   -0.01    0.05
  -6   5   5    0.00    0.06
   5  -5  -5    0.74    0.11
  -5  -5   5    0.70    0.09
  -5  -5   5    0.49    0.09
  -5  -5   5    0.55    0.09
   5  -5  -5    0.74    0.09
  -5  -5   5    0.68    0.09
  -5   5   5    0.54    0.06
  -5   5   5    0.59    0.08
   5   5  -5    0.66    0.10
  -5   5   5    0.56    0.08
   4  -5  -5    0.03    0.06
  -4  -5   5   -0.04    0.07
  -4  -5   5    0.02    0.03
   4  -5  -5    0.09    0.08
  -4  -5   5    0.01    0.06
  -4   5   5    0.06    0.05
   4   5  -5    0.02    0.07
  -4   5   5   -0.05    0.06
   3  -5  -5   14.17    0.83
  -3  -5   5   12.53    0.94
  -3  -5   5   12.61    0.87
   3  -5  -5   13.55    0.94
  -3   5   5   12.22    0.94
  -3   5   5   13.61    0.84
   3   5  -5   13.09    0.88
  -2  -5   5   -0.06    0.05
  -2  -5   5    0.00    0.06
  -2  -5   5    0.00    0.07
   2  -5  -5    0.03    0.05
   2  -5  -5    0.03    0.08
  -2   5   5    0.06    0.05
  -2   5   5   -0.01    0.07
  -2   5   5    0.09    0.05
   2   5  -5   -0.09    0.06
  -1  -5   5   37.86    2.54
  -1  -5   5   34.02    2.87
  -1  -5   5   41.96    2.42
   1  -5  -5   36.69    2.59
   1  -5  -5   44.24    2.42
  -1   5   5   43.46    2.88
   1   5  -5   37.81    2.55
  -1   5   5   41.55    2.76
  -1   5   5   40.07    2.46
   1   5  -5   33.86    2.73
   0  -5   5    0.46    0.07
   0  -5  -5    0.29    0.06
   0  -5   5    0.33    0.06
   0  -5  -5    0.42    0.07
   0  -5  -5    0.38    0.09
   0  -5   5    0.39    0.07
   0   5  -5    0.39    0.07
   0   5   5    0.38    0.08
   0   5   5    0.28    0.07
   0   5   5    0.24    0.06
   0   5  -5    0.42    0.06
   1  -5   5    5.14    0.35
   1  -5   5    4.96    0.39
   1  -5   5    4.75    0.34
  -1  -5  -5    4.43    0.33
  -1  -5  -5    5.28    0.36
   1   5   5    5.26    0.40
  -1   5  -5    4.63    0.36
  -1   5  -5    4.90    0.35
  -2  -5  -5    0.51    0.09
   2  -5   5    0.64    0.09
  -2  -5  -5    0.69    0.10
  -2  -5  -5    0.54    0.07
   2  -5   5    0.58    0.08
   2  -5   5    0.62    0.09
  -2   5  -5    0.62    0.08
   2   5   5    0.57    0.09
  -2   5  -5    0.74    0.08
   3  -5   5    6.49    0.43
   3  -5   5    5.86    0.51
  -3  -5  -5    6.90    0.48
  -3  -5  -5    5.86    0.43
   3  -5   5    5.96    0.44
  -3  -5  -5    6.62    0.46
  -3   5  -5    6.38    0.45
  -3   5  -5    6.28    0.45
  -3   5  -5    6.66    0.48
   3   5   5    7.09    0.51
   4  -5   5    0.52    0.09
  -4  -5  -5    0.63    0.10
   4  -5   5    0.47    0.11
  -4  -5  -5    0.68    0.10
   4  -5   5    0.58    0.07
   4   5   5    0.57    0.11
  -4   5  -5    0.64    0.09
  -4   5  -5    0.60    0.09
   5  -5   5    0.07    0.10
   5  -5   5    0.11    0.07
  -5  -5  -5    0.17    0.09
  -5  -5  -5    0.05    0.08
   5   5   5   -0.05    0.10
  -5   5  -5    0.06    0.07
  -5   5  -5    0.15    0.06
  -6  -5  -5    0.82    0.12
   6  -5   5    0.75    0.10
   6  -5   5    0.74    0.14
  -6  -5  -5    0.92    0.13
  -6   5  -5    0.78    0.11
  -6   5  -5    0.76    0.12
   6   5   5    0.58    0.13
   7  -5   5    4.24    0.40
   7  -5   5    3.82    0.30
  -7  -5  -5    4.30    0.35
  -7  -5  -5    4.36    0.34
  -7   5  -5    4.34    0.34
   7   5   5    4.13    0.39
  -7   5  -5    3.87    0.33
  -8  -5  -5    1.04    0.16
  -8  -5  -5    0.93    0.15
   8  -5   5    1.02    0.18
  -8   5  -5    1.07    0.15
   8   5   5    0.80    0.16
  -8   5  -5    0.81    0.13
  -9  -5  -5    7.36    0.56
   9  -5   5    8.15    0.64
  -9   5  -5    6.94    0.54
   9   5   5    7.41    0.62
  -9   5  -5    7.04    0.55
  10  -5   5    0.35    0.15
 -10  -5  -5   -0.03    0.14
 -10   5  -5    0.09    0.11
  10   5   5    0.12    0.15
 -10   5  -5    0.05    0.10
  11  -5   5    7.59    0.61
 -11  -5  -5    6.31    0.52
 -11   5  -5    7.02    0.53
 -11   5  -5    6.20    0.51
  14  -6  -5    1.55    0.25
 -14   6   5    0.86    0.14
  13  -6  -5    0.87    0.19
 -13  -6   5    0.90    0.14
 -13   6   5    0.59    0.12
 -12  -6   5    3.44    0.29
 -12   6   5    2.92    0.26
 -11  -6   5    0.01    0.09
 -11  -6   5    0.15    0.11
 -11  -6   5    0.00    0.10
  11  -6  -5    0.23    0.09
 -11   6   5    0.18    0.08
  10  -6  -5    0.69    0.11
 -10  -6   5    0.61    0.12
 -10  -6   5    0.74    0.12
 -10  -6   5    0.79    0.13
 -10   6   5    0.63    0.10
  -9  -6   5    0.43    0.09
  -9  -6   5    0.36    0.09
  -9  -6   5    0.55    0.10
  -9  -6   5    0.45    0.09
   9  -6  -5    0.42    0.09
  -9   6   5    0.39    0.08
  -8  -6   5   10.03    0.69
   8  -6  -5   10.77    0.69
  -8  -6   5   10.27    0.71
   8  -6  -5   10.64    0.78
  -8  -6   5   10.76    0.73
  -8  -6   5   10.72    0.78
  -8   6   5   10.85    0.78
  -8   6   5   10.04    0.69
  -7  -6   5    0.03    0.08
  -7  -6   5    0.07    0.08
   7  -6  -5    0.02    0.07
  -7  -6   5    0.03    0.05
   7  -6  -5   -0.03    0.09
  -7  -6   5   -0.09    0.07
  -7   6   5    0.04    0.06
  -7   6   5    0.04    0.07
  -6  -6   5    0.80    0.10
  -6  -6   5    0.84    0.10
  -6  -6   5    0.78    0.11
   6  -6  -5    1.02    0.13
   6  -6  -5    0.90    0.11
  -6  -6   5    1.03    0.11
  -6   6   5    0.73    0.10
  -6   6   5    0.83    0.11
   5  -6  -5    0.01    0.08
  -5  -6   5    0.03    0.04
   5  -6  -5   -0.05    0.06
  -5  -6   5   -0.02    0.07
  -5  -6   5    0.06    0.06
  -5  -6   5    0.04    0.08
   5   6  -5    0.09    0.08
  -5   6   5   -0.02    0.06
  -5   6   5    0.04    0.05
   4  -6  -5    3.56    0.27
  -4  -6   5    3.78    0.27
   4  -6  -5    3.79    0.30
  -4  -6   5    3.55    0.29
  -4   6   5    2.97    0.28
   4   6  -5    3.13    0.29
  -4   6   5    3.91    0.26
  -3  -6   5    0.05    0.05
   3  -6  -5    0.05    0.08
   3  -6  -5    0.04    0.06
  -3  -6   5    0.06    0.06
  -3  -6   5    0.00    0.07
  -3   6   5    0.10    0.05
  -3   6   5    0.02    0.05
   3   6  -5    0.05    0.07
  -2  -6   5    2.11    0.19
   2  -6  -5    2.46    0.23
   2  -6  -5    2.58    0.20
  -2  -6   5    2.19    0.21
  -2  -6   5    2.16    0.20
  -2   6   5    2.38    0.18
  -2   6   5    2.09    0.23
   2   6  -5    2.33    0.21
  -1  -6   5    0.88    0.13
   1  -6  -5    1.15    0.13
  -1  -6   5    0.95    0.11
   1  -6  -5    0.88    0.12
  -1   6   5    1.08    0.12
  -1   6   5    1.00    0.16
   1   6  -5    1.08    0.15
   0  -6  -5    3.84    0.28
   0  -6  -5    3.67    0.26
   0  -6   5    3.56    0.27
   0  -6  -5    3.71    0.30
   0  -6   5    3.81    0.28
   0  -6   5    3.21    0.29
   0   6   5    3.69    0.27
   0   6  -5    4.03    0.28
   0   6   5    3.64    0.32
  -1  -6  -5    0.94    0.12
   1  -6   5    0.96    0.14
   1  -6   5    0.95    0.14
  -1  -6  -5    1.01    0.14
   1  -6   5    1.09    0.14
  -1  -6  -5    0.79    0.09
  -1   6  -5    1.10    0.14
   1   6   5    1.07    0.16
   2  -6   5    0.79    0.10
  -2  -6  -5    0.86    0.12
  -2  -6  -5    0.95    0.10
  -2  -6  -5    0.85    0.14
   2  -6   5    1.01    0.13
   2  -6   5    0.90    0.14
  -2  -6  -5    0.89    0.10
   2   6   5    0.97    0.16
  -2   6  -5    0.85    0.10
  -3  -6  -5    1.74    0.18
   3  -6   5    1.55    0.16
  -3  -6  -5    1.65    0.19
   3  -6   5    1.34    0.20
   3  -6   5    1.76    0.17
  -3  -6  -5    1.65    0.15
  -3   6  -5    1.82    0.17
  -3   6  -5    1.87    0.17
   3   6   5    1.82    0.21
   4  -6   5    1.89    0.23
  -4  -6  -5    1.89    0.21
   4  -6   5    2.30    0.19
   4  -6   5    2.06    0.18
  -4  -6  -5    2.12    0.21
  -4   6  -5    2.28    0.20
   4   6   5    1.99    0.23
  -4   6  -5    1.85    0.19
  -5  -6  -5    0.63    0.11
   5  -6   5    0.53    0.09
   5  -6   5    0.47    0.12
  -5  -6  -5    0.79    0.12
  -5   6  -5    0.46    0.09
   5   6   5    0.44    0.12
  -5   6  -5    0.44    0.08
  -6  -6  -5    0.19    0.10
   6  -6   5    0.21    0.08
  -6  -6  -5    0.19    0.09
   6  -6   5    0.10    0.11
   6   6   5    0.06    0.11
  -6   6  -5    0.11    0.08
  -6   6  -5    0.17    0.07
   7  -6   5    1.14    0.18
   7  -6   5    1.35    0.17
  -7  -6  -5    1.54    0.20
  -7  -6  -5    1.33    0.17
  -7   6  -5    1.22    0.15
  -7   6  -5    1.13    0.16
   7   6   5    1.18    0.17
  -8  -6  -5   12.77    0.92
   8  -6   5   13.22    1.03
  -8  -6  -5   13.29    0.96
  -8   6  -5   12.88    0.90
  -8   6  -5   13.52    0.92
   8   6   5   13.31    1.02
   9  -6   5    3.95    0.40
  -9  -6  -5    3.73    0.34
  -9   6  -5    3.68    0.32
  -9   6  -5    3.36    0.32
 -10  -6  -5    2.57    0.30
  10  -6   5    3.12    0.36
 -10   6  -5    2.97    0.28
 -10   6  -5    2.78    0.27
 -11  -6  -5    2.75    0.29
  11  -6   5    3.47    0.37
 -11   6  -5    2.84    0.29
 -11   6  -5    2.58    0.28
 -14   7   5    0.45    0.11
  13  -7  -5    0.13    0.14
 -13  -7   5    0.00    0.12
 -13   7   5    0.10    0.08
 -12  -7   5    0.66    0.14
  12  -7  -5    0.77    0.13
 -12   7   5    0.51    0.11
 -11  -7   5    2.01    0.22
  11  -7  -5    1.82    0.20
  11  -7  -5    1.54    0.21
 -11   7   5    1.56    0.18
 -10  -7   5    0.20    0.11
  10  -7  -5    0.20    0.11
  10  -7  -5    0.33    0.10
 -10   7   5    0.21    0.08
  -9  -7   5    0.19    0.08
  -9  -7   5    0.12    0.09
  -9  -7   5    0.12    0.10
   9  -7  -5    0.23    0.10
   9  -7  -5    0.09    0.09
  -9   7   5    0.19    0.07
  -8  -7   5    0.54    0.09
   8  -7  -5    0.54    0.11
   8  -7  -5    0.53    0.10
  -8  -7   5    0.46    0.09
  -8  -7   5    0.57    0.11
  -8   7   5    0.40    0.08
   7  -7  -5    0.79    0.11
  -7  -7   5    0.73    0.11
  -7  -7   5    0.63    0.11
   7  -7  -5    0.97    0.13
  -7  -7   5    0.75    0.12
  -7   7   5    0.70    0.10
  -7   7   5    0.79    0.11
  -6  -7   5   -0.02    0.08
   6  -7  -5   -0.01    0.07
  -6  -7   5   -0.09    0.07
   6  -7  -5   -0.01    0.08
  -6  -7   5    0.04    0.07
  -6   7   5   -0.12    0.06
  -6   7   5    0.02    0.05
   6   7  -5    0.02    0.08
   5  -7  -5    1.64    0.19
   5  -7  -5    1.64    0.17
  -5  -7   5    1.64    0.17
  -5  -7   5    1.34    0.17
   5   7  -5    1.80    0.20
  -5   7   5    1.49    0.18
  -5   7   5    1.66    0.15
  -4  -7   5    0.41    0.08
   4  -7  -5    0.41    0.08
  -4  -7   5    0.49    0.08
   4  -7  -5    0.40    0.10
   4   7  -5    0.48    0.09
  -4   7   5    0.46    0.07
   3  -7  -5    0.33    0.09
  -3  -7   5    0.02    0.07
   3  -7  -5    0.11    0.07
  -3  -7   5    0.02    0.06
  -3  -7   5    0.03    0.07
   3   7  -5    0.39    0.09
  -3   7   5    0.10    0.05
  -2  -7   5    0.20    0.07
  -2  -7   5    0.06    0.06
   2  -7  -5    0.10    0.06
  -2  -7   5   -0.04    0.07
   2  -7  -5    0.05    0.08
   2   7  -5    0.05    0.07
  -2   7   5    0.06    0.05
  -2   7   5    0.06    0.04
   1  -7  -5    1.22    0.17
  -1  -7   5    1.48    0.16
  -1  -7   5    1.24    0.15
   1  -7  -5    1.09    0.15
   1   7  -5    1.04    0.16
  -1   7   5    1.24    0.13
  -1   7   5    1.22    0.18
   0  -7  -5    1.76    0.17
   0  -7   5    1.64    0.17
   0  -7   5    1.82    0.18
   0  -7  -5    1.79    0.19
   0  -7  -5    1.49    0.18
   0   7   5    2.10    0.20
   0   7  -5    1.65    0.18
   0   7   5    2.00    0.17
  -1  -7  -5    0.30    0.08
  -1  -7  -5    0.27    0.06
  -1  -7  -5    0.27    0.08
   1  -7   5    0.27    0.07
   1  -7   5    0.22    0.07
  -1   7  -5    0.23    0.07
   1   7   5    0.26    0.08
   1   7   5    0.15    0.08
   2  -7   5    0.97    0.15
  -2  -7  -5    1.12    0.15
   2  -7   5    0.89    0.11
  -2  -7  -5    0.97    0.11
   2  -7   5    1.15    0.14
  -2  -7  -5    0.93    0.15
  -2  -7  -5    0.79    0.11
   2   7   5    0.97    0.16
  -2   7  -5    1.22    0.14
  -3  -7  -5    2.55    0.21
   3  -7   5    2.59    0.25
  -3  -7  -5    2.63    0.25
   3  -7   5    2.66    0.22
   3  -7   5    2.99    0.23
  -3  -7  -5    2.85    0.24
  -3   7  -5    2.71    0.23
   3   7   5    2.78    0.26
   4  -7   5    1.22    0.16
   4  -7   5    1.24    0.19
   4  -7   5    1.00    0.15
  -4  -7  -5    1.55    0.18
  -4  -7  -5    1.05    0.17
  -4   7  -5    1.48    0.15
  -4   7  -5    1.48    0.16
   4   7   5    1.15    0.20
  -5  -7  -5   -0.02    0.08
   5  -7   5    0.07    0.09
  -5  -7  -5   -0.05    0.09
   5  -7   5    0.02    0.08
  -5   7  -5   -0.02    0.07
  -5   7  -5   -0.01    0.06
   5   7   5   -0.04    0.10
   6  -7   5    1.28    0.22
  -6  -7  -5    1.42    0.20
  -6  -7  -5    1.27    0.17
   6  -7   5    1.36    0.17
  -6   7  -5    1.33    0.17
  -6   7  -5    1.34    0.17
   6   7   5    1.25    0.17
   7  -7   5    1.30    0.17
  -7  -7  -5    1.47    0.20
   7  -7   5    1.42    0.24
  -7  -7  -5    1.21    0.17
  -7   7  -5    1.14    0.15
  -7   7  -5    1.07    0.15
   8  -7   5    8.36    0.72
  -8  -7  -5    8.74    0.67
  -8  -7  -5    9.10    0.65
  -8   7  -5    9.13    0.64
  -8   7  -5    8.76    0.63
  -9  -7  -5    0.14    0.14
   9  -7   5    0.27    0.15
  -9   7  -5    0.18    0.09
  -9   7  -5    0.11    0.10
  10  -7   5    4.72    0.42
 -10  -7  -5    3.71    0.37
 -10   7  -5    4.23    0.35
 -10   7  -5    4.15    0.36
 -11  -7  -5    0.64    0.14
 -11   7  -5    0.25    0.11
 -11   7  -5    0.22    0.12
 -13  -8   5    0.30    0.12
  13  -8  -5    0.11    0.15
 -13   8   5    0.33    0.09
  12  -8  -5    3.33    0.38
  12  -8  -5    3.29    0.30
 -12  -8   5    3.33    0.30
 -12   8   5    3.10    0.27
  11  -8  -5    0.14    0.10
  11  -8  -5   -0.02    0.09
 -11  -8   5    0.13    0.11
 -11   8   5    0.06    0.07
  10  -8  -5    1.62    0.20
 -10  -8   5    1.45    0.20
  10  -8  -5    1.43    0.18
 -10   8   5    1.34    0.16
  -9  -8   5    0.04    0.07
  -9  -8   5    0.07    0.10
   9  -8  -5    0.04    0.08
   9  -8  -5   -0.09    0.09
  -9   8   5    0.01    0.06
  -8  -8   5   11.69    0.83
  -8  -8   5   12.74    0.86
   8  -8  -5   12.59    0.81
   8  -8  -5   12.79    0.91
  -8   8   5   11.89    0.81
  -7  -8   5    0.28    0.09
   7  -8  -5    0.35    0.10
   7  -8  -5    0.33    0.09
  -7  -8   5    0.44    0.10
  -7   8   5    0.29    0.07
   7   8  -5    0.47    0.10
  -6  -8   5    5.37    0.40
   6  -8  -5    5.22    0.43
   6  -8  -5    5.47    0.39
   6   8  -5    5.69    0.41
  -6   8   5    5.21    0.37
   5  -8  -5    0.16    0.08
   5  -8  -5    0.15    0.09
  -5  -8   5    0.09    0.07
   5   8  -5    0.18    0.08
  -5   8   5    0.14    0.06
   4  -8  -5   12.80    0.91
   4  -8  -5   13.10    0.81
  -4  -8   5   12.79    0.85
  -4  -8   5   11.06    0.91
  -4   8   5   12.37    0.81
   4   8  -5   13.60    0.86
  -3  -8   5    0.07    0.07
  -3  -8   5    0.10    0.07
   3  -8  -5    0.10    0.07
   3  -8  -5    0.00    0.09
  -3   8   5    0.05    0.06
   3   8  -5    0.06    0.08
  -2  -8   5   14.09    0.94
  -2  -8   5   14.76    0.89
   2  -8  -5   12.92    1.00
   2  -8  -5   14.37    0.89
  -2  -8   5   13.14    1.00
   2   8  -5   15.53    0.94
  -2   8   5   13.32    0.90
  -1  -8   5    1.52    0.17
   1  -8  -5    1.62    0.17
   1  -8  -5    1.21    0.19
  -1  -8   5    1.94    0.18
  -1   8   5    1.65    0.16
  -1   8   5    1.65    0.16
   1   8  -5    1.53    0.18
   0  -8   5   10.33    0.62
   0  -8  -5    8.96    0.69
   0  -8   5   10.03    0.65
   0  -8  -5    9.91    0.61
   0   8   5    8.85    0.72
   0   8  -5    8.97    0.65
   0   8   5    9.05    0.62
   1  -8   5    0.47    0.09
  -1  -8  -5    0.42    0.09
  -1  -8  -5    0.43    0.09
  -1  -8  -5    0.47    0.07
  -1  -8  -5    0.40    0.09
   1  -8   5    0.44    0.09
   1   8   5    0.41    0.09
   1   8   5    0.43    0.09
  -1   8  -5    0.38    0.08
  -2  -8  -5    3.22    0.29
  -2  -8  -5    3.71    0.29
   2  -8   5    4.11    0.28
  -2  -8  -5    3.29    0.27
   2  -8   5    3.58    0.28
  -2   8  -5    3.54    0.28
   2   8   5    3.58    0.31
  -3  -8  -5    0.30    0.09
  -3  -8  -5    0.22    0.07
   3  -8   5    0.23    0.08
  -3  -8  -5    0.20    0.09
   3  -8   5    0.20    0.07
   3   8   5    0.05    0.08
  -3   8  -5    0.22    0.07
   4  -8   5    6.12    0.43
   4  -8   5    6.73    0.42
   4  -8   5    5.53    0.49
  -4  -8  -5    5.85    0.46
  -4  -8  -5    5.71    0.45
  -4   8  -5    6.47    0.45
  -4   8  -5    6.03    0.44
  -5  -8  -5    0.21    0.10
   5  -8   5    0.13    0.09
   5  -8   5   -0.05    0.09
  -5  -8  -5    0.06    0.09
  -5   8  -5    0.14    0.08
  -5   8  -5    0.07    0.07
  -6  -8  -5    2.40    0.24
  -6  -8  -5    2.39    0.25
   6  -8   5    2.95    0.28
   6  -8   5    2.68    0.24
  -6   8  -5    2.41    0.23
  -6   8  -5    2.33    0.24
   7  -8   5    0.46    0.12
  -7  -8  -5    0.44    0.12
  -7  -8  -5    0.25    0.10
   7  -8   5    0.19    0.10
  -7   8  -5    0.12    0.09
  -7   8  -5    0.11    0.10
  -8  -8  -5    3.59    0.33
   8  -8   5    3.87    0.31
   8  -8   5    4.18    0.38
  -8   8  -5    3.44    0.33
  -8   8  -5    3.37    0.32
  -9  -8  -5    1.99    0.25
  -9   8  -5    2.02    0.23
  -9   8  -5    2.06    0.23
 -10  -8  -5    2.48    0.28
  10  -8   5    3.57    0.34
 -10   8  -5    2.61    0.29
 -10   8  -5    2.94    0.28
  12  -9  -5    0.28    0.14
 -12  -9   5    0.03    0.12
  11  -9  -5    2.70    0.25
  11  -9  -5    2.95    0.28
 -11  -9   5    2.82    0.27
 -11   9   5    2.73    0.23
  10  -9  -5    0.09    0.10
 -10  -9   5    0.09    0.11
  10  -9  -5    0.08    0.09
  10  -9  -5   -0.04    0.10
 -10   9   5    0.10    0.07
  -9  -9   5    2.84    0.25
   9  -9  -5    2.98    0.27
  -9  -9   5    2.72    0.26
   9  -9  -5    2.41    0.24
  -9   9   5    2.51    0.22
  -8  -9   5    0.07    0.10
   8  -9  -5    0.12    0.09
  -8  -9   5    0.03    0.08
   8  -9  -5    0.07    0.10
   8   9  -5    0.06    0.10
  -8   9   5    0.00    0.06
   7  -9  -5   19.56    1.45
  -7  -9   5   20.28    1.34
   7  -9  -5   20.71    1.28
  -7   9   5   19.82    1.29
   7   9  -5   20.54    1.35
   6  -9  -5   -0.15    0.09
   6  -9  -5    0.09    0.08
  -6  -9   5   -0.01    0.08
   6   9  -5    0.05    0.09
  -6   9   5   -0.03    0.06
   5  -9  -5    7.50    0.58
   5  -9  -5    8.09    0.53
  -5  -9   5    8.20    0.54
   5   9  -5    7.60    0.55
  -5   9   5    7.19    0.51
   4  -9  -5   -0.14    0.09
   4  -9  -5    0.06    0.07
  -4  -9   5    0.00    0.08
   4   9  -5    0.02    0.08
  -4   9   5   -0.08    0.05
  -3  -9   5   13.40    0.86
  -3  -9   5   13.47    0.91
   3  -9  -5   14.22    0.87
   3  -9  -5   13.17    0.98
   3   9  -5   14.03    0.92
  -3   9   5   13.08    0.87
   2  -9  -5    0.05    0.10
   2  -9  -5    0.32    0.08
  -2  -9   5    0.30    0.08
  -2  -9   5    0.31    0.08
  -2   9   5    0.25    0.07
   2   9  -5    0.14    0.09
  -1  -9   5   22.76    1.39
   1  -9  -5   19.81    1.56
  -1  -9   5   24.46    1.46
   1  -9  -5   23.26    1.47
   1  -9  -5   23.51    1.40
   1   9  -5   20.89    1.47
  -1   9   5   21.09    1.45
  -1   9   5   21.64    1.41
   0  -9   5    0.75    0.11
   0  -9   5    0.86    0.11
   0  -9  -5    0.96    0.12
   0  -9  -5    0.93    0.12
   0  -9  -5    0.88    0.11
   0   9   5    0.78    0.10
   0   9   5    0.96    0.12
   0   9  -5    0.84    0.11
  -1  -9  -5   14.50    0.93
   1  -9   5   16.57    0.94
  -1  -9  -5   13.65    1.05
   1  -9   5   15.23    0.99
  -1  -9  -5   14.96    1.00
  -1  -9  -5   15.56    0.99
   1   9   5   14.64    0.95
  -1   9  -5   12.79    0.98
   2  -9   5    0.34    0.08
  -2  -9  -5    0.36    0.08
  -2  -9  -5    0.41    0.09
  -2  -9  -5    0.23    0.08
   2  -9   5    0.33    0.09
   2   9   5    0.30    0.09
  -2   9  -5    0.34    0.08
   3  -9   5    5.23    0.39
  -3  -9  -5    4.77    0.38
   3  -9   5    5.97    0.38
  -3  -9  -5    5.27    0.41
  -3  -9  -5    5.22    0.40
  -3   9  -5    5.21    0.39
   4  -9   5    0.40    0.11
   4  -9   5    0.38    0.09
  -4  -9  -5    0.60    0.11
  -4   9  -5    0.45    0.10
  -4   9  -5    0.44    0.09
  -5  -9  -5    1.27    0.19
   5  -9   5    1.25    0.18
  -5   9  -5    1.24    0.16
  -5   9  -5    1.21    0.17
   6  -9   5    0.08    0.10
   6  -9   5    0.33    0.10
  -6  -9  -5    0.07    0.11
  -6   9  -5   -0.02    0.07
  -6   9  -5   -0.01    0.09
  -7  -9  -5    3.32    0.29
   7  -9   5    3.25    0.28
   7  -9   5    3.69    0.32
  -7   9  -5    2.66    0.27
  -7   9  -5    2.66    0.28
  -8  -9  -5    0.35    0.13
   8  -9   5   -0.11    0.11
  -8   9  -5    0.07    0.10
  -8   9  -5    0.06    0.09
  -9  -9  -5    4.56    0.38
   9  -9   5    5.30    0.43
  -9   9  -5    4.48    0.39
  -9   9  -5    4.09    0.37
 -10  -9  -5    1.59    0.22
  12 -10  -5    0.04    0.11
  12 -10  -5    0.37    0.15
 -12 -10   5    0.12    0.13
  12  10  -5    0.01    0.11
 -11 -10   5   -0.12    0.11
  11 -10  -5    0.13    0.11
  11 -10  -5    0.06    0.10
  11  10  -5    0.09    0.11
 -10 -10   5   -0.07    0.12
  10 -10  -5    0.29    0.09
  10 -10  -5    0.12    0.12
  10 -10  -5    0.00    0.10
  10  10  -5   -0.10    0.11
   9 -10  -5    0.34    0.10
   9 -10  -5    0.27    0.13
   9 -10  -5    0.18    0.10
   9  10  -5    0.28    0.11
   8 -10  -5    2.08    0.24
  -8 -10   5    2.66    0.23
   8 -10  -5    2.06    0.25
   8 -10  -5    1.98    0.23
   8  10  -5    2.45    0.25
  -8  10   5    2.16    0.20
   7 -10  -5    0.01    0.09
   7 -10  -5    0.00    0.09
  -7 -10   5   -0.15    0.09
   7 -10  -5   -0.05    0.11
  -7  10   5    0.01    0.06
   7  10  -5    0.02    0.09
   6 -10  -5   -0.13    0.10
  -6 -10   5    0.03    0.09
   6 -10  -5    0.05    0.09
   6  10  -5    0.02    0.09
  -6  10   5    0.09    0.07
   5 -10  -5    0.13    0.09
  -5 -10   5    0.15    0.09
   5 -10  -5   -0.02    0.11
  -5  10   5    0.10    0.06
   5  10  -5    0.20    0.09
   4 -10  -5    0.01    0.10
  -4 -10   5    0.08    0.07
   4 -10  -5    0.14    0.09
   4 -10  -5    0.14    0.09
  -4 -10   5    0.13    0.08
   4  10  -5    0.02    0.08
  -4  10   5    0.06    0.06
   3 -10  -5    0.13    0.08
   3 -10  -5    0.09    0.10
  -3 -10   5    0.08    0.08
   3 -10  -5    0.09    0.09
  -3 -10   5    0.16    0.08
  -3  10   5    0.17    0.06
   3  10  -5    0.11    0.08
  -2 -10   5    0.05    0.08
   2 -10  -5    0.01    0.08
  -2 -10   5   -0.03    0.07
   2 -10  -5    0.00    0.09
   2 -10  -5   -0.05    0.08
  -2  10   5    0.01    0.06
   2  10  -5    0.02    0.08
  -1 -10   5    0.42    0.10
   1 -10  -5    0.37    0.09
  -1 -10   5    0.46    0.09
   1 -10  -5    0.45    0.10
   1  10  -5    0.50    0.10
  -1  10   5    0.33    0.08
   0 -10  -5    0.09    0.08
   0 -10   5    0.09    0.08
   0 -10   5    0.09    0.08
   0 -10  -5    0.16    0.08
   0  10  -5    0.11    0.07
   0  10   5    0.16    0.07
   1 -10   5    1.52    0.17
  -1 -10  -5    1.70    0.16
   1 -10   5    1.34    0.18
  -1 -10  -5    1.12    0.17
  -1  10  -5    1.30    0.18
   1  10   5    1.48    0.16
  -2 -10  -5    0.02    0.07
  -2 -10  -5   -0.06    0.09
   2 -10   5    0.04    0.08
   2 -10   5   -0.03    0.08
   2  10   5   -0.05    0.08
  -2  10  -5    0.06    0.07
  -3 -10  -5    1.22    0.14
  -3 -10  -5    1.07    0.16
   3 -10   5    1.09    0.14
   3 -10   5    1.23    0.14
   3  10   5    0.79    0.14
  -3  10  -5    1.19    0.15
   4 -10   5    0.31    0.10
   4 -10   5    0.34    0.09
  -4 -10  -5    0.35    0.11
  -4  10  -5    0.29    0.09
  -4  10  -5    0.38    0.09
  -5 -10  -5    0.81    0.13
   5 -10   5    0.73    0.13
  -5  10  -5    0.83    0.12
  -5  10  -5    0.68    0.12
   6 -10   5   -0.02    0.10
  -6 -10  -5   -0.01    0.11
  -6  10  -5   -0.14    0.08
  -6  10  -5   -0.14    0.07
   7 -10   5    1.54    0.19
  -7 -10  -5    1.31    0.20
  -7  10  -5    1.35    0.18
  -7  10  -5    1.34    0.18
   8 -10   5    2.49    0.26
  -8 -10  -5    3.04    0.27
  -8  10  -5    2.25    0.25
  -8  10  -5    2.69    0.28
  -9 -10  -5    2.25    0.25
  -9  10  -5    2.46    0.26
  -9  10  -5    2.17    0.25
  11 -11  -5    2.03    0.23
  11  11  -5    2.46    0.26
  10 -11  -5   -0.03    0.10
  10 -11  -5   -0.06    0.09
  10  11  -5   -0.05    0.11
   9 -11  -5    1.10    0.16
   9 -11  -5    1.16    0.16
   9  11  -5    1.26    0.18
  -8 -11   5    0.11    0.09
   8 -11  -5    0.11    0.10
   8 -11  -5    0.14    0.10
   8  11  -5    0.07    0.10
  -7 -11   5    0.17    0.11
   7 -11  -5    0.38    0.12
   7 -11  -5    0.18    0.11
   7  11  -5    0.44    0.12
   6 -11  -5   -0.04    0.09
  -6 -11   5   -0.04    0.09
   6 -11  -5    0.09    0.09
   6  11  -5   -0.01    0.09
   5 -11  -5    3.19    0.29
   5 -11  -5    3.69    0.31
  -5 -11   5    3.25    0.30
   5  11  -5    3.47    0.30
  -4 -11   5   -0.19    0.07
  -4 -11   5   -0.01    0.09
   4 -11  -5   -0.10    0.09
   4 -11  -5   -0.03    0.09
   4  11  -5    0.02    0.08
  -3 -11   5    0.40    0.10
  -3 -11   5    0.32    0.09
   3 -11  -5    0.44    0.11
   3 -11  -5    0.29    0.11
   3  11  -5    0.43    0.10
  -3  11   5    0.33    0.07
  -2 -11   5    0.19    0.09
   2 -11  -5    0.06    0.10
   2 -11  -5    0.09    0.09
  -2 -11   5    0.27    0.09
   2  11  -5    0.15    0.09
  -2  11   5    0.11    0.06
  -1 -11   5    0.07    0.08
   1 -11  -5   -0.09    0.08
  -1 -11   5    0.02    0.08
   1 -11  -5   -0.10    0.08
  -1  11   5   -0.09    0.06
   1  11  -5   -0.02    0.08
   0 -11   5    0.64    0.11
   0 -11  -5    0.72    0.12
   0 -11  -5    0.68    0.11
   0 -11   5    0.71    0.11
   0  11  -5    0.69    0.11
   0  11   5    0.75    0.10
   0  11   5    0.65    0.09
   1 -11   5    1.26    0.17
  -1 -11  -5    1.19    0.17
   1 -11   5    1.38    0.17
  -1  11  -5    1.40    0.17
   1  11   5    1.31    0.16
   2 -11   5    0.46    0.10
   2 -11   5    0.36    0.10
  -2 -11  -5    0.24    0.09
  -2  11  -5    0.36    0.09
   2  11   5    0.38    0.10
  -3 -11  -5    2.68    0.26
   3 -11   5    2.68    0.24
   3 -11   5    2.61    0.25
  -3  11  -5    2.64    0.24
   3  11   5    2.83    0.25
   4 -11   5    0.57    0.12
   4 -11   5    0.55    0.11
  -4 -11  -5    0.74    0.12
  -4  11  -5    0.57    0.11
  -4  11  -5    0.63    0.11
   4  11   5    0.53    0.14
  -5 -11  -5    0.72    0.13
   5 -11   5    0.68    0.13
  -5  11  -5    0.63    0.12
  -5  11  -5    0.62    0.11
   6 -11   5    0.40    0.12
  -6 -11  -5    0.45    0.13
  -6  11  -5    0.25    0.11
  -6  11  -5    0.38    0.09
   7 -11   5    2.56    0.25
  -7 -11  -5    2.55    0.26
  -7  11  -5    2.62    0.24
  -7  11  -5    2.57    0.26
  -8 -11  -5    3.18    0.28
   8 -11   5    2.74    0.27
  -8  11  -5    3.00    0.29
  -8  11  -5    2.73    0.27
  10 -12  -5    1.41    0.20
  10  12  -5    2.04    0.22
   9 -12  -5   -0.01    0.10
   9 -12  -5   -0.01    0.10
   9  12  -5    0.19    0.11
   8 -12  -5   11.84    0.82
  -8 -12   5   11.30    0.81
   8 -12  -5   11.38    0.78
   8  12  -5   12.37    0.83
  -7 -12   5    0.07    0.11
   7 -12  -5    0.16    0.11
   7 -12  -5    0.10    0.11
   7  12  -5    0.16    0.11
  -6 -12   5    4.68    0.39
   6 -12  -5    4.64    0.37
   6 -12  -5    5.10    0.40
   6  12  -5    4.76    0.39
  -5 -12   5    0.03    0.10
   5 -12  -5   -0.03    0.11
   5 -12  -5    0.02    0.10
   5  12  -5    0.05    0.10
   4 -12  -5    3.37    0.29
  -4 -12   5    3.28    0.30
   4 -12  -5    3.09    0.30
   4  12  -5    3.33    0.29
   3 -12  -5    0.01    0.10
  -3 -12   5   -0.20    0.09
  -3 -12   5    0.03    0.09
   3 -12  -5   -0.10    0.10
   3  12  -5    0.00    0.09
  -2 -12   5    4.39    0.34
  -2 -12   5    4.43    0.37
   2 -12  -5    4.78    0.36
   2 -12  -5    4.75    0.37
   2  12  -5    4.78    0.37
  -1 -12   5    0.05    0.09
   1 -12  -5    0.04    0.09
  -1 -12   5    0.08    0.09
   1 -12  -5    0.06    0.09
   1  12  -5    0.04    0.09
   0 -12   5    4.85    0.36
   0 -12   5    4.49    0.35
   0 -12  -5    4.57    0.36
   0 -12  -5    4.44    0.35
   0  12  -5    4.76    0.36
  -1 -12  -5    0.07    0.09
   1 -12   5    0.08    0.09
   1 -12   5    0.07    0.09
  -1  12  -5   -0.01    0.08
   1  12   5    0.07    0.08
  -2 -12  -5    2.75    0.26
   2 -12   5    2.97    0.27
   2 -12   5    2.98    0.26
  -2  12  -5    3.00    0.26
   3 -12   5   -0.08    0.09
   3 -12   5   -0.02    0.09
  -3  12  -5   -0.03    0.07
   4 -12   5    5.35    0.39
  -4 -12  -5    5.19    0.40
   4 -12   5    5.19    0.40
  -4  12  -5    5.38    0.40
  -4  12  -5    4.71    0.39
   5 -12   5    0.18    0.11
  -5 -12  -5    0.16    0.12
  -5  12  -5    0.15    0.10
  -5  12  -5    0.33    0.09
  -6 -12  -5    2.02    0.23
   6 -12   5    2.20    0.22
  -6  12  -5    2.09    0.23
  -6  12  -5    1.86    0.20
   7 -12   5   -0.19    0.11
  -7 -12  -5   -0.15    0.12
  -7  12  -5   -0.13    0.09
  -7  12  -5   -0.01    0.08
   9 -13  -5   -0.06    0.10
   9 -13  -5    0.02    0.10
   9  13  -5    0.06    0.11
   8 -13  -5    0.05    0.10
  -8 -13   5    0.00    0.10
   8 -13  -5   -0.03    0.10
   8  13  -5    0.03    0.11
  -7 -13   5    0.67    0.14
   7 -13  -5    0.86    0.15
   7 -13  -5    0.76    0.14
   7  13  -5    0.73    0.15
   6 -13  -5   -0.02    0.11
  -6 -13   5    0.11    0.10
   6 -13  -5   -0.01    0.10
   6  13  -5    0.07    0.10
   5 -13  -5    0.80    0.15
  -5 -13   5    0.80    0.14
   5 -13  -5    0.69    0.14
   5  13  -5    0.56    0.13
   4 -13  -5   -0.01    0.10
  -4 -13   5    0.01    0.10
   4 -13  -5    0.02    0.10
   4  13  -5   -0.05    0.10
  -3 -13   5    1.77    0.20
  -3 -13   5    1.78    0.23
   3 -13  -5    1.67    0.23
   3 -13  -5    2.09    0.22
   3  13  -5    2.05    0.22
  -2 -13   5    0.03    0.09
   2 -13  -5    0.00    0.09
   2 -13  -5   -0.02    0.10
  -2 -13   5   -0.04    0.10
   2  13  -5   -0.06    0.09
   1 -13  -5    0.31    0.11
  -1 -13   5    0.41    0.11
  -1 -13   5    0.35    0.11
   1 -13  -5    0.23    0.11
   1  13  -5    0.26    0.10
   0 -13   5    0.15    0.10
   0 -13   5    0.06    0.10
   0 -13  -5    0.07    0.10
   0  13  -5    0.08    0.09
   1 -13   5    2.21    0.22
  -1 -13  -5    2.38    0.23
   1 -13   5    2.15    0.23
  -1  13  -5    2.25    0.22
   2 -13   5    0.30    0.11
   2 -13   5    0.16    0.10
  -2 -13  -5    0.32    0.10
  -2  13  -5    0.09    0.09
   3 -13   5    0.13    0.10
   3 -13   5    0.12    0.10
  -3  13  -5    0.04    0.08
   4 -13   5    0.62    0.13
   4 -13   5    0.74    0.13
  -4  13  -5    1.00    0.13
  -4  13  -5    0.72    0.12
   5 -13   5    0.64    0.13
  -5  13  -5    0.58    0.10
  -5  13  -5    0.49    0.12
   6 -13   5    0.28    0.11
  -6  13  -5    0.07    0.10
  -6  13  -5    0.11    0.08
   8 -14  -5   -0.10    0.10
   8 -14  -5   -0.18    0.10
   8  14  -5    0.17    0.10
  -7 -14   5   -0.10    0.11
   7 -14  -5    0.02    0.10
   7 -14  -5   -0.10    0.10
   7  14  -5    0.21    0.10
   6 -14  -5    0.01    0.11
   6 -14  -5    0.01    0.11
  -6 -14   5    0.19    0.11
   6  14  -5    0.12    0.11
   5 -14  -5   -0.15    0.10
   5 -14  -5    0.03    0.11
  -5 -14   5   -0.09    0.10
   5  14  -5   -0.12    0.10
   4 -14  -5    1.10    0.17
  -4 -14   5    1.46    0.21
   4 -14  -5    1.11    0.17
   4  14  -5    1.23    0.17
   3 -14  -5    0.01    0.11
  -3 -14   5    0.01    0.11
   3 -14  -5   -0.03    0.10
   3  14  -5    0.10    0.10
   2 -14  -5    0.86    0.15
  -2 -14   5    0.87    0.14
  -2 -14   5    0.93    0.15
   2 -14  -5    0.77    0.15
   2  14  -5    0.96    0.14
   1 -14  -5   -0.09    0.10
  -1 -14   5   -0.10    0.10
  -1 -14   5    0.02    0.10
   1  14  -5   -0.12    0.09
   0 -14   5    0.19    0.11
   0 -14  -5    0.15    0.11
   0 -14   5    0.23    0.10
   0  14  -5    0.26    0.09
   1 -14   5    0.15    0.10
  -1 -14  -5    0.40    0.11
   1 -14   5    0.12    0.11
  -1  14  -5    0.21    0.09
  -2 -14  -5    0.20    0.09
   2 -14   5    0.10    0.10
   2 -14   5    0.17    0.11
  -2  14  -5    0.20    0.09
   3 -14   5    0.15    0.10
   3 -14   5    0.14    0.11
  -3  14  -5    0.05    0.08
   4 -14   5    0.27    0.10
   4 -14   5    0.13    0.11
  -4  14  -5   -0.07    0.08
  -4  14  -5   -0.03    0.08
   4  14   5   -0.03    0.10
   5 -14   5   -0.10    0.10
  -5  14  -5    0.01    0.09
  -5  14  -5   -0.11    0.07
  -6 -15   5   -0.22    0.10
   6 -15  -5    0.06    0.11
   6 -15  -5   -0.13    0.11
   6  15  -5   -0.17    0.10
  -5 -15   5    1.81    0.23
   5 -15  -5    1.95    0.22
   5 -15  -5    1.74    0.23
   5  15  -5    1.74    0.22
  -4 -15   5    0.00    0.11
   4 -15  -5    0.02    0.11
   4 -15  -5   -0.12    0.11
   4  15  -5    0.00    0.09
   3 -15  -5    0.60    0.15
   3 -15  -5    1.05    0.15
  -3 -15   5    0.88    0.15
   3  15  -5    0.69    0.13
  -2 -15   5    0.03    0.10
   2 -15  -5    0.26    0.10
   2 -15  -5   -0.13    0.10
  -2 -15   5   -0.02    0.10
   2  15  -5   -0.03    0.09
  -1 -15   5    1.49    0.20
   1 -15  -5    1.28    0.19
  -1 -15   5    1.01    0.16
   1  15  -5    1.20    0.17
   0 -15  -5    0.05    0.10
   0 -15   5    0.14    0.11
   0 -15   5   -0.09    0.10
   0  15  -5    0.00    0.08
   1 -15   5    1.84    0.21
  -1 -15  -5    1.54    0.20
   1 -15   5    1.79    0.20
  -1  15  -5    1.51    0.19
   2 -15   5    0.07    0.10
   2 -15   5    0.06    0.09
  -2  15  -5   -0.07    0.08
   3 -15   5    1.02    0.14
   3 -15   5    1.39    0.18
  -3  15  -5    0.75    0.13
  -3  15  -5    0.91    0.14
 -15   0   6   -0.10    0.09
  14   0  -6   11.31    0.85
 -14   0   6    9.72    0.72
 -13   0   6    0.35    0.12
 -13   0   6    0.01    0.10
  13   0  -6    0.16    0.11
 -12   0   6   16.10    1.20
 -12   0   6   16.36    1.07
  12   0  -6   16.44    1.25
 -11   0   6    0.01    0.07
 -11   0   6    0.02    0.09
 -10   0   6    4.81    0.43
 -10   0   6    5.70    0.38
  -9   0   6    0.17    0.08
  -8   0   6  110.93    6.55
  -8   0   6  108.00    6.76
   8   0  -6   95.34    6.44
  -8   0   6  104.01    7.38
  -6   0   6   91.49    5.65
  -6   0   6   93.08    6.36
  -6   0   6   85.55    5.83
   6   0  -6   90.72    6.29
  -5   0   6    0.09    0.07
  -5   0   6   -0.01    0.05
  -5   0   6    0.09    0.07
   5   0  -6    0.05    0.08
  -4   0   6  185.12   12.15
  -4   0   6  196.83   11.76
  -4   0   6  193.77   13.25
   4   0  -6  181.35   13.10
  -4   0   6  184.24   13.80
  -3   0   6   -0.04    0.06
  -2   0   6   28.08    2.18
  -2   0   6   27.10    1.86
  -2   0   6   30.59    2.10
   2   0  -6   33.16    2.08
  -2   0   6   28.79    1.93
  -1   0   6    0.00    0.06
  -1   0   6    0.26    0.07
   1   0  -6    0.17    0.08
  -1   0   6    0.05    0.05
   1   0  -6    0.09    0.04
   1   0  -6    0.13    0.04
   0   0  -6   54.96    3.83
   0   0   6   58.95    4.25
   0   0  -6   51.03    3.75
   0   0  -6   63.53    4.04
   0   0   6   60.88    3.74
   1   0   6    0.07    0.07
  -1   0  -6    0.01    0.07
   1   0   6   -0.01    0.04
  -1   0  -6    0.08    0.06
  -1   0  -6    0.06    0.05
   2   0   6   52.53    3.85
   2   0   6   45.58    3.38
  -2   0  -6   51.63    3.40
  -2   0  -6   52.16    3.47
  -2   0  -6   59.73    3.66
  -4   0  -6   23.96    1.65
  -4   0  -6   23.81    1.61
  -4   0  -6   24.29    1.73
   4   0   6   26.02    1.83
   5   0   6    0.02    0.10
  -5   0  -6    0.11    0.07
  -5   0  -6    0.05    0.08
  -5   0  -6    0.10    0.08
  -6   0  -6   31.53    2.21
  -6   0  -6   32.59    2.11
   6   0   6   31.02    2.33
  -6   0  -6   30.29    2.06
  -7   0  -6    0.24    0.09
   7   0   6    0.23    0.13
  -7   0  -6    0.18    0.09
  -7   0  -6    0.17    0.11
   8   0   6   17.29    1.29
  -8   0  -6   17.23    1.16
  -8   0  -6   15.31    1.21
  -8   0  -6   17.26    1.14
   9   0   6    1.86    0.30
  -9   0  -6    1.67    0.24
  10   0   6   23.44    1.80
 -10   0  -6   23.62    1.62
 -10   0  -6   23.91    1.59
  11   0   6    0.39    0.16
 -11   0  -6    0.16    0.13
 -12   0  -6   10.81    0.76
  12   0   6   10.10    0.84
 -15  -1   6    0.39    0.12
 -15   1   6    0.52    0.12
 -14  -1   6    1.44    0.19
  14  -1  -6    1.61    0.26
  13  -1  -6    7.38    0.60
 -13  -1   6    6.97    0.50
 -13  -1   6    6.86    0.56
 -13   1   6    6.01    0.49
  13   1  -6    7.53    0.59
 -12  -1   6    0.86    0.15
 -12  -1   6    0.92    0.13
 -12   1   6    0.50    0.11
 -12   1   6    0.69    0.14
 -11  -1   6    1.64    0.18
 -11  -1   6    1.62    0.23
 -11   1   6    1.92    0.19
 -11   1   6    1.55    0.23
 -10  -1   6    0.17    0.09
 -10  -1   6    0.23    0.07
 -10  -1   6    0.25    0.07
 -10   1   6    0.16    0.09
 -10   1   6    0.04    0.07
   9  -1  -6   12.01    0.82
  -9  -1   6   12.60    0.95
  -9  -1   6   11.98    0.87
  -9  -1   6   14.29    0.85
  -9   1   6   13.46    0.95
  -9   1   6   13.62    0.84
  -7  -1   6   47.20    3.09
  -7  -1   6   48.30    2.99
  -7  -1   6   49.19    3.37
   7  -1  -6   45.47    2.94
  -7  -1   6   45.16    3.15
  -7   1   6   44.66    3.09
  -7   1   6   49.05    3.37
  -7   1   6   51.44    2.99
  -5  -1   6    3.10    0.26
  -5  -1   6    3.08    0.22
   5  -1  -6    3.35    0.27
  -5  -1   6    2.46    0.21
  -5  -1   6    3.22    0.25
   5   1  -6    2.77    0.25
  -5   1   6    2.83    0.26
  -5   1   6    3.01    0.22
  -3  -1   6   13.61    1.01
   3  -1  -6   15.96    1.01
  -3  -1   6   14.40    0.90
  -3  -1   6   14.46    1.05
   3   1  -6   14.96    1.00
  -3   1   6   13.39    0.94
  -3   1   6   13.05    0.90
   3   1  -6   12.35    0.92
  -3   1   6   15.77    1.01
  -3   1   6   13.36    1.05
  -2  -1   6    3.83    0.32
  -2  -1   6    4.39    0.29
  -2  -1   6    4.93    0.34
   2  -1  -6    4.43    0.34
  -2  -1   6    4.73    0.34
   2   1  -6    4.26    0.30
  -2   1   6    3.37    0.29
  -2   1   6    3.67    0.33
   2   1  -6    4.84    0.34
   1  -1  -6    3.31    0.27
  -1  -1   6    3.42    0.26
  -1  -1   6    3.46    0.28
   1  -1  -6    4.31    0.31
  -1  -1   6    4.34    0.32
  -1   1   6    4.20    0.27
   1   1  -6    3.30    0.27
  -1   1   6    3.96    0.32
   0  -1  -6    3.46    0.27
   0  -1  -6    3.90    0.27
   1  -1   6    1.38    0.15
  -1  -1  -6    1.78    0.17
  -1  -1  -6    1.33    0.15
  -1  -1  -6    1.53    0.16
   1  -1   6    1.72    0.19
   1   1   6    1.14    0.14
   1   1   6    1.97    0.20
  -1   1  -6    1.52    0.16
  -1   1  -6    1.62    0.15
  -1   1  -6    1.35    0.15
   2  -1   6    8.02    0.51
  -2  -1  -6    6.68    0.53
  -2  -1  -6    7.09    0.52
   2  -1   6    7.82    0.59
  -2  -1  -6    7.18    0.55
  -2   1  -6    7.56    0.53
   2   1   6    8.59    0.59
   3  -1   6   18.86    1.34
  -3  -1  -6   17.86    1.27
  -3  -1  -6   16.73    1.18
  -3  -1  -6   17.07    1.21
  -3   1  -6   17.58    1.18
  -3   1  -6   19.69    1.27
  -3   1  -6   17.46    1.21
   3   1   6   17.89    1.34
  -4  -1  -6    5.61    0.37
   4  -1   6    3.92    0.39
  -4  -1  -6    4.67    0.36
  -4   1  -6    4.23    0.35
   4   1   6    4.86    0.40
  -4   1  -6    4.85    0.35
  -4   1  -6    4.17    0.36
  -5  -1  -6    1.17    0.17
  -5  -1  -6    1.15    0.19
  -5  -1  -6    1.56    0.18
   5  -1   6    1.21    0.21
  -5   1  -6    1.59    0.18
  -5   1  -6    1.39    0.17
  -5   1  -6    1.29    0.18
   5   1   6    1.33    0.16
   6  -1   6    6.58    0.58
  -6   1  -6    7.53    0.53
  -6   1  -6    7.13    0.53
  -6   1  -6    7.03    0.51
   7  -1   6    2.17    0.27
  -7  -1  -6    1.48    0.22
  -7  -1  -6    1.81    0.22
  -7  -1  -6    1.70    0.20
  -7   1  -6    2.11    0.22
  -7   1  -6    2.27    0.23
  -7   1  -6    2.22    0.21
   7   1   6    1.51    0.26
   8  -1   6    6.17    0.56
  -8  -1  -6    7.98    0.51
  -8   1  -6    5.62    0.50
  -8   1  -6    6.38    0.48
  -8   1  -6    6.09    0.50
  -9  -1  -6    4.59    0.45
  -9  -1  -6    5.38    0.45
   9   1   6    5.37    0.51
  -9   1  -6    6.54    0.46
  -9   1  -6    6.82    0.46
 -10  -1  -6   15.70    0.95
  10  -1   6   12.21    1.05
  10   1   6   14.29    1.05
 -10   1  -6   12.27    0.92
 -10   1  -6   12.16    0.95
  11  -1   6    2.87    0.34
 -11   1  -6    2.51    0.28
 -11   1  -6    2.86    0.29
  12  -1   6    5.97    0.57
 -12   1  -6    6.05    0.51
  12   1   6    7.70    0.59
 -15  -2   6    0.97    0.15
 -15   2   6    1.13    0.16
  14  -2  -6    1.74    0.26
 -14  -2   6    1.00    0.15
 -14   2   6    1.17    0.16
 -13  -2   6    1.02    0.17
 -13  -2   6    1.25    0.17
  13  -2  -6    0.95    0.18
 -13   2   6    0.88    0.14
 -12  -2   6    0.15    0.10
 -12  -2   6    0.18    0.12
 -12   2   6    0.16    0.12
 -12   2   6    0.17    0.09
 -11  -2   6    0.45    0.10
 -11  -2   6    0.50    0.12
  11   2  -6    0.62    0.13
 -11   2   6    0.48    0.10
 -11   2   6    0.46    0.12
 -10  -2   6    0.20    0.10
 -10  -2   6    0.25    0.08
 -10  -2   6    0.27    0.08
 -10   2   6    0.21    0.08
 -10   2   6    0.25    0.09
  -9  -2   6    0.08    0.07
  -9  -2   6    0.15    0.09
   9  -2  -6    0.04    0.07
  -9  -2   6    0.09    0.07
  -9  -2   6    0.07    0.06
  -9   2   6    0.09    0.08
  -9   2   6    0.11    0.06
   8  -2  -6    0.03    0.06
  -8  -2   6   -0.10    0.07
  -8  -2   6   -0.02    0.06
  -8  -2   6    0.06    0.06
  -8  -2   6    0.03    0.08
  -8   2   6    0.00    0.08
   8   2  -6   -0.01    0.05
  -8   2   6   -0.01    0.06
   7  -2  -6    0.57    0.12
  -7  -2   6    0.29    0.08
  -7  -2   6    0.32    0.07
  -7  -2   6    0.49    0.09
   7  -2  -6    0.28    0.08
  -7  -2   6    0.34    0.07
  -7   2   6    0.51    0.08
  -7   2   6    0.37    0.09
  -6  -2   6    1.63    0.19
  -6  -2   6    2.14    0.17
  -6  -2   6    2.15    0.17
   6  -2  -6    2.20    0.23
   6  -2  -6    1.92    0.18
  -6  -2   6    2.30    0.21
   6   2  -6    1.64    0.18
   6   2  -6    1.78    0.20
  -6   2   6    2.48    0.18
  -5  -2   6    0.15    0.05
   5  -2  -6    0.17    0.09
  -5  -2   6    0.17    0.07
  -5  -2   6    0.13    0.08
  -5  -2   6    0.15    0.05
   5  -2  -6    0.13    0.06
  -5   2   6    0.25    0.07
  -5   2   6    0.25    0.06
   5   2  -6    0.29    0.07
   5   2  -6    0.01    0.05
  -4  -2   6    4.12    0.30
   4  -2  -6    3.70    0.31
  -4  -2   6    3.72    0.26
  -4  -2   6    3.72    0.29
   4   2  -6    3.91    0.29
  -4   2   6    3.25    0.29
  -4   2   6    3.29    0.32
  -4   2   6    3.77    0.26
   4   2  -6    3.26    0.27
  -4   2   6    3.89    0.30
  -3  -2   6    0.49    0.08
  -3  -2   6    0.90    0.14
   3  -2  -6    0.77    0.11
  -3  -2   6    0.74    0.09
   3   2  -6    0.91    0.13
  -3   2   6    0.65    0.09
  -3   2   6    0.85    0.13
   3   2  -6    0.52    0.07
  -3   2   6    0.52    0.09
  -2  -2   6   11.02    0.71
  -2  -2   6   10.54    0.80
  -2  -2   6    9.26    0.68
  -2  -2   6   10.40    0.77
  -2   2   6   10.99    0.68
   2   2  -6   11.26    0.76
  -2   2   6   10.07    0.80
  -2   2   6   12.26    0.77
   2   2  -6    9.84    0.71
  -2   2   6   10.91    0.72
   1  -2  -6    0.40    0.05
  -1  -2   6    0.37    0.07
   1  -2  -6    0.54    0.10
  -1  -2   6    0.45    0.07
  -1  -2   6    0.51    0.06
   1   2  -6    0.38    0.06
  -1   2   6    0.40    0.08
   1   2  -6    0.43    0.08
  -1   2   6    0.55    0.07
  -1   2   6    0.46    0.08
   0  -2   6    0.55    0.08
   0  -2  -6    0.47    0.06
   0  -2   6    0.46    0.07
   0  -2  -6    0.49    0.07
   0  -2   6    0.55    0.07
   0  -2  -6    0.68    0.10
   0   2   6    0.64    0.09
   0   2  -6    0.43    0.06
   0   2  -6    0.59    0.08
   0   2  -6    0.56    0.07
   1  -2   6    2.35    0.20
  -1  -2  -6    3.00    0.23
   1  -2   6    2.29    0.24
  -1  -2  -6    2.13    0.20
  -1  -2  -6    2.07    0.20
  -1   2  -6    2.65    0.20
   1   2   6    2.63    0.25
  -1   2  -6    2.66    0.22
  -1   2  -6    2.42    0.20
   2  -2   6    1.00    0.12
   2  -2   6    1.09    0.12
  -2  -2  -6    1.05    0.12
  -2  -2  -6    0.93    0.14
  -2  -2  -6    0.86    0.11
  -2   2  -6    0.97    0.14
  -2   2  -6    1.08    0.13
   2   2   6    1.09    0.18
  -2   2  -6    1.07    0.13
  -3  -2  -6    9.72    0.66
  -3  -2  -6   10.93    0.71
  -3  -2  -6    9.16    0.67
   3  -2   6    9.36    0.75
  -3   2  -6    9.28    0.70
   3   2   6   10.16    0.75
  -3   2  -6    9.34    0.67
  -3   2  -6    9.72    0.66
  -4  -2  -6    1.54    0.17
  -4  -2  -6    1.52    0.16
   4  -2   6    1.39    0.16
  -4  -2  -6    1.43    0.18
  -4   2  -6    1.24    0.17
  -4   2  -6    1.09    0.17
  -4   2  -6    1.31    0.16
   4   2   6    1.22    0.22
  -5  -2  -6    1.84    0.20
  -5  -2  -6    1.31    0.18
   5  -2   6    1.23    0.22
  -5  -2  -6    1.55    0.19
  -5   2  -6    1.73    0.18
  -5   2  -6    1.48    0.19
  -5   2  -6    1.78    0.18
   5   2   6    1.43    0.18
   6  -2   6    0.07    0.11
  -6  -2  -6    0.21    0.11
  -6  -2  -6    0.20    0.09
  -6  -2  -6    0.20    0.09
  -6   2  -6    0.14    0.09
  -6   2  -6    0.22    0.08
  -6   2  -6    0.03    0.08
   6   2   6    0.20    0.11
  -7  -2  -6    3.47    0.31
  -7  -2  -6    4.08    0.30
   7  -2   6    3.66    0.35
  -7  -2  -6    3.21    0.30
  -7   2  -6    3.37    0.29
  -7   2  -6    3.22    0.30
  -7   2  -6    3.27    0.30
   7   2   6    3.13    0.35
   8  -2   6    0.25    0.14
   8   2   6    0.44    0.14
  -8   2  -6    0.02    0.09
  -8   2  -6    0.00    0.10
  -9  -2  -6   12.28    0.89
  -9  -2  -6   11.89    0.91
  -9   2  -6   13.01    0.86
   9   2   6   12.35    0.98
  -9   2  -6   12.76    0.89
  10  -2   6    0.99    0.19
 -10   2  -6    0.42    0.15
 -10   2  -6    0.58    0.14
  11  -2   6    7.90    0.69
 -11  -2  -6    7.70    0.62
 -11   2  -6    8.58    0.62
  11   2   6    7.83    0.69
 -11   2  -6    8.82    0.61
  15  -3  -6    2.07    0.28
 -15   3   6    1.47    0.19
 -14  -3   6    0.03    0.09
  14  -3  -6    0.07    0.13
 -14   3   6    0.04    0.08
 -13  -3   6    7.59    0.60
 -13  -3   6    7.78    0.53
  13  -3  -6    7.57    0.63
 -13   3   6    6.90    0.52
 -12  -3   6    0.02    0.12
 -12  -3   6   -0.03    0.09
 -12   3   6    0.12    0.08
 -12   3   6    0.07    0.11
 -11  -3   6    9.15    0.60
 -11  -3   6    8.08    0.67
 -11   3   6    8.28    0.59
 -11   3   6    9.43    0.67
 -10  -3   6    0.02    0.07
 -10  -3   6    0.06    0.07
 -10  -3   6    0.05    0.09
  10  -3  -6    0.06    0.07
 -10  -3   6    0.03    0.07
 -10   3   6   -0.04    0.06
 -10   3   6   -0.09    0.09
  -9  -3   6   12.55    0.92
  -9  -3   6   13.32    0.94
  -9  -3   6   13.97    0.90
   9  -3  -6   12.94    0.88
  -9  -3   6   13.54    1.01
  -9   3   6   15.58    1.01
  -9   3   6   14.80    0.90
   8  -3  -6    0.11    0.07
  -8  -3   6    0.06    0.06
  -8  -3   6    0.16    0.09
  -8  -3   6    0.08    0.07
  -8  -3   6    0.16    0.07
  -8   3   6    0.13    0.08
  -8   3   6    0.23    0.07
  -7  -3   6   56.72    4.03
  -7  -3   6   58.55    3.58
   7  -3  -6   59.42    4.00
  -7  -3   6   53.17    3.70
   7  -3  -6   56.17    3.52
  -7  -3   6   55.26    3.78
  -7   3   6   58.04    3.58
  -7   3   6   64.62    4.03
   7   3  -6   51.25    3.98
   6  -3  -6    0.06    0.07
   6  -3  -6    0.33    0.10
  -6  -3   6    0.09    0.06
  -6  -3   6    0.11    0.08
  -6  -3   6    0.02    0.06
  -6  -3   6    0.04    0.05
   6   3  -6    0.07    0.07
  -6   3   6    0.25    0.06
   6   3  -6   -0.10    0.06
  -6   3   6    0.11    0.07
  -5  -3   6    4.15    0.36
  -5  -3   6    4.08    0.32
   5  -3  -6    5.09    0.37
  -5  -3   6    4.56    0.33
   5  -3  -6    4.89    0.31
  -5  -3   6    4.39    0.30
  -5   3   6    4.63    0.35
  -5   3   6    5.07    0.31
   5   3  -6    3.92    0.34
   5   3  -6    4.04    0.33
  -4  -3   6    0.07    0.07
  -4  -3   6    0.02    0.06
  -4  -3   6    0.04    0.04
   4  -3  -6    0.09    0.06
   4  -3  -6    0.34    0.09
   4   3  -6    0.18    0.06
  -4   3   6    0.13    0.06
  -4   3   6    0.14    0.06
   4   3  -6    0.04    0.06
   3  -3  -6    2.13    0.21
  -3  -3   6    1.67    0.14
  -3  -3   6    1.85    0.18
  -3  -3   6    1.93    0.19
  -3  -3   6    1.59    0.18
   3  -3  -6    1.68    0.16
   3   3  -6    1.67    0.17
  -3   3   6    1.77    0.21
  -3   3   6    2.00    0.19
  -3   3   6    2.05    0.16
   3   3  -6    2.16    0.17
  -2  -3   6    0.29    0.06
  -2  -3   6    0.51    0.07
   2  -3  -6    0.48    0.10
  -2  -3   6    0.36    0.07
  -2  -3   6    0.37    0.09
   2  -3  -6    0.42    0.06
  -2   3   6    0.38    0.07
   2   3  -6    0.43    0.07
   2   3  -6    0.51    0.07
  -2   3   6    0.49    0.08
  -2   3   6    0.71    0.10
   1  -3  -6    2.13    0.19
  -1  -3   6    2.48    0.18
   1  -3  -6    2.21    0.19
  -1  -3   6    2.69    0.23
  -1  -3   6    2.51    0.21
   1   3  -6    2.73    0.22
  -1   3   6    2.95    0.22
  -1   3   6    3.02    0.25
   1   3  -6    2.60    0.21
  -1   3   6    3.26    0.21
   0  -3  -6    1.33    0.13
   0  -3   6    1.21    0.12
   0  -3   6    1.65    0.18
   0  -3  -6    1.27    0.13
   0  -3  -6    1.56    0.18
   0  -3   6    1.24    0.14
   0   3   6    1.80    0.17
   0   3   6    1.71    0.19
   0   3  -6    1.16    0.15
   0   3  -6    1.61    0.15
  -1  -3  -6   30.35    1.91
  -1  -3  -6   26.06    1.81
   1  -3   6   28.97    1.77
  -1  -3  -6   24.13    1.77
   1  -3   6   28.18    2.01
   1  -3   6   29.44    1.69
  -1   3  -6   25.10    1.90
   1   3   6   26.47    2.01
  -1   3  -6   25.20    1.81
  -1   3  -6   27.81    1.77
   2  -3   6    1.02    0.17
  -2  -3  -6    1.13    0.15
  -2  -3  -6    0.87    0.14
   2  -3   6    0.93    0.13
  -2  -3  -6    1.03    0.15
   2  -3   6    1.06    0.12
   2   3   6    1.01    0.12
  -2   3  -6    1.09    0.13
  -2   3  -6    0.92    0.14
  -2   3  -6    1.01    0.13
   3  -3   6   20.39    1.52
  -3  -3  -6   19.06    1.34
  -3  -3  -6   19.18    1.37
   3  -3   6   20.56    1.27
   3  -3   6   20.22    1.33
  -3  -3  -6   22.63    1.44
  -3   3  -6   19.58    1.44
   3   3   6   21.60    1.52
  -3   3  -6   21.30    1.34
  -3   3  -6   19.10    1.37
   4  -3   6    1.66    0.16
  -4  -3  -6    1.75    0.19
  -4  -3  -6    1.55    0.18
  -4  -3  -6    1.92    0.19
   4  -3   6    1.50    0.22
  -4   3  -6    1.19    0.18
  -4   3  -6    1.82    0.18
  -4   3  -6    2.17    0.18
   4   3   6    1.39    0.23
   5  -3   6    5.28    0.48
  -5  -3  -6    5.89    0.43
  -5  -3  -6    5.93    0.43
   5  -3   6    5.38    0.39
  -5  -3  -6    5.62    0.44
  -5   3  -6    5.95    0.44
  -5   3  -6    6.12    0.42
   5   3   6    5.53    0.48
  -5   3  -6    5.95    0.43
  -6  -3  -6    1.99    0.20
  -6  -3  -6    1.77    0.21
  -6  -3  -6    2.13    0.23
   6  -3   6    1.69    0.25
   6   3   6    1.61    0.25
  -6   3  -6    1.69    0.19
  -6   3  -6    1.82    0.20
  -6   3  -6    1.54    0.20
  -7  -3  -6    5.31    0.40
  -7  -3  -6    4.75    0.39
   7  -3   6    5.17    0.45
  -7  -3  -6    4.97    0.38
  -7   3  -6    4.26    0.37
   7   3   6    4.91    0.45
  -7   3  -6    4.79    0.38
  -8  -3  -6    1.51    0.23
  -8  -3  -6    1.30    0.18
   8  -3   6    1.59    0.27
   8   3   6    1.36    0.20
  -8   3  -6    1.36    0.18
  -8   3  -6    1.27    0.17
  -9  -3  -6    7.87    0.56
  -9  -3  -6    6.69    0.56
   9  -3   6    7.43    0.62
  -9   3  -6    6.16    0.53
   9   3   6    8.65    0.62
  -9   3  -6    6.53    0.54
  10  -3   6    3.42    0.37
 -10  -3  -6    2.78    0.31
 -10   3  -6    2.95    0.31
 -10   3  -6    3.03    0.31
  10   3   6    3.38    0.36
 -11  -3  -6    2.48    0.28
  11  -3   6    3.05    0.34
 -11   3  -6    2.29    0.29
 -11   3  -6    2.42    0.28
  14  -4  -6    2.40    0.31
 -14  -4   6    2.17    0.23
 -14   4   6    2.30    0.22
 -13  -4   6    0.02    0.12
 -13  -4   6    0.07    0.10
  13  -4  -6    0.14    0.14
 -13   4   6    0.05    0.08
 -12  -4   6    3.47    0.28
 -12  -4   6    2.95    0.32
 -12   4   6    3.09    0.26
 -11  -4   6    0.00    0.08
 -11  -4   6    0.04    0.10
 -11   4   6    0.01    0.10
 -11   4   6    0.05    0.07
  10  -4  -6    0.88    0.12
 -10  -4   6    0.81    0.12
 -10  -4   6    0.84    0.13
 -10  -4   6    1.05    0.15
 -10  -4   6    0.96    0.12
 -10   4   6    0.94    0.14
 -10   4   6    0.86    0.11
   9  -4  -6    0.02    0.07
  -9  -4   6   -0.08    0.07
  -9  -4   6    0.02    0.07
  -9  -4   6   -0.03    0.07
  -9  -4   6    0.01    0.08
  -9   4   6   -0.02    0.06
  -9   4   6    0.01    0.08
  -8  -4   6   48.93    2.81
  -8  -4   6   44.09    2.96
  -8  -4   6   42.02    2.90
  -8  -4   6   41.28    3.16
   8  -4  -6   42.63    2.76
   8  -4  -6   44.92    3.13
  -8   4   6   45.93    2.81
  -8   4   6   46.61    3.16
  -7  -4   6    0.11    0.08
   7  -4  -6    0.16    0.09
  -7  -4   6    0.16    0.07
   7  -4  -6    0.06    0.07
  -7  -4   6    0.08    0.06
  -7  -4   6    0.00    0.07
  -7   4   6    0.12    0.07
  -7   4   6    0.08    0.06
   6  -4  -6    6.12    0.41
  -6  -4   6    6.57    0.47
  -6  -4   6    6.26    0.41
  -6  -4   6    5.81    0.43
  -6  -4   6    6.18    0.43
   6  -4  -6    6.34    0.48
   6   4  -6    5.36    0.45
  -6   4   6    6.12    0.41
  -6   4   6    6.09    0.46
   6   4  -6    6.26    0.44
   5  -4  -6    0.46    0.08
  -5  -4   6    0.44    0.08
  -5  -4   6    0.46    0.06
   5  -4  -6    0.47    0.10
  -5  -4   6    0.32    0.09
   5   4  -6    0.41    0.08
  -5   4   6    0.44    0.08
  -5   4   6    0.47    0.07
  -4  -4   6   13.55    0.87
   4  -4  -6   14.65    0.99
  -4  -4   6   14.80    0.99
   4  -4  -6   13.03    0.87
  -4  -4   6   14.14    0.91
  -4   4   6   14.05    0.98
   4   4  -6   12.04    0.97
   4   4  -6   13.50    0.92
  -4   4   6   13.65    0.88
  -3  -4   6    0.66    0.09
   3  -4  -6    0.64    0.11
  -3  -4   6    0.53    0.07
   3  -4  -6    0.38    0.08
  -3  -4   6    0.47    0.07
  -3  -4   6    0.55    0.08
  -3   4   6    0.59    0.10
   3   4  -6    0.65    0.09
   3   4  -6    0.72    0.11
  -3   4   6    0.49    0.09
  -3   4   6    0.81    0.11
  -2  -4   6   10.88    0.79
  -2  -4   6   11.06    0.73
   2  -4  -6   11.22    0.70
   2  -4  -6   11.74    0.79
  -2   4   6   11.01    0.83
  -2   4   6   11.03    0.79
   2   4  -6   11.64    0.73
   2   4  -6    9.27    0.77
  -2   4   6   10.62    0.70
  -1  -4   6   -0.06    0.05
  -1  -4   6    0.12    0.05
   1  -4  -6    0.00    0.09
  -1   4   6    0.10    0.06
  -1   4   6   -0.14    0.07
   1   4  -6    0.05    0.06
  -1   4   6   -0.05    0.06
   1   4  -6   -0.11    0.05
   0  -4  -6   18.99    1.23
   0  -4   6   17.56    1.13
   0  -4   6   16.50    1.28
   0  -4  -6   15.91    1.15
   0  -4   6   18.23    1.08
   0  -4  -6   18.40    1.08
   0   4  -6   17.44    1.14
   0   4   6   17.36    1.10
   0   4   6   17.00    1.28
   0   4  -6   15.38    1.21
   0   4   6   17.11    1.23
   1  -4   6    2.20    0.20
  -1  -4  -6    2.74    0.22
   1  -4   6    2.42    0.24
  -1  -4  -6    2.33    0.20
   1  -4   6    2.29    0.20
  -1  -4  -6    2.22    0.18
   1   4   6    2.73    0.24
  -1   4  -6    2.18    0.21
  -1   4  -6    2.75    0.20
  -2  -4  -6    4.57    0.32
   2  -4   6    4.62    0.34
  -2  -4  -6    5.38    0.38
  -2  -4  -6    4.68    0.35
  -2  -4  -6    4.62    0.35
   2  -4   6    5.33    0.34
   2  -4   6    5.46    0.41
  -2   4  -6    4.97    0.35
   2   4   6    4.71    0.41
  -2   4  -6    4.26    0.35
  -2   4  -6    5.13    0.37
   3  -4   6    1.46    0.21
  -3  -4  -6    1.78    0.19
   3  -4   6    1.59    0.17
  -3  -4  -6    1.66    0.18
  -3  -4  -6    1.72    0.18
   3  -4   6    1.60    0.15
  -3   4  -6    1.63    0.17
  -3   4  -6    1.46    0.18
   3   4   6    1.76    0.21
  -3   4  -6    1.91    0.17
   4  -4   6    3.65    0.37
  -4  -4  -6    4.13    0.34
  -4  -4  -6    4.52    0.33
   4  -4   6    4.40    0.30
  -4  -4  -6    3.83    0.33
   4   4   6    4.07    0.38
  -4   4  -6    4.48    0.33
  -4   4  -6    4.09    0.33
  -4   4  -6    4.52    0.32
  -5  -4  -6    2.19    0.21
   5  -4   6    2.06    0.25
  -5  -4  -6    2.39    0.23
   5  -4   6    2.15    0.19
   5   4   6    1.88    0.25
  -5   4  -6    2.23    0.22
  -5   4  -6    2.04    0.20
  -5   4  -6    2.12    0.21
   6  -4   6    4.52    0.41
  -6  -4  -6    4.85    0.37
   6  -4   6    4.37    0.32
  -6  -4  -6    4.70    0.37
  -6   4  -6    4.51    0.36
   6   4   6    4.67    0.42
  -6   4  -6    4.58    0.36
  -7  -4  -6    0.75    0.14
  -7  -4  -6    0.73    0.12
   7  -4   6    0.79    0.16
   7   4   6    0.68    0.15
  -7   4  -6    0.71    0.12
  -7   4  -6    0.72    0.13
   8  -4   6    5.99    0.49
  -8  -4  -6    5.27    0.42
  -8  -4  -6    5.26    0.43
  -8   4  -6    5.08    0.42
  -8   4  -6    4.65    0.41
   8   4   6    5.23    0.48
  -9  -4  -6    1.01    0.18
   9  -4   6    1.54    0.22
  -9  -4  -6    1.34    0.18
   9   4   6    1.11    0.20
  -9   4  -6    1.20    0.17
  -9   4  -6    1.20    0.18
  10  -4   6   10.05    0.77
 -10  -4  -6    8.83    0.68
 -10   4  -6    9.35    0.68
  10   4   6    9.33    0.76
 -10   4  -6    8.57    0.66
  11  -4   6    1.26    0.22
 -11  -4  -6    1.01    0.18
 -11   4  -6    1.63    0.22
  11   4   6    1.69    0.27
 -11   4  -6    1.05    0.18
  14  -5  -6    0.22    0.15
 -14   5   6    0.29    0.09
  13  -5  -6    0.67    0.13
 -13  -5   6    0.47    0.12
 -13   5   6    0.52    0.10
 -12  -5   6    0.21    0.10
 -12  -5   6    0.13    0.11
  12  -5  -6    0.40    0.11
 -12   5   6    0.19    0.08
  11  -5  -6    0.02    0.08
 -11  -5   6    0.00    0.09
 -11  -5   6    0.28    0.10
 -11  -5   6    0.02    0.08
  11  -5  -6    0.04    0.10
 -11   5   6    0.05    0.07
 -10  -5   6    0.09    0.08
 -10  -5   6    0.13    0.08
 -10  -5   6    0.00    0.07
 -10  -5   6    0.16    0.09
  10  -5  -6   -0.01    0.08
  10  -5  -6    0.18    0.10
 -10   5   6    0.02    0.09
 -10   5   6    0.08    0.07
   9  -5  -6    0.04    0.07
  -9  -5   6    0.14    0.09
  -9  -5   6    0.01    0.08
  -9  -5   6    0.13    0.07
   9  -5  -6    0.05    0.10
  -9  -5   6    0.10    0.07
  -9   5   6    0.00    0.08
  -9   5   6    0.04    0.06
  -8  -5   6    0.16    0.08
  -8  -5   6    0.18    0.08
  -8  -5   6    0.16    0.07
   8  -5  -6    0.20    0.10
  -8  -5   6    0.22    0.09
   8  -5  -6    0.13    0.08
  -8   5   6    0.11    0.08
  -8   5   6    0.22    0.07
   7  -5  -6    0.11    0.10
  -7  -5   6    0.01    0.07
   7  -5  -6    0.06    0.07
  -7  -5   6   -0.03    0.08
  -7  -5   6    0.04    0.07
  -7  -5   6    0.08    0.06
  -7   5   6    0.03    0.06
  -7   5   6    0.00    0.07
  -6  -5   6   -0.01    0.06
  -6  -5   6   -0.07    0.04
  -6  -5   6   -0.01    0.07
   6  -5  -6   -0.03    0.09
  -6  -5   6   -0.01    0.08
   6  -5  -6   -0.06    0.06
   6   5  -6    0.01    0.07
  -6   5   6   -0.15    0.06
  -6   5   6    0.03    0.06
  -5  -5   6    0.00    0.06
   5  -5  -6    0.04    0.06
  -5  -5   6    0.00    0.08
  -5  -5   6    0.03    0.04
   5  -5  -6    0.03    0.09
  -5   5   6    0.07    0.06
  -5   5   6    0.02    0.05
   5   5  -6   -0.02    0.07
   4  -5  -6    0.04    0.08
   4  -5  -6   -0.02    0.06
  -4  -5   6    0.01    0.06
  -4  -5   6   -0.01    0.07
  -4  -5   6   -0.02    0.03
  -4   5   6    0.01    0.06
  -4   5   6    0.01    0.05
   4   5  -6   -0.04    0.07
   3  -5  -6    2.85    0.22
  -3  -5   6    3.10    0.24
  -3  -5   6    3.11    0.25
   3  -5  -6    3.04    0.27
   3   5  -6    2.58    0.24
  -3   5   6    3.10    0.22
  -3   5   6    2.79    0.28
  -3   5   6    2.57    0.24
  -2  -5   6    3.60    0.27
   2  -5  -6    3.75    0.30
   2  -5  -6    3.03    0.26
  -2  -5   6    3.53    0.30
  -2   5   6    3.28    0.28
  -2   5   6    3.77    0.31
   2   5  -6    3.70    0.28
  -2   5   6    3.84    0.26
  -1  -5   6    1.29    0.15
  -1  -5   6    1.34    0.15
   1  -5  -6    1.48    0.18
   1  -5  -6    1.37    0.13
  -1  -5   6    1.07    0.14
   1  -5  -6    1.24    0.14
   1   5  -6    1.17    0.13
  -1   5   6    1.18    0.14
   1   5  -6    1.41    0.15
  -1   5   6    1.52    0.14
  -1   5   6    1.44    0.18
   0  -5  -6    1.53    0.19
   0  -5   6    1.70    0.16
   0  -5  -6    1.45    0.15
   0  -5   6    1.73    0.16
   0  -5   6    1.51    0.17
   0  -5  -6    1.53    0.15
   0   5   6    1.92    0.17
   0   5   6    1.46    0.15
   0   5  -6    1.36    0.15
   0   5  -6    1.53    0.16
   0   5   6    1.84    0.19
  -1  -5  -6    0.20    0.08
   1  -5   6    0.18    0.06
   1  -5   6    0.27    0.07
  -1  -5  -6    0.18    0.07
  -1  -5  -6    0.21    0.06
   1  -5   6    0.22    0.07
  -1   5  -6    0.28    0.06
  -1   5  -6    0.19    0.06
   1   5   6    0.22    0.08
   2  -5   6    3.19    0.29
  -2  -5  -6    2.87    0.25
  -2  -5  -6    3.04    0.22
  -2  -5  -6    3.52    0.28
   2  -5   6    3.17    0.25
   2  -5   6    3.38    0.25
   2   5   6    3.23    0.29
  -2   5  -6    3.42    0.25
  -2   5  -6    3.09    0.25
  -2   5  -6    3.19    0.26
  -3  -5  -6    0.27    0.08
   3  -5   6    0.19    0.09
  -3  -5  -6    0.21    0.08
   3  -5   6    0.23    0.08
   3  -5   6    0.20    0.06
  -3   5  -6    0.33    0.08
  -3   5  -6    0.21    0.07
  -3   5  -6    0.23    0.07
   3   5   6    0.15    0.09
  -4  -5  -6    1.59    0.18
   4  -5   6    1.57    0.18
   4  -5   6    1.45    0.17
  -4  -5  -6    1.96    0.19
  -4   5  -6    1.84    0.18
  -4   5  -6    1.80    0.17
   4   5   6    1.36    0.18
  -4   5  -6    1.49    0.18
  -5  -5  -6    2.04    0.21
   5  -5   6    2.14    0.19
  -5  -5  -6    2.15    0.21
   5  -5   6    1.89    0.24
  -5   5  -6    2.05    0.20
  -5   5  -6    1.88    0.20
   5   5   6    1.88    0.24
   6  -5   6    1.46    0.17
  -6  -5  -6    1.80    0.21
   6  -5   6    1.32    0.18
  -6  -5  -6    1.51    0.18
  -6   5  -6    1.65    0.18
   6   5   6    1.30    0.23
  -6   5  -6    1.38    0.19
   7  -5   6    0.13    0.13
  -7  -5  -6    0.20    0.09
  -7  -5  -6    0.17    0.12
   7   5   6    0.18    0.13
  -7   5  -6    0.02    0.08
  -7   5  -6    0.14    0.09
  -8  -5  -6    6.98    0.57
  -8  -5  -6    7.12    0.56
   8  -5   6    7.45    0.64
  -8   5  -6    7.58    0.55
   8   5   6    7.52    0.62
  -8   5  -6    7.97    0.55
   9  -5   6    0.20    0.15
  -9  -5  -6    0.02    0.09
  -9  -5  -6   -0.16    0.12
   9   5   6   -0.06    0.15
  -9   5  -6   -0.02    0.09
  -9   5  -6    0.09    0.10
  10  -5   6    9.66    0.79
 -10  -5  -6    9.11    0.70
 -10   5  -6    9.80    0.68
 -10   5  -6    9.78    0.70
  10   5   6    9.23    0.77
 -11  -5  -6    0.16    0.14
  11  -5   6    0.59    0.17
 -11   5  -6    0.14    0.11
 -11   5  -6    0.28    0.13
  14  -6  -6    1.71    0.27
 -14   6   6    1.66    0.18
  13  -6  -6    0.41    0.11
  13  -6  -6    0.24    0.15
 -13   6   6    0.16    0.08
 -12  -6   6    2.10    0.22
 -12  -6   6    1.58    0.26
  12  -6  -6    2.45    0.24
 -12   6   6    2.20    0.20
 -11  -6   6    0.15    0.10
  11  -6  -6    0.13    0.10
 -11  -6   6   -0.06    0.10
 -11  -6   6   -0.01    0.09
  11  -6  -6    0.15    0.09
 -11   6   6    0.02    0.07
 -10  -6   6    0.77    0.13
 -10  -6   6    0.99    0.12
  10  -6  -6    0.88    0.12
 -10  -6   6    0.69    0.11
  10  -6  -6    0.94    0.15
 -10  -6   6    0.73    0.12
 -10   6   6    0.70    0.11
 -10   6   6    0.86    0.14
  -9  -6   6    0.10    0.09
   9  -6  -6    0.02    0.09
  -9  -6   6    0.06    0.07
   9  -6  -6   -0.06    0.07
  -9  -6   6    0.00    0.07
  -9  -6   6   -0.05    0.09
  -9   6   6   -0.03    0.09
  -9   6   6   -0.03    0.06
   8  -6  -6    3.51    0.28
  -8  -6   6    3.30    0.30
   8  -6  -6    3.89    0.32
  -8  -6   6    3.59    0.32
  -8  -6   6    3.98    0.28
  -8  -6   6    3.59    0.29
  -8   6   6    3.76    0.32
  -8   6   6    3.74    0.28
  -7  -6   6    0.07    0.08
   7  -6  -6    0.02    0.09
   7  -6  -6    0.04    0.07
  -7  -6   6   -0.03    0.07
  -7  -6   6    0.06    0.09
  -7  -6   6    0.07    0.05
   7   6  -6    0.04    0.08
  -7   6   6    0.01    0.06
  -7   6   6   -0.02    0.07
  -6  -6   6    2.31    0.25
  -6  -6   6    2.80    0.23
   6  -6  -6    2.78    0.26
   6  -6  -6    2.82    0.23
  -6  -6   6    2.82    0.25
  -6   6   6    2.70    0.22
  -6   6   6    2.50    0.24
   6   6  -6    3.09    0.26
   5  -6  -6    0.35    0.10
   5  -6  -6    0.30    0.08
  -5  -6   6    0.32    0.08
  -5  -6   6    0.27    0.09
  -5   6   6    0.23    0.07
   5   6  -6    0.28    0.09
  -5   6   6    0.27    0.07
   4  -6  -6    9.96    0.72
  -4  -6   6   10.00    0.72
  -4  -6   6   10.13    0.67
   4  -6  -6   10.35    0.64
  -4   6   6    9.37    0.64
   4   6  -6    9.96    0.68
  -4   6   6    8.95    0.71
  -3  -6   6    0.11    0.06
  -3  -6   6    0.14    0.08
   3  -6  -6    0.04    0.09
   3  -6  -6    0.00    0.06
  -3   6   6    0.01    0.06
   3   6  -6    0.03    0.07
  -3   6   6   -0.11    0.07
  -3   6   6    0.09    0.05
  -2  -6   6    8.27    0.60
   2  -6  -6    7.78    0.60
  -2  -6   6    7.77    0.53
   2  -6  -6    8.30    0.53
  -2  -6   6    8.38    0.55
   2   6  -6    8.28    0.56
  -2   6   6    7.79    0.63
  -2   6   6    7.90    0.53
   1  -6  -6    0.37    0.08
  -1  -6   6    0.36    0.08
   1  -6  -6    0.25    0.06
   1  -6  -6    0.28    0.10
  -1  -6   6    0.33    0.07
   1   6  -6    0.42    0.08
  -1   6   6    0.30    0.08
  -1   6   6    0.39    0.07
   0  -6   6    4.84    0.34
   0  -6  -6    4.32    0.32
   0  -6  -6    4.51    0.34
   0  -6   6    5.18    0.33
   0  -6   6    4.26    0.36
   0  -6  -6    4.97    0.37
   0   6  -6    4.13    0.34
   0   6   6    5.02    0.38
   0   6   6    4.43    0.33
  -1  -6  -6    3.86    0.29
  -1  -6  -6    4.33    0.32
   1  -6   6    4.30    0.32
   1  -6   6    3.90    0.31
   1  -6   6    4.11    0.35
  -1  -6  -6    4.16    0.34
   1   6   6    4.70    0.36
  -1   6  -6    4.75    0.32
  -2  -6  -6    5.15    0.40
  -2  -6  -6    6.31    0.47
  -2  -6  -6    6.39    0.44
   2  -6   6    5.90    0.49
   2  -6   6    6.46    0.43
   2  -6   6    6.39    0.42
  -2   6  -6    6.46    0.46
   2   6   6    6.17    0.49
  -2   6  -6    6.24    0.43
   3  -6   6    0.28    0.07
   3  -6   6    0.26    0.09
  -3  -6  -6    0.64    0.09
  -3  -6  -6    0.40    0.10
   3  -6   6    0.22    0.10
  -3   6  -6    0.43    0.08
  -3   6  -6    0.45    0.08
   3   6   6    0.40    0.11
  -4  -6  -6    0.96    0.13
   4  -6   6    0.97    0.12
  -4  -6  -6    0.94    0.12
   4  -6   6    0.93    0.14
  -4   6  -6    0.91    0.11
  -4   6  -6    1.08    0.15
   4   6   6    0.70    0.14
  -5  -6  -6    0.29    0.11
   5  -6   6    0.22    0.11
  -5  -6  -6    0.28    0.10
   5  -6   6    0.29    0.09
  -5   6  -6    0.33    0.08
  -5   6  -6    0.31    0.08
   5   6   6    0.15    0.12
  -6  -6  -6    1.07    0.16
  -6  -6  -6    0.94    0.14
   6  -6   6    1.07    0.13
   6  -6   6    1.01    0.15
  -6   6  -6    0.88    0.13
   6   6   6    0.90    0.16
  -6   6  -6    0.90    0.13
  -7  -6  -6    2.56    0.25
   7  -6   6    2.67    0.23
  -7  -6  -6    2.51    0.26
   7  -6   6    2.60    0.30
  -7   6  -6    2.45    0.25
   7   6   6    2.74    0.30
  -7   6  -6    2.43    0.25
  -8  -6  -6    2.61    0.27
   8  -6   6    3.27    0.35
  -8  -6  -6    3.05    0.29
  -8   6  -6    2.74    0.28
  -8   6  -6    2.71    0.27
   8   6   6    2.93    0.32
  -9  -6  -6    0.93    0.17
   9  -6   6    1.22    0.20
  -9  -6  -6    0.95    0.16
  -9   6  -6    0.75    0.15
  -9   6  -6    1.08    0.16
  10  -6   6    3.05    0.33
 -10  -6  -6    2.52    0.28
 -10   6  -6    2.43    0.27
 -10   6  -6    2.33    0.28
 -11  -6  -6    3.51    0.35
 -11   6  -6    4.15    0.35
 -14   7   6    0.31    0.09
  13  -7  -6    3.59    0.37
 -13   7   6    3.02    0.26
  12  -7  -6    0.02    0.10
 -12   7   6   -0.01    0.07
  11  -7  -6    4.63    0.38
  11  -7  -6    4.61    0.34
 -11  -7   6    4.73    0.36
 -11   7   6    4.09    0.33
 -10  -7   6    0.04    0.09
  10  -7  -6    0.07    0.10
  10  -7  -6    0.11    0.08
 -10  -7   6   -0.05    0.09
 -10   7   6   -0.01    0.07
   9  -7  -6    5.89    0.46
  -9  -7   6    5.46    0.43
  -9  -7   6    5.61    0.42
   9  -7  -6    5.86    0.41
  -9  -7   6    5.97    0.45
  -9   7   6    5.47    0.40
  -8  -7   6    0.33    0.09
  -8  -7   6    0.20    0.09
  -8  -7   6    0.09    0.09
   8  -7  -6    0.18    0.10
   8  -7  -6    0.16    0.08
   8   7  -6    0.15    0.09
  -8   7   6    0.25    0.09
  -8   7   6    0.14    0.07
   7  -7  -6   18.73    1.16
  -7  -7   6   17.60    1.32
  -7  -7   6   18.43    1.24
  -7  -7   6   18.28    1.21
   7  -7  -6   18.09    1.31
  -7   7   6   18.60    1.32
  -7   7   6   18.74    1.18
   7   7  -6   17.90    1.22
  -6  -7   6   -0.02    0.08
  -6  -7   6    0.02    0.07
   6  -7  -6   -0.03    0.07
   6  -7  -6    0.02    0.09
   6   7  -6   -0.06    0.08
  -6   7   6   -0.04    0.06
  -6   7   6   -0.02    0.06
   5  -7  -6   10.92    0.86
   5  -7  -6   12.31    0.76
  -5  -7   6   11.36    0.86
  -5  -7   6   12.27    0.79
   5   7  -6   12.60    0.81
  -5   7   6   11.23    0.76
  -4  -7   6    0.09    0.07
   4  -7  -6    0.05    0.09
  -4  -7   6    0.02    0.08
   4  -7  -6   -0.01    0.07
  -4   7   6    0.13    0.06
   4   7  -6    0.05    0.08
  -3  -7   6    6.89    0.56
   3  -7  -6    7.46    0.51
  -3  -7   6    8.14    0.53
   3  -7  -6    7.23    0.57
  -3   7   6    7.77    0.50
   3   7  -6    7.82    0.54
   2  -7  -6    0.21    0.07
   2  -7  -6    0.23    0.10
  -2  -7   6    0.24    0.09
  -2  -7   6    0.37    0.08
  -2  -7   6    0.22    0.08
  -2   7   6    0.29    0.07
   2   7  -6    0.22    0.09
  -2   7   6    0.22    0.09
  -1  -7   6    9.47    0.63
  -1  -7   6   10.20    0.66
   1  -7  -6   10.10    0.71
   1  -7  -6    9.42    0.63
  -1   7   6   10.02    0.74
  -1   7   6    9.17    0.63
   1   7  -6    9.41    0.66
   0  -7   6    0.57    0.10
   0  -7  -6    1.00    0.14
   0  -7   6    0.53    0.10
   0  -7  -6    1.00    0.16
   0  -7  -6    0.64    0.09
   0   7  -6    1.01    0.14
   0   7   6    1.04    0.17
   1  -7   6   38.02    2.09
  -1  -7  -6   30.99    2.35
   1  -7   6   34.72    2.19
  -1  -7  -6   34.33    2.08
  -1  -7  -6   33.50    2.23
   1   7   6   33.14    2.48
  -1   7  -6   34.44    2.19
   1   7   6   28.84    2.12
   2  -7   6    0.41    0.09
  -2  -7  -6    0.47    0.10
   2  -7   6    0.38    0.09
   2  -7   6    0.32    0.08
  -2   7  -6    0.45    0.08
   2   7   6    0.41    0.10
   3  -7   6    5.05    0.39
  -3  -7  -6    5.68    0.42
   3  -7   6    5.67    0.38
  -3  -7  -6    5.43    0.40
   3  -7   6    4.83    0.44
  -3   7  -6    5.46    0.40
  -3   7  -6    5.36    0.39
   3   7   6    5.79    0.45
   4  -7   6   -0.02    0.09
  -4  -7  -6    0.14    0.09
   4  -7   6   -0.07    0.08
  -4  -7  -6   -0.01    0.09
  -4   7  -6   -0.07    0.07
   4   7   6   -0.07    0.10
  -4   7  -6    0.02    0.06
  -5  -7  -6    3.82    0.34
  -5  -7  -6    4.00    0.34
   5  -7   6    4.50    0.32
   5  -7   6    3.96    0.37
  -5   7  -6    4.24    0.33
  -5   7  -6    4.07    0.32
   5   7   6    4.02    0.38
  -6  -7  -6    0.21    0.10
   6  -7   6   -0.01    0.11
   6  -7   6    0.00    0.09
  -6  -7  -6    0.10    0.11
   6   7   6   -0.05    0.12
  -6   7  -6    0.00    0.08
  -6   7  -6    0.01    0.08
  -7  -7  -6    6.76    0.50
  -7  -7  -6    6.43    0.50
   7  -7   6    6.88    0.55
   7  -7   6    6.68    0.46
  -7   7  -6    5.60    0.49
  -7   7  -6    6.39    0.49
  -8  -7  -6    0.15    0.11
  -8  -7  -6    0.23    0.14
   8  -7   6    0.36    0.15
  -8   7  -6    0.07    0.10
  -8   7  -6    0.26    0.10
  -9  -7  -6    2.18    0.25
   9  -7   6    2.55    0.29
  -9   7  -6    1.78    0.23
  -9   7  -6    1.51    0.24
  10  -7   6    0.94    0.18
 -10  -7  -6    0.87    0.16
 -10   7  -6    1.32    0.19
  13  -8  -6    0.64    0.16
 -13   8   6    0.35    0.09
 -12  -8   6    1.11    0.15
  12  -8  -6    0.94    0.16
  12  -8  -6    0.86    0.14
 -12   8   6    0.94    0.14
 -11  -8   6    0.47    0.12
  11  -8  -6    0.43    0.10
  11  -8  -6    0.57    0.13
  11   8  -6    0.37    0.12
 -11   8   6    0.40    0.09
 -10  -8   6    0.35    0.11
  10  -8  -6    0.46    0.11
  10  -8  -6    0.30    0.11
  10   8  -6    0.20    0.11
 -10   8   6    0.31    0.08
  -9  -8   6    0.29    0.09
   9  -8  -6    0.24    0.09
   9  -8  -6    0.16    0.11
  -9  -8   6    0.37    0.11
  -9   8   6    0.24    0.08
   9   8  -6    0.21    0.11
   8  -8  -6   19.22    1.20
  -8  -8   6   17.90    1.25
   8  -8  -6   18.75    1.35
  -8  -8   6   20.01    1.28
   8   8  -6   18.59    1.26
  -8   8   6   18.42    1.21
   7  -8  -6    0.04    0.10
   7  -8  -6   -0.02    0.08
  -7  -8   6    0.04    0.08
  -7   8   6    0.02    0.07
   7   8  -6   -0.03    0.09
   6  -8  -6    1.24    0.19
  -6  -8   6    1.47    0.17
   6  -8  -6    1.32    0.17
  -6  -8   6    1.24    0.17
  -6   8   6    1.14    0.15
   6   8  -6    1.41    0.19
  -5  -8   6   -0.02    0.07
  -5  -8   6   -0.18    0.08
   5  -8  -6   -0.06    0.09
   5  -8  -6   -0.02    0.07
   5   8  -6    0.00    0.08
  -5   8   6    0.00    0.06
   4  -8  -6    1.37    0.20
  -4  -8   6    1.32    0.16
  -4  -8   6    1.40    0.17
   4  -8  -6    1.33    0.17
  -4   8   6    1.51    0.15
   4   8  -6    1.34    0.19
   3  -8  -6   -0.05    0.09
  -3  -8   6   -0.05    0.07
   3  -8  -6    0.00    0.07
  -3  -8   6   -0.02    0.06
  -3  -8   6    0.00    0.07
   3   8  -6   -0.05    0.08
  -3   8   6   -0.01    0.06
  -2  -8   6   13.30    0.80
  -2  -8   6   12.00    0.90
   2  -8  -6   12.87    0.80
   2  -8  -6   11.33    0.90
  -2  -8   6   13.79    0.84
  -2   8   6   11.26    0.80
   2   8  -6   12.69    0.85
  -1  -8   6    0.12    0.07
   1  -8  -6    0.16    0.08
  -1  -8   6    0.09    0.07
   1  -8  -6   -0.01    0.10
  -1   8   6    0.10    0.06
   1   8  -6    0.07    0.08
  -1   8   6   -0.01    0.09
   0  -8   6   15.60    1.04
   0  -8  -6   16.56    1.04
   0  -8   6   17.57    1.09
   0  -8  -6   16.35    1.17
   0  -8  -6   15.67    1.11
   0   8  -6   16.96    1.10
   0   8   6   16.79    1.23
   0   8   6   15.83    1.05
  -1  -8  -6    1.68    0.19
   1  -8   6    1.60    0.18
  -1  -8  -6    1.58    0.18
   1  -8   6    1.79    0.18
  -1  -8  -6    1.59    0.18
  -1  -8  -6    1.69    0.16
   1   8   6    1.70    0.21
  -1   8  -6    1.64    0.18
   1   8   6    1.42    0.18
   2  -8   6    0.67    0.10
  -2  -8  -6    0.88    0.13
   2  -8   6    0.82    0.12
  -2  -8  -6    0.95    0.11
  -2  -8  -6    0.83    0.12
  -2   8  -6    0.71    0.10
   2   8   6    0.71    0.12
   2   8   6    0.67    0.11
   3  -8   6    0.75    0.11
  -3  -8  -6    0.78    0.11
  -3  -8  -6    0.89    0.12
   3  -8   6    0.62    0.11
   3   8   6    0.57    0.12
  -3   8  -6    0.81    0.11
  -3   8  -6    0.77    0.11
  -4  -8  -6    1.59    0.19
   4  -8   6    1.89    0.21
   4  -8   6    1.57    0.20
  -4  -8  -6    1.77    0.20
   4   8   6    1.56    0.22
  -4   8  -6    1.73    0.19
  -4   8  -6    1.78    0.19
   5  -8   6    1.45    0.16
  -5  -8  -6    1.35    0.19
  -5  -8  -6    1.26    0.16
   5  -8   6    1.24    0.21
  -5   8  -6    1.49    0.18
  -5   8  -6    1.48    0.17
   6  -8   6    0.64    0.13
  -6  -8  -6    0.59    0.12
   6  -8   6    0.63    0.12
  -6  -8  -6    0.45    0.12
  -6   8  -6    0.38    0.10
  -6   8  -6    0.45    0.12
   7  -8   6    2.34    0.27
  -7  -8  -6    2.08    0.24
   7  -8   6    2.23    0.23
  -7  -8  -6    1.82    0.22
  -7   8  -6    1.81    0.22
  -7   8  -6    1.83    0.23
  -8  -8  -6    3.47    0.34
   8  -8   6    4.24    0.38
  -8   8  -6    3.67    0.32
  -8   8  -6    3.74    0.34
   9  -8   6    3.18    0.32
  -9  -8  -6    2.52    0.28
  -9   8  -6    2.80    0.27
  -9   8  -6    2.41    0.28
  10  -8   6    5.88    0.49
 -10  -8  -6    5.20    0.44
 -10   8  -6    5.09    0.43
 -10   8  -6    5.63    0.44
  12  -9  -6    0.35    0.11
 -12  -9   6    0.51    0.13
 -12   9   6    0.34    0.09
  12   9  -6    0.60    0.12
 -11  -9   6    0.01    0.12
  11  -9  -6    0.08    0.11
  11  -9  -6    0.22    0.11
  11   9  -6    0.16    0.10
 -11   9   6    0.15    0.08
 -10  -9   6   -0.05    0.11
  10  -9  -6    0.16    0.09
  10  -9  -6    0.06    0.10
  10   9  -6    0.12    0.09
 -10   9   6    0.10    0.07
   9  -9  -6    0.91    0.15
   9  -9  -6    0.77    0.13
  -9  -9   6    0.71    0.11
   9   9  -6    0.91    0.14
  -9   9   6    0.65    0.10
   8  -9  -6    0.26    0.10
  -8  -9   6    0.25    0.10
   8  -9  -6    0.43    0.12
  -8   9   6    0.35    0.08
   8   9  -6    0.42    0.12
   7  -9  -6    0.69    0.11
  -7  -9   6    0.65    0.12
   7  -9  -6    0.54    0.14
  -7   9   6    0.46    0.09
  -6  -9   6   -0.01    0.08
   6  -9  -6   -0.14    0.10
   6  -9  -6   -0.01    0.08
   6   9  -6   -0.02    0.09
  -6   9   6   -0.03    0.06
   5  -9  -6    0.05    0.11
  -5  -9   6    0.04    0.08
   5  -9  -6   -0.02    0.08
   5   9  -6   -0.01    0.09
  -5   9   6    0.03    0.06
  -4  -9   6    0.25    0.08
   4  -9  -6    0.24    0.09
   4  -9  -6    0.21    0.11
   4   9  -6    0.36    0.10
  -4   9   6    0.24    0.07
   3  -9  -6    2.56    0.25
   3  -9  -6    2.78    0.23
  -3  -9   6    2.14    0.22
  -3  -9   6    2.67    0.24
   3   9  -6    3.02    0.25
  -3   9   6    2.54    0.21
   2  -9  -6    0.62    0.10
  -2  -9   6    0.62    0.10
  -2  -9   6    0.56    0.10
   2  -9  -6    0.42    0.12
  -2   9   6    0.56    0.09
   2   9  -6    0.48    0.11
  -1  -9   6    3.38    0.27
  -1  -9   6    3.46    0.25
  -1  -9   6    2.89    0.27
   1  -9  -6    3.37    0.26
   1  -9  -6    2.73    0.27
  -1   9   6    3.03    0.24
   1   9  -6    2.93    0.27
  -1   9   6    3.00    0.29
   0  -9  -6    1.20    0.17
   0  -9  -6    1.09    0.16
   0  -9   6    1.15    0.16
   0  -9  -6    1.19    0.15
   0  -9   6    1.00    0.13
   0   9  -6    1.41    0.17
   0   9   6    1.16    0.15
   0   9   6    1.40    0.20
  -1  -9  -6    0.14    0.08
  -1  -9  -6    0.04    0.08
  -1  -9  -6    0.09    0.07
   1  -9   6    0.08    0.08
  -1  -9  -6    0.03    0.06
   1  -9   6    0.04    0.07
   1   9   6   -0.04    0.08
   1   9   6    0.04    0.08
  -1   9  -6    0.06    0.07
  -2  -9  -6    0.87    0.11
   2  -9   6    0.92    0.12
   2  -9   6    1.00    0.13
  -2  -9  -6    1.12    0.17
  -2  -9  -6    1.09    0.15
   2   9   6    1.04    0.13
  -2   9  -6    1.12    0.15
   3  -9   6    0.54    0.10
   3  -9   6    0.50    0.11
  -3  -9  -6    0.63    0.11
  -3  -9  -6    0.63    0.10
  -3   9  -6    0.45    0.09
  -3   9  -6    0.48    0.10
  -4  -9  -6    1.29    0.17
  -4  -9  -6    0.67    0.13
   4  -9   6    0.63    0.13
  -4   9  -6    0.74    0.12
  -4   9  -6    0.72    0.11
   5  -9   6    0.79    0.13
  -5  -9  -6    0.92    0.13
  -5   9  -6    0.80    0.13
  -5   9  -6    0.77    0.12
   6  -9   6    0.49    0.12
  -6  -9  -6    0.65    0.12
  -6   9  -6    0.30    0.10
  -6   9  -6    0.43    0.11
  -7  -9  -6    0.40    0.13
   7  -9   6    0.12    0.11
  -7   9  -6   -0.02    0.08
  -7   9  -6    0.04    0.10
  -8  -9  -6    4.95    0.41
  -8   9  -6    5.00    0.40
  -8   9  -6    5.39    0.42
  -9  -9  -6    1.34    0.21
  -9   9  -6    1.40    0.21
  -9   9  -6    1.33    0.20
  12 -10  -6    3.94    0.33
  12  10  -6    4.42    0.36
  11 -10  -6    0.17    0.13
  11 -10  -6    0.02    0.10
  11  10  -6    0.10    0.10
  10 -10  -6    2.22    0.24
  10 -10  -6    2.35    0.27
  10 -10  -6    2.68    0.25
  10  10  -6    2.68    0.27
  -9 -10   6    0.10    0.09
   9 -10  -6    0.17    0.09
  -9  10   6    0.08    0.07
   9  10  -6    0.13    0.10
  -8 -10   6    5.16    0.39
   8 -10  -6    4.96    0.43
   8 -10  -6    5.06    0.38
  -8  10   6    5.00    0.36
   8  10  -6    5.23    0.41
   7 -10  -6    0.06    0.09
  -7 -10   6    0.03    0.09
   7 -10  -6   -0.10    0.12
   7  10  -6   -0.02    0.10
  -7  10   6    0.04    0.06
   6 -10  -6    8.93    0.71
   6 -10  -6    9.57    0.64
  -6 -10   6    9.75    0.67
   6  10  -6   10.22    0.68
  -6  10   6    9.17    0.63
   5 -10  -6   -0.04    0.11
  -5 -10   6    0.03    0.09
   5 -10  -6    0.03    0.08
  -5  10   6    0.01    0.06
   5  10  -6    0.10    0.10
   4 -10  -6    3.79    0.37
  -4 -10   6    4.79    0.35
   4 -10  -6    4.79    0.34
  -4  10   6    4.21    0.32
   4  10  -6    4.75    0.36
  -3 -10   6    0.10    0.08
   3 -10  -6    0.19    0.09
  -3 -10   6    0.09    0.08
   3 -10  -6   -0.01    0.11
  -3  10   6    0.15    0.07
   3  10  -6    0.16    0.09
   2 -10  -6    1.70    0.21
  -2 -10   6    1.94    0.21
   2 -10  -6    2.14    0.21
  -2 -10   6    1.86    0.20
   2 -10  -6    2.24    0.22
   2  10  -6    1.97    0.22
  -2  10   6    2.09    0.18
  -1 -10   6    0.00    0.08
   1 -10  -6   -0.03    0.08
   1 -10  -6    0.04    0.09
   1 -10  -6    0.08    0.08
  -1 -10   6    0.00    0.08
   1  10  -6   -0.15    0.07
  -1  10   6    0.03    0.07
   0 -10  -6    9.71    0.77
   0 -10  -6   10.61    0.69
   0 -10  -6   10.71    0.73
   0 -10   6   10.75    0.73
   0 -10   6   10.76    0.70
   0  10   6   10.48    0.70
   0  10  -6   11.17    0.73
  -1 -10  -6    0.34    0.09
   1 -10   6    0.35    0.10
   1 -10   6    0.22    0.09
   1  10   6    0.25    0.09
  -1  10  -6    0.24    0.09
   2 -10   6    8.61    0.55
  -2 -10  -6    7.87    0.56
   2 -10   6    8.28    0.57
  -2 -10  -6    7.67    0.58
   2  10   6    8.02    0.55
  -2  10  -6    8.03    0.57
   3 -10   6    0.04    0.09
   3 -10   6   -0.01    0.08
  -3 -10  -6    0.15    0.10
   3  10   6    0.00    0.11
  -3  10  -6   -0.01    0.07
  -4 -10  -6    1.33    0.18
   4 -10   6    1.21    0.15
  -4  10  -6    1.24    0.17
  -4  10  -6    1.12    0.17
   4  10   6    1.08    0.17
  -5 -10  -6    0.08    0.10
   5 -10   6   -0.12    0.10
  -5  10  -6   -0.04    0.08
  -5  10  -6   -0.07    0.08
   6 -10   6    1.75    0.21
  -6 -10  -6    1.30    0.20
  -6  10  -6    1.50    0.19
  -6  10  -6    1.27    0.18
   7 -10   6    0.88    0.15
  -7  10  -6    0.99    0.16
  -7  10  -6    0.73    0.13
  -8 -10  -6    3.08    0.30
  -8  10  -6    3.35    0.30
  -8  10  -6    3.52    0.31
  11 -11  -6    0.53    0.13
  11  11  -6    0.96    0.15
  10 -11  -6    0.24    0.10
  10 -11  -6    0.03    0.09
  10  11  -6    0.15    0.10
   9 -11  -6    3.43    0.31
  -9 -11   6    3.93    0.32
   9 -11  -6    4.03    0.33
   9 -11  -6    3.10    0.35
   9  11  -6    4.13    0.34
   8 -11  -6    0.20    0.10
   8 -11  -6    0.16    0.10
  -8 -11   6   -0.05    0.09
   8 -11  -6   -0.21    0.13
   8  11  -6    0.03    0.11
   7 -11  -6    6.07    0.47
   7 -11  -6    5.69    0.49
  -7 -11   6    5.92    0.46
   7 -11  -6    5.78    0.44
   7  11  -6    6.74    0.47
  -6 -11   6    0.16    0.11
   6 -11  -6    0.26    0.11
   6 -11  -6    0.32    0.11
   6  11  -6    0.33    0.11
  -6  11   6    0.20    0.08
   5 -11  -6    0.49    0.12
   5 -11  -6    0.47    0.11
  -5 -11   6    0.44    0.11
   5  11  -6    0.43    0.11
  -5  11   6    0.44    0.08
  -4 -11   6    0.05    0.09
   4 -11  -6    0.10    0.10
   4 -11  -6    0.06    0.09
   4  11  -6   -0.04    0.09
  -4  11   6   -0.03    0.07
  -3 -11   6    1.38    0.18
   3 -11  -6    1.71    0.21
  -3 -11   6    1.64    0.20
   3 -11  -6    1.42    0.19
   3  11  -6    1.62    0.21
  -3  11   6    1.54    0.16
  -2 -11   6   -0.06    0.09
  -2 -11   6   -0.05    0.08
   2 -11  -6    0.08    0.09
   2 -11  -6   -0.05    0.09
  -2  11   6    0.03    0.06
   2  11  -6   -0.09    0.09
   1 -11  -6    1.51    0.19
  -1 -11   6    1.38    0.18
   1 -11  -6    1.46    0.18
  -1 -11   6    1.20    0.17
   1  11  -6    1.18    0.18
  -1  11   6    1.14    0.16
   0 -11  -6    0.45    0.09
   0 -11  -6    0.22    0.09
   0 -11   6    0.06    0.09
   0 -11   6    0.19    0.10
   0  11  -6    0.24    0.09
   0  11   6    0.14    0.08
   1 -11   6    3.99    0.29
   1 -11   6    3.18    0.29
  -1 -11  -6    3.42    0.29
  -1  11  -6    3.33    0.29
   1  11   6    3.50    0.28
   2 -11   6    0.78    0.13
  -2 -11  -6    0.74    0.12
   2 -11   6    0.77    0.12
   2  11   6    0.75    0.12
  -2  11  -6    0.79    0.12
   3 -11   6    3.94    0.32
  -3 -11  -6    3.60    0.32
   3 -11   6    4.04    0.31
  -3  11  -6    3.71    0.31
   3  11   6    3.63    0.31
   4 -11   6    0.17    0.11
  -4 -11  -6    0.15    0.11
   4  11   6    0.11    0.12
  -4  11  -6    0.11    0.09
  -4  11  -6    0.14    0.09
   5 -11   6    2.15    0.22
  -5 -11  -6    1.85    0.22
  -5  11  -6    1.98    0.22
   5  11   6    1.61    0.21
  -5  11  -6    1.87    0.20
  -6 -11  -6    0.32    0.13
   6 -11   6    0.56    0.13
  -6  11  -6    0.39    0.11
  -6  11  -6    0.38    0.10
  -7 -11  -6    1.61    0.20
   7 -11   6    1.51    0.21
  -7  11  -6    1.00    0.15
  -7  11  -6    1.31    0.18
  -8 -11  -6    0.16    0.13
   8 -11   6    0.05    0.12
  -8  11  -6    0.12    0.09
  -8  11  -6    0.31    0.10
  10 -12  -6    0.29    0.11
  10 -12  -6    0.41    0.11
  10  12  -6    0.32    0.12
   9 -12  -6   -0.03    0.10
   9 -12  -6    0.03    0.10
   9  12  -6   -0.04    0.10
  -8 -12   6    0.20    0.11
   8 -12  -6    0.37    0.12
   8 -12  -6    0.10    0.11
   8  12  -6    0.20    0.12
   7 -12  -6    0.20    0.11
   7 -12  -6    0.16    0.11
  -7 -12   6    0.13    0.10
   7  12  -6    0.08    0.11
  -6 -12   6   -0.06    0.10
   6 -12  -6    0.05    0.11
   6 -12  -6    0.12    0.11
   6  12  -6    0.11    0.10
   5 -12  -6    0.09    0.11
  -5 -12   6    0.06    0.11
   5 -12  -6    0.15    0.10
   5  12  -6    0.08    0.10
   4 -12  -6    0.49    0.12
   4 -12  -6    0.41    0.12
  -4 -12   6    0.42    0.12
   4  12  -6    0.34    0.11
   3 -12  -6    0.34    0.11
  -3 -12   6    0.22    0.10
   3 -12  -6    0.23    0.11
  -3 -12   6    0.26    0.10
   3  12  -6    0.24    0.11
  -2 -12   6    0.02    0.09
  -2 -12   6   -0.08    0.09
   2 -12  -6    0.04    0.10
   2 -12  -6    0.09    0.09
   2  12  -6    0.04    0.09
  -1 -12   6    0.17    0.10
   1 -12  -6    0.11    0.10
   1 -12  -6    0.11    0.09
  -1 -12   6    0.10    0.10
   1  12  -6    0.14    0.10
   0 -12   6    0.47    0.11
   0 -12   6    0.42    0.11
   0  12  -6    0.35    0.10
   1 -12   6    0.51    0.12
  -1 -12  -6    0.59    0.11
   1 -12   6    0.60    0.12
  -1  12  -6    0.54    0.11
   2 -12   6    0.01    0.10
  -2 -12  -6    0.06    0.08
   2 -12   6   -0.02    0.09
  -2  12  -6   -0.08    0.07
   2  12   6   -0.03    0.09
   3 -12   6    1.36    0.19
   3 -12   6    1.48    0.19
  -3  12  -6    1.21    0.18
   3  12   6    1.25    0.16
  -3  12  -6    1.24    0.18
   4 -12   6    0.07    0.11
  -4 -12  -6   -0.03    0.11
  -4  12  -6    0.07    0.09
  -4  12  -6    0.00    0.08
  -5 -12  -6    0.74    0.14
   5 -12   6    0.67    0.14
  -5  12  -6    0.69    0.13
  -5  12  -6    0.49    0.11
   6 -12   6    0.25    0.11
  -6 -12  -6    0.09    0.12
  -6  12  -6   -0.14    0.08
  -6  12  -6    0.06    0.09
   7 -12   6    0.73    0.14
  -7 -12  -6    0.75    0.14
  -7  12  -6    0.77    0.12
  -7  12  -6    0.79    0.15
   9 -13  -6    1.45    0.19
   9 -13  -6    1.23    0.17
   8 -13  -6    0.05    0.11
   8 -13  -6   -0.10    0.10
  -8 -13   6    0.01    0.11
   8  13  -6    0.21    0.11
  -7 -13   6    1.79    0.24
   7 -13  -6    1.60    0.23
   7 -13  -6    1.92    0.22
   7  13  -6    1.97    0.23
   6 -13  -6    0.04    0.11
   6 -13  -6   -0.01    0.11
  -6 -13   6   -0.09    0.11
   6  13  -6    0.01    0.10
  -5 -13   6    2.77    0.29
   5 -13  -6    3.04    0.28
   5 -13  -6    2.98    0.29
   5  13  -6    3.11    0.29
   4 -13  -6   -0.04    0.11
   4 -13  -6    0.12    0.11
  -4 -13   6    0.04    0.10
   4  13  -6    0.04    0.11
   3 -13  -6    3.16    0.30
  -3 -13   6    3.07    0.29
   3 -13  -6    3.08    0.28
   3  13  -6    3.43    0.30
  -2 -13   6   -0.19    0.10
  -2 -13   6    0.02    0.10
   2 -13  -6   -0.08    0.10
   2 -13  -6   -0.12    0.09
   2  13  -6   -0.07    0.09
   1 -13  -6    1.35    0.19
  -1 -13   6    1.55    0.20
   1 -13  -6    1.22    0.16
  -1 -13   6    1.44    0.18
   1  13  -6    1.32    0.19
   0 -13   6    0.34    0.11
   0 -13   6    0.40    0.12
   0 -13  -6    0.33    0.11
   0  13  -6    0.36    0.11
   1 -13   6    2.86    0.25
  -1 -13  -6    2.42    0.25
   1 -13   6    2.56    0.25
  -1  13  -6    2.49    0.24
   2 -13   6    0.18    0.10
   2 -13   6    0.11    0.09
  -2  13  -6    0.03    0.09
   3 -13   6    2.50    0.25
   3 -13   6    2.33    0.23
  -3  13  -6    2.35    0.23
  -3  13  -6    2.34    0.24
   4 -13   6    0.10    0.10
  -4  13  -6   -0.16    0.08
  -4  13  -6   -0.03    0.08
   5 -13   6    1.33    0.18
  -5  13  -6    0.92    0.14
  -5  13  -6    0.85    0.13
   6 -13   6   -0.03    0.10
  -6  13  -6   -0.10    0.08
  -6  13  -6    0.04    0.08
   7 -14  -6    0.02    0.10
  -7 -14   6    0.17    0.11
   7 -14  -6   -0.11    0.10
   7  14  -6   -0.02    0.10
   6 -14  -6    1.87    0.23
  -6 -14   6    1.61    0.24
   6 -14  -6    1.69    0.21
   6  14  -6    1.94    0.23
   5 -14  -6    0.07    0.10
   5 -14  -6    0.01    0.11
  -5 -14   6   -0.01    0.10
   5  14  -6   -0.02    0.10
  -4 -14   6    1.69    0.22
   4 -14  -6    1.43    0.21
   4 -14  -6    1.36    0.19
   4  14  -6    1.68    0.21
   3 -14  -6   -0.02    0.10
  -3 -14   6   -0.10    0.10
   3 -14  -6   -0.20    0.11
   3  14  -6   -0.03    0.10
   2 -14  -6    0.59    0.13
  -2 -14   6    0.78    0.14
  -2 -14   6    0.63    0.13
   2 -14  -6    0.57    0.14
   2  14  -6    0.80    0.14
   1 -14  -6   -0.12    0.10
  -1 -14   6   -0.09    0.10
  -1 -14   6   -0.02    0.10
   1  14  -6   -0.06    0.09
   0 -14   6    2.53    0.24
   0 -14  -6    2.40    0.25
   0 -14   6    2.47    0.25
   0  14  -6    2.39    0.24
   1 -14   6    0.08    0.10
  -1 -14  -6    0.26    0.10
   1 -14   6    0.15    0.10
  -1  14  -6    0.09    0.09
   2 -14   6    1.82    0.21
   2 -14   6    1.63    0.20
  -2  14  -6    1.66    0.20
   3 -14   6    0.29    0.11
   3 -14   6    0.11    0.11
  -3  14  -6    0.08    0.09
  -3  14  -6    0.11    0.09
   4 -14   6   -0.03    0.10
  -4  14  -6    0.05    0.09
  -4  14  -6   -0.01    0.08
   5 -15  -6   -0.21    0.11
   5 -15  -6   -0.16    0.11
  -5 -15   6   -0.03    0.11
   5  15  -6    0.08    0.09
  -4 -15   6    0.00    0.10
   4 -15  -6   -0.24    0.10
   4 -15  -6   -0.17    0.11
   4  15  -6    0.00    0.10
  -3 -15   6    0.33    0.12
   3 -15  -6    0.21    0.12
   3 -15  -6    0.13    0.12
   3  15  -6    0.34    0.11
  -2 -15   6    0.06    0.11
   2 -15  -6   -0.04    0.11
   2  15  -6    0.00    0.10
  -1 -15   6    0.28    0.11
   1 -15  -6    0.28    0.12
  -1 -15   6    0.25    0.11
   1  15  -6    0.34    0.11
   0 -15  -6    0.56    0.12
   0 -15   6    0.20    0.11
   0 -15   6    0.21    0.11
   0  15  -6    0.32    0.10
   1 -15   6    0.18    0.11
  -1 -15  -6   -0.10    0.10
   1 -15   6    0.05    0.11
  -1  15  -6    0.08    0.09
   2 -15   6    0.25    0.11
   2 -15   6    0.24    0.11
  -2  15  -6    0.16    0.09
 -15   0   7    1.39    0.18
  14   0  -7    0.25    0.11
 -13   0   7    0.73    0.13
  13   0  -7    0.87    0.16
 -13   0   7    0.83    0.15
 -12   0   7   -0.02    0.08
 -12   0   7    0.01    0.11
 -10   0   7    0.01    0.08
 -10   0   7   -0.06    0.06
   9   0  -7    0.29    0.11
  -9   0   7    0.26    0.08
  -9   0   7    0.37    0.08
   9   0  -7    0.23    0.07
  -9   0   7    0.32    0.09
   8   0  -7   -0.08    0.06
  -8   0   7   -0.02    0.08
  -8   0   7   -0.02    0.06
   8   0  -7    0.03    0.10
  -8   0   7   -0.02    0.07
  -7   0   7   -0.02    0.08
  -6   0   7   -0.02    0.07
  -6   0   7   -0.07    0.05
   6   0  -7    0.03    0.09
  -6   0   7   -0.09    0.07
   4   0  -7    0.08    0.08
  -4   0   7   -0.04    0.07
  -4   0   7    0.00    0.05
  -4   0   7    0.09    0.07
  -4   0   7    0.08    0.07
   4   0  -7    0.03    0.03
  -3   0   7    2.23    0.19
  -3   0   7    1.32    0.20
   3   0  -7    1.80    0.15
  -3   0   7    1.47    0.15
   3   0  -7    1.78    0.20
  -2   0   7   -0.06    0.06
   2   0  -7    0.03    0.08
  -2   0   7    0.06    0.06
  -2   0   7    0.00    0.05
  -2   0   7   -0.02    0.07
   2   0  -7   -0.03    0.04
  -1   0   7    9.55    0.63
  -1   0   7   10.75    0.74
   1   0  -7    9.33    0.65
   1   0  -7    8.25    0.66
   1   0  -7   10.96    0.71
   0   0   7    0.06    0.06
   0   0  -7    0.05    0.05
   0   0   7   -0.01    0.07
   0   0   7   -0.02    0.05
   0   0  -7   -0.03    0.07
   0   0  -7    0.03    0.05
  -1   0  -7   10.19    0.73
  -1   0  -7   12.19    0.78
   1   0   7   11.60    0.82
  -1   0  -7    9.37    0.74
  -2   0  -7    0.06    0.07
   2   0   7   -0.01    0.04
  -2   0  -7    0.15    0.07
   2   0   7    0.23    0.09
  -2   0  -7    0.10    0.06
  -3   0  -7   25.17    1.84
   3   0   7   25.37    2.03
  -3   0  -7   27.73    1.93
  -3   0  -7   31.38    1.80
  -4   0  -7    0.19    0.08
   4   0   7    0.18    0.10
  -4   0  -7    0.18    0.08
  -4   0  -7    0.15    0.09
   5   0   7   15.31    1.15
  -5   0  -7   14.79    1.09
  -5   0  -7   15.61    1.04
  -5   0  -7   14.88    1.02
  -6   0  -7    0.49    0.10
   6   0   7    0.59    0.14
  -6   0  -7    0.35    0.12
  -7   0  -7    9.48    0.74
  -7   0  -7   11.80    0.73
  -7   0  -7   10.13    0.77
   7   0   7   10.27    0.83
   8   0   7    0.26    0.15
  -8   0  -7    0.20    0.13
  -8   0  -7    0.35    0.11
  -8   0  -7    0.25    0.10
   9   0   7    7.29    0.63
  -9   0  -7    8.04    0.56
  -9   0  -7    6.94    0.57
 -10   0  -7    0.14    0.11
 -10   0  -7    0.02    0.13
  10   0   7    0.26    0.16
 -11   0  -7   18.52    1.27
  11   0   7   17.99    1.41
 -15  -1   7    5.52    0.45
  15  -1  -7    7.10    0.54
 -15   1   7    5.80    0.45
 -14  -1   7    0.23    0.11
  14  -1  -7    0.98    0.15
 -13  -1   7    5.68    0.43
 -13  -1   7    5.77    0.49
 -13   1   7    6.30    0.44
 -13   1   7    5.84    0.49
 -12  -1   7    1.22    0.16
 -12  -1   7    0.79    0.15
 -12   1   7    0.79    0.15
 -12   1   7    0.92    0.13
 -11  -1   7   16.63    1.32
 -11  -1   7   18.54    1.18
 -11   1   7   18.96    1.18
 -11   1   7   18.85    1.33
 -10  -1   7    0.25    0.08
  10  -1  -7    0.24    0.08
 -10  -1   7    0.22    0.08
 -10  -1   7    0.22    0.09
 -10   1   7    0.35    0.10
 -10   1   7    0.21    0.08
   9  -1  -7    1.66    0.16
  -9  -1   7    1.57    0.21
   9  -1  -7    1.39    0.20
  -9  -1   7    1.52    0.18
  -9  -1   7    1.78    0.17
  -9   1   7    1.67    0.21
   9   1  -7    1.36    0.16
   9   1  -7    1.46    0.19
  -9   1   7    1.59    0.16
   8  -1  -7   -0.01    0.10
   8  -1  -7   -0.05    0.06
  -8  -1   7   -0.02    0.05
  -8  -1   7    0.01    0.08
  -8  -1   7   -0.06    0.07
  -8   1   7    0.04    0.06
  -8   1   7   -0.07    0.08
   8   1  -7    0.11    0.09
   8   1  -7   -0.04    0.06
   7  -1  -7   12.51    0.88
   7  -1  -7   15.07    1.01
  -7  -1   7   14.78    0.93
  -7  -1   7   13.80    0.89
  -7  -1   7   12.18    1.01
  -7   1   7   14.49    1.01
   7   1  -7   13.64    1.00
  -7   1   7   13.63    0.93
  -7   1   7   14.78    0.90
  -6  -1   7   -0.05    0.05
  -6  -1   7    0.04    0.07
   6  -1  -7   -0.05    0.09
  -6  -1   7   -0.03    0.08
   6  -1  -7   -0.02    0.05
  -6   1   7   -0.01    0.05
  -6   1   7   -0.05    0.07
   6   1  -7   -0.01    0.08
  -6   1   7   -0.02    0.07
   5  -1  -7   22.89    1.70
  -5  -1   7   24.85    1.57
  -5  -1   7   23.71    1.71
  -5  -1   7   21.94    1.51
  -5   1   7   23.53    1.71
   5   1  -7   24.01    1.69
  -5   1   7   24.72    1.52
  -5   1   7   26.44    1.58
  -4  -1   7    1.41    0.17
  -4  -1   7    0.92    0.12
   4  -1  -7    1.32    0.18
  -4  -1   7    1.19    0.12
  -4   1   7    1.12    0.13
   4   1  -7    1.03    0.12
  -4   1   7    1.57    0.16
  -4   1   7    1.43    0.16
  -4   1   7    0.90    0.12
   4   1  -7    1.13    0.17
  -3  -1   7    7.59    0.57
  -3  -1   7    7.21    0.50
  -3  -1   7    8.57    0.58
  -3  -1   7    6.40    0.53
   3  -1  -7    8.70    0.57
   3   1  -7    8.56    0.56
  -3   1   7    8.10    0.50
  -3   1   7    7.46    0.57
  -3   1   7    6.48    0.54
  -3   1   7    8.13    0.59
   3   1  -7    6.69    0.51
   2  -1  -7    0.14    0.04
  -2  -1   7    0.17    0.08
  -2  -1   7    0.15    0.05
  -2  -1   7    0.19    0.06
   2  -1  -7    0.20    0.09
  -2  -1   7    0.12    0.07
   2   1  -7    0.25    0.08
   2   1  -7    0.06    0.04
   2   1  -7    0.11    0.05
  -2   1   7    0.17    0.06
  -2   1   7    0.20    0.07
  -2   1   7    0.06    0.07
  -2   1   7    0.16    0.07
  -1  -1   7   32.64    2.37
   1  -1  -7   35.74    2.25
   1  -1  -7   29.92    2.09
  -1  -1   7   31.43    2.09
  -1  -1   7   31.34    2.02
  -1   1   7   33.55    2.02
  -1   1   7   31.11    2.09
   1   1  -7   29.85    2.09
   1   1  -7   34.12    2.25
  -1   1   7   31.31    2.37
   0  -1  -7    0.80    0.12
   0  -1   7    1.25    0.14
   0  -1  -7    1.43    0.16
   0  -1  -7    0.99    0.13
   0  -1   7    1.16    0.14
   0  -1   7    1.59    0.18
   0   1  -7    1.34    0.14
   0   1   7    0.90    0.10
   0   1   7    1.12    0.15
   0   1  -7    1.13    0.15
   0   1  -7    1.11    0.13
   0   1   7    1.31    0.18
   1  -1   7   23.73    1.70
  -1  -1  -7   22.72    1.53
   1  -1   7   25.05    1.50
  -1  -1  -7   24.46    1.61
  -1  -1  -7   22.80    1.50
  -1   1  -7   19.81    1.53
  -1   1  -7   22.55    1.50
  -1   1  -7   23.42    1.61
   1   1   7   21.56    1.70
   2  -1   7    3.59    0.27
  -2  -1  -7    3.40    0.30
  -2  -1  -7    3.57    0.29
  -2   1  -7    4.01    0.29
   2   1   7    3.92    0.34
  -2   1  -7    3.97    0.31
  -2   1  -7    3.57    0.29
  -3  -1  -7   34.28    2.39
  -3  -1  -7   34.21    2.28
  -3  -1  -7   33.68    2.23
   3  -1   7   33.37    2.52
  -3   1  -7   35.10    2.28
  -3   1  -7   33.87    2.23
   3   1   7   32.75    2.52
  -3   1  -7   35.25    2.39
  -4  -1  -7    2.11    0.22
  -4  -1  -7    2.01    0.22
   4  -1   7    2.85    0.27
  -4  -1  -7    1.82    0.22
  -4   1  -7    2.27    0.22
  -4   1  -7    2.67    0.23
  -4   1  -7    2.54    0.22
  -5  -1  -7   13.78    0.84
   5  -1   7   11.51    0.94
  -5  -1  -7   11.83    0.85
  -5  -1  -7   13.42    0.89
   5   1   7   12.76    0.94
  -5   1  -7   11.42    0.88
  -5   1  -7   10.84    0.83
  -6  -1  -7    4.55    0.35
  -6  -1  -7    4.08    0.36
   6  -1   7    5.05    0.41
  -6  -1  -7    3.71    0.36
   6   1   7    3.63    0.40
  -6   1  -7    4.70    0.36
  -6   1  -7    4.99    0.36
  -6   1  -7    4.74    0.37
  -7  -1  -7    8.37    0.54
  -7  -1  -7    8.09    0.55
  -7  -1  -7    7.85    0.55
   7  -1   7    6.49    0.60
   7   1   7    7.84    0.61
  -7   1  -7    6.51    0.54
  -7   1  -7    6.30    0.52
  -7   1  -7    6.36    0.55
  -8  -1  -7    2.23    0.22
  -8  -1  -7    2.10    0.24
   8  -1   7    2.24    0.29
  -8  -1  -7    1.64    0.25
  -8   1  -7    2.14    0.24
   8   1   7    1.72    0.29
  -8   1  -7    2.09    0.22
  -8   1  -7    2.17    0.25
  -9  -1  -7    4.44    0.35
   9  -1   7    3.63    0.39
   9   1   7    4.61    0.40
  -9   1  -7    3.08    0.33
  -9   1  -7    3.06    0.34
 -10  -1  -7    0.92    0.19
  10  -1   7    1.11    0.21
  10   1   7    1.18    0.21
 -10   1  -7    1.32    0.18
 -10   1  -7    1.30    0.19
  11  -1   7    7.82    0.62
 -11   1  -7    7.18    0.55
 -11   1  -7    6.58    0.55
  15  -2  -7    0.39    0.12
 -15  -2   7    0.14    0.10
 -15   2   7    0.09    0.09
 -14  -2   7    1.96    0.26
  14  -2  -7    2.53    0.24
 -14  -2   7    2.02    0.22
  14   2  -7    2.58    0.23
 -14   2   7    2.04    0.22
 -13  -2   7   -0.10    0.09
  13  -2  -7    0.37    0.11
 -13  -2   7    0.03    0.12
 -13   2   7    0.16    0.09
 -13   2   7    0.25    0.12
 -12  -2   7   16.77    1.29
 -12  -2   7   17.94    1.16
 -12   2   7   17.42    1.15
 -12   2   7   18.76    1.30
 -11  -2   7    0.29    0.10
 -11  -2   7    0.25    0.08
 -11  -2   7    0.12    0.09
 -11   2   7    0.31    0.10
 -11   2   7    0.20    0.08
  10  -2  -7    5.65    0.40
  10  -2  -7    5.31    0.46
 -10  -2   7    6.19    0.41
 -10  -2   7    5.44    0.42
 -10  -2   7    5.95    0.47
 -10   2   7    6.13    0.41
 -10   2   7    6.00    0.46
  -9  -2   7    0.00    0.07
   9  -2  -7   -0.01    0.07
  -9  -2   7   -0.12    0.06
  -9  -2   7    0.02    0.09
   9  -2  -7   -0.16    0.10
   9   2  -7   -0.12    0.09
  -9   2   7    0.02    0.06
  -9   2   7   -0.06    0.08
   8  -2  -7   17.08    1.20
  -8  -2   7   16.34    1.10
   8  -2  -7   14.57    1.04
  -8  -2   7   17.03    1.06
  -8  -2   7   16.73    1.20
   8   2  -7   15.21    1.18
  -8   2   7   17.42    1.06
  -8   2   7   18.11    1.20
  -7  -2   7   -0.04    0.05
   7  -2  -7   -0.09    0.06
  -7  -2   7   -0.03    0.07
   7  -2  -7   -0.06    0.09
  -7  -2   7   -0.05    0.08
   7   2  -7    0.01    0.08
  -7   2   7   -0.08    0.06
  -7   2   7   -0.02    0.07
   6  -2  -7    1.80    0.22
   6  -2  -7    1.90    0.17
  -6  -2   7    2.01    0.19
  -6  -2   7    1.87    0.21
  -6  -2   7    1.79    0.16
  -6   2   7    1.84    0.21
   6   2  -7    1.93    0.20
  -6   2   7    1.80    0.17
  -5  -2   7    0.11    0.08
  -5  -2   7   -0.03    0.07
  -5  -2   7    0.08    0.05
   5  -2  -7    0.12    0.06
   5  -2  -7    0.05    0.09
  -5   2   7    0.14    0.07
  -5   2   7    0.06    0.05
   5   2  -7    0.02    0.05
   5   2  -7    0.10    0.07
  -5   2   7   -0.04    0.07
  -4  -2   7   34.16    2.27
   4  -2  -7   35.23    2.44
  -4  -2   7   32.08    2.56
  -4  -2   7   33.78    2.19
  -4  -2   7   36.79    2.47
   4   2  -7   30.84    2.26
  -4   2   7   34.70    2.19
   4   2  -7   35.22    2.44
  -4   2   7   36.46    2.47
  -4   2   7   37.11    2.27
  -4   2   7   36.24    2.57
  -3  -2   7    1.10    0.16
  -3  -2   7    1.26    0.15
   3  -2  -7    1.29    0.19
  -3  -2   7    0.92    0.11
  -3  -2   7    1.08    0.11
  -3   2   7    1.47    0.16
  -3   2   7    0.98    0.12
  -3   2   7    1.16    0.13
   3   2  -7    1.13    0.13
  -3   2   7    1.29    0.17
   3   2  -7    1.17    0.16
  -2  -2   7    5.29    0.38
  -2  -2   7    5.62    0.41
  -2  -2   7    5.90    0.45
  -2  -2   7    5.18    0.45
   2  -2  -7    6.06    0.45
  -2   2   7    6.43    0.44
   2   2  -7    5.28    0.40
  -2   2   7    5.87    0.39
  -2   2   7    6.04    0.42
  -2   2   7    6.01    0.46
   2   2  -7    5.86    0.43
  -1  -2   7    0.13    0.07
  -1  -2   7    0.10    0.04
  -1  -2   7    0.02    0.06
   1  -2  -7    0.19    0.09
   1  -2  -7    0.16    0.05
  -1   2   7    0.19    0.06
  -1   2   7    0.11    0.07
   1   2  -7    0.13    0.05
   1   2  -7    0.10    0.07
   1   2  -7    0.10    0.05
  -1   2   7    0.14    0.07
   0  -2   7   13.02    0.96
   0  -2   7   12.30    0.81
   0  -2  -7   12.99    0.84
   0  -2   7   13.48    0.85
   0   2  -7   13.24    0.85
   0   2   7   12.94    0.96
   0   2   7   12.48    0.82
   0   2  -7   12.87    0.91
   0   2  -7   11.28    0.86
   1  -2   7    0.00    0.08
  -1  -2  -7    0.07    0.06
   1  -2   7    0.00    0.05
  -1  -2  -7    0.03    0.07
  -1  -2  -7    0.04    0.06
  -1   2  -7    0.08    0.07
  -1   2  -7    0.00    0.05
  -1   2  -7    0.04    0.05
   1   2   7    0.10    0.08
   2  -2   7   24.07    1.54
  -2  -2  -7   24.86    1.67
  -2  -2  -7   22.01    1.58
   2  -2   7   23.38    1.76
  -2  -2  -7   25.95    1.56
  -2   2  -7   24.29    1.55
   2   2   7   24.03    1.76
  -2   2  -7   23.85    1.67
  -2   2  -7   20.47    1.58
   3  -2   7    0.07    0.09
  -3   2  -7    0.06    0.07
  -3   2  -7    0.07    0.07
   3   2   7    0.01    0.09
  -3   2  -7    0.06    0.06
  -4  -2  -7   10.06    0.64
  -4  -2  -7    9.22    0.68
  -4  -2  -7    8.90    0.65
   4  -2   7    9.13    0.72
   4   2   7    9.20    0.72
  -4   2  -7    9.14    0.64
  -4   2  -7    8.96    0.67
  -4   2  -7    9.01    0.65
   5  -2   7    0.25    0.12
  -5   2  -7    0.33    0.09
  -5   2  -7    0.15    0.09
   5   2   7    0.34    0.12
  -5   2  -7    0.16    0.09
  -6  -2  -7    7.95    0.53
  -6  -2  -7    6.62    0.54
  -6  -2  -7    7.64    0.52
   6  -2   7    7.13    0.59
  -6   2  -7    7.20    0.54
  -6   2  -7    6.24    0.52
  -6   2  -7    7.03    0.51
   6   2   7    6.72    0.59
   7  -2   7    0.18    0.13
  -7   2  -7    0.17    0.11
   7   2   7    0.52    0.14
  -7   2  -7    0.15    0.10
  -7   2  -7    0.13    0.09
  -8  -2  -7    3.14    0.28
   8  -2   7    3.13    0.34
  -8  -2  -7    2.62    0.29
  -8  -2  -7    2.76    0.27
  -8   2  -7    2.82    0.28
  -8   2  -7    2.63    0.27
   8   2   7    2.65    0.34
  -9  -2  -7    0.41    0.11
   9  -2   7    0.18    0.16
  -9  -2  -7    0.52    0.14
  -9   2  -7    0.06    0.13
  -9   2  -7    0.04    0.11
   9   2   7    0.51    0.15
  10  -2   7    0.55    0.18
 -10  -2  -7    0.26    0.15
  10   2   7    0.73    0.16
 -10   2  -7    0.45    0.14
 -10   2  -7    0.38    0.13
  11  -2   7    0.92    0.19
 -11   2  -7    0.87    0.15
 -11   2  -7    0.58    0.16
  15  -3  -7    0.65    0.15
 -15   3   7    0.09    0.09
 -14  -3   7    0.44    0.12
  14  -3  -7    0.56    0.12
  14  -3  -7    0.49    0.15
 -14   3   7    0.45    0.11
  13  -3  -7    1.04    0.16
 -13  -3   7    0.52    0.15
 -13  -3   7    0.65    0.12
 -13   3   7    0.47    0.11
  12  -3  -7    0.70    0.14
 -12  -3   7    0.65    0.13
 -12  -3   7    0.62    0.14
 -12   3   7    0.70    0.11
 -12   3   7    0.72    0.14
 -11  -3   7    5.01    0.36
 -11  -3   7    4.42    0.40
 -11  -3   7    4.05    0.35
  11  -3  -7    4.35    0.39
 -11   3   7    5.50    0.40
 -11   3   7    4.85    0.35
 -10  -3   7    0.05    0.07
  10  -3  -7    0.07    0.07
 -10  -3   7   -0.02    0.07
 -10  -3   7    0.08    0.09
  10  -3  -7   -0.07    0.10
 -10   3   7    0.03    0.07
 -10   3   7    0.02    0.09
  10   3  -7    0.07    0.08
   9  -3  -7    2.64    0.22
  -9  -3   7    2.59    0.27
  -9  -3   7    2.63    0.23
  -9  -3   7    2.80    0.22
   9  -3  -7    2.82    0.27
   9   3  -7    2.08    0.24
  -9   3   7    3.00    0.26
  -9   3   7    2.66    0.22
  -8  -3   7    0.08    0.08
   8  -3  -7   -0.08    0.08
   8  -3  -7    0.37    0.11
  -8  -3   7    0.00    0.07
  -8   3   7    0.20    0.09
  -8   3   7    0.28    0.07
  -7  -3   7    2.89    0.27
   7  -3  -7    3.09    0.27
  -7  -3   7    2.68    0.23
  -7  -3   7    2.44    0.22
   7  -3  -7    2.52    0.22
  -7  -3   7    2.91    0.22
   7   3  -7    2.45    0.23
  -7   3   7    3.09    0.22
   7   3  -7    2.64    0.24
  -7   3   7    2.64    0.26
   6  -3  -7    0.59    0.12
  -6  -3   7    0.57    0.11
   6  -3  -7    0.56    0.09
  -6  -3   7    0.57    0.09
  -6  -3   7    0.55    0.07
  -6   3   7    0.52    0.09
   6   3  -7    0.56    0.09
  -6   3   7    0.63    0.09
   6   3  -7    0.61    0.09
  -5  -3   7    0.10    0.08
  -5  -3   7    0.00    0.06
  -5  -3   7    0.04    0.04
   5  -3  -7    0.02    0.06
   5  -3  -7    0.12    0.09
   5   3  -7    0.05    0.06
  -5   3   7    0.00    0.05
  -5   3   7    0.06    0.07
   5   3  -7    0.13    0.06
   4  -3  -7    1.76    0.21
  -4  -3   7    1.75    0.19
  -4  -3   7    1.50    0.17
  -4  -3   7    1.96    0.18
   4  -3  -7    1.47    0.15
  -4  -3   7    1.35    0.13
  -4   3   7    1.52    0.21
  -4   3   7    1.67    0.18
  -4   3   7    1.60    0.15
   4   3  -7    1.44    0.17
   4   3  -7    1.55    0.16
   3  -3  -7    0.03    0.09
  -3  -3   7    0.04    0.05
  -3  -3   7    0.05    0.04
  -3  -3   7    0.03    0.06
  -3  -3   7    0.07    0.07
   3  -3  -7    0.09    0.06
  -3   3   7    0.10    0.07
  -3   3   7    0.06    0.07
  -3   3   7    0.03    0.06
   3   3  -7    0.05    0.07
   3   3  -7    0.04    0.05
  -2  -3   7    0.12    0.08
  -2  -3   7    0.11    0.06
  -2  -3   7    0.19    0.04
  -2  -3   7    0.18    0.07
   2  -3  -7    0.10    0.09
   2   3  -7    0.21    0.07
  -2   3   7    0.10    0.07
  -2   3   7    0.17    0.06
   2   3  -7    0.08    0.05
  -2   3   7    0.13    0.07
  -1  -3   7    2.04    0.18
  -1  -3   7    2.17    0.20
   1  -3  -7    1.56    0.16
   1  -3  -7    2.34    0.22
  -1  -3   7    1.75    0.15
  -1   3   7    2.25    0.19
  -1   3   7    2.15    0.18
   1   3  -7    1.93    0.18
   1   3  -7    1.82    0.18
  -1   3   7    2.24    0.21
   0  -3  -7    4.62    0.35
   0  -3  -7    3.78    0.31
   0  -3   7    4.18    0.29
   0  -3  -7    3.66    0.30
   0  -3   7    4.58    0.32
   0  -3   7    4.69    0.36
   0   3   7    4.72    0.32
   0   3  -7    4.71    0.31
   0   3   7    4.40    0.36
   0   3  -7    4.13    0.31
   0   3  -7    4.03    0.33
   1  -3   7    5.60    0.43
  -1  -3  -7    4.83    0.38
  -1  -3  -7    4.64    0.38
  -1  -3  -7    5.86    0.41
   1  -3   7    5.29    0.37
   1   3   7    5.96    0.44
  -1   3  -7    5.29    0.40
  -1   3  -7    5.65    0.38
  -1   3  -7    4.82    0.38
  -2  -3  -7    5.23    0.40
   2  -3   7    5.74    0.46
  -2  -3  -7    5.73    0.43
  -2  -3  -7    4.96    0.40
   2  -3   7    5.23    0.39
   2   3   7    6.46    0.46
  -2   3  -7    4.72    0.40
  -2   3  -7    5.69    0.42
  -2   3  -7    6.23    0.40
  -3  -3  -7   12.04    0.87
  -3  -3  -7   13.36    0.92
  -3  -3  -7   10.93    0.86
   3  -3   7   12.81    0.97
  -3   3  -7   12.47    0.87
  -3   3  -7   13.45    0.86
  -3   3  -7   13.34    0.91
   3   3   7   13.39    0.97
  -4  -3  -7    3.09    0.24
  -4  -3  -7    2.38    0.24
   4  -3   7    2.10    0.27
  -4   3  -7    2.87    0.23
  -4   3  -7    2.50    0.23
   4   3   7    2.23    0.28
  -4   3  -7    2.39    0.23
  -5  -3  -7    1.98    0.21
  -5  -3  -7    1.82    0.20
   5  -3   7    1.72    0.24
  -5  -3  -7    1.67    0.21
  -5   3  -7    1.98    0.20
   5   3   7    1.96    0.25
  -5   3  -7    1.66    0.19
  -5   3  -7    1.64    0.20
  -6  -3  -7    2.47    0.25
   6  -3   7    2.31    0.29
  -6   3  -7    2.55    0.24
  -6   3  -7    2.72    0.24
  -6   3  -7    2.42    0.24
   6   3   7    2.48    0.30
  -7  -3  -7    2.22    0.24
   7  -3   7    2.81    0.30
  -7  -3  -7    2.43    0.24
  -7  -3  -7    2.45    0.26
  -7   3  -7    2.14    0.24
  -7   3  -7    2.39    0.23
  -7   3  -7    1.95    0.24
   7   3   7    2.30    0.30
  -8  -3  -7    2.77    0.28
  -8  -3  -7    2.70    0.26
   8  -3   7    2.56    0.32
   8   3   7    2.65    0.33
  -8   3  -7    2.50    0.26
  -8   3  -7    2.35    0.27
  -9  -3  -7    0.48    0.12
  -9  -3  -7    0.46    0.15
   9  -3   7    0.50    0.17
  -9   3  -7    0.22    0.12
  -9   3  -7    0.41    0.14
   9   3   7    0.49    0.16
 -10  -3  -7    2.30    0.27
  10  -3   7    2.59    0.32
 -10   3  -7    2.45    0.27
  10   3   7    2.59    0.32
 -10   3  -7    2.21    0.27
  11  -3   7    1.25    0.21
 -11  -3  -7    0.77    0.17
  11   3   7    1.93    0.26
 -11   3  -7    1.32    0.20
 -11   3  -7    1.06    0.18
  14  -4  -7    0.55    0.15
 -14  -4   7    0.37    0.11
 -14   4   7    0.30    0.10
 -13  -4   7    0.32    0.11
 -13  -4   7    0.27    0.13
  13  -4  -7    0.46    0.12
 -13   4   7    0.25    0.09
 -12  -4   7    5.19    0.37
  12  -4  -7    4.75    0.41
 -12  -4   7    4.76    0.42
 -12   4   7    4.96    0.42
 -12   4   7    4.84    0.37
 -11  -4   7    0.69    0.11
 -11  -4   7    0.34    0.11
  11  -4  -7    0.48    0.10
  11  -4  -7    0.63    0.14
 -11   4   7    0.46    0.13
 -11   4   7    0.60    0.10
  10  -4  -7    5.66    0.42
  10  -4  -7    6.03    0.48
 -10  -4   7    6.43    0.43
 -10  -4   7    5.57    0.43
 -10  -4   7    6.01    0.48
 -10   4   7    6.32    0.48
 -10   4   7    6.14    0.42
   9  -4  -7    0.04    0.10
  -9  -4   7    0.05    0.09
  -9  -4   7    0.03    0.08
  -9  -4   7    0.15    0.07
   9  -4  -7    0.08    0.08
  -9   4   7    0.11    0.07
  -9   4   7   -0.11    0.08
  -8  -4   7   18.14    1.06
   8  -4  -7   16.91    1.19
  -8  -4   7   15.23    1.09
  -8  -4   7   14.92    1.11
   8  -4  -7   17.08    1.04
  -8  -4   7   17.01    1.19
  -8   4   7   17.57    1.19
  -8   4   7   17.78    1.06
   8   4  -7   15.55    1.09
   8   4  -7   14.13    1.17
  -7  -4   7    0.04    0.07
  -7  -4   7   -0.04    0.05
   7  -4  -7    0.05    0.10
   7  -4  -7   -0.02    0.06
  -7  -4   7   -0.02    0.08
  -7  -4   7   -0.06    0.07
   7   4  -7    0.02    0.07
  -7   4   7   -0.04    0.07
  -7   4   7    0.00    0.06
   7   4  -7   -0.14    0.06
  -6  -4   7    1.41    0.19
   6  -4  -7    1.37    0.20
   6  -4  -7    1.62    0.16
  -6  -4   7    1.55    0.16
  -6  -4   7    1.26    0.13
  -6   4   7    1.05    0.15
   6   4  -7    1.41    0.17
  -6   4   7    1.50    0.18
  -5  -4   7   -0.09    0.08
   5  -4  -7    0.05    0.06
  -5  -4   7    0.01    0.06
   5  -4  -7    0.01    0.09
  -5  -4   7    0.02    0.04
  -5   4   7   -0.01    0.05
   5   4  -7   -0.03    0.07
   5   4  -7   -0.04    0.06
  -5   4   7   -0.01    0.07
   4  -4  -7    3.11    0.28
  -4  -4   7    3.13    0.26
  -4  -4   7    2.76    0.24
  -4  -4   7    2.92    0.21
   4  -4  -7    2.92    0.23
  -4   4   7    3.17    0.25
  -4   4   7    2.36    0.29
   4   4  -7    2.88    0.24
  -4   4   7    3.03    0.23
   4   4  -7    2.99    0.25
  -3  -4   7    0.41    0.05
  -3  -4   7    0.41    0.09
   3  -4  -7    0.51    0.11
  -3  -4   7    0.40    0.08
  -3  -4   7    0.25    0.06
   3  -4  -7    0.36    0.07
  -3   4   7    0.39    0.07
  -3   4   7    0.48    0.08
   3   4  -7    0.43    0.07
   3   4  -7    0.43    0.08
  -3   4   7    0.43    0.09
  -2  -4   7    2.12    0.22
  -2  -4   7    2.33    0.22
   2  -4  -7    2.33    0.20
  -2  -4   7    2.59    0.25
   2  -4  -7    2.61    0.25
  -2   4   7    2.95    0.25
   2   4  -7    2.49    0.21
   2   4  -7    2.50    0.21
  -2   4   7    2.74    0.20
  -2   4   7    2.90    0.22
  -1  -4   7    0.43    0.08
  -1  -4   7    0.49    0.08
   1  -4  -7    0.53    0.11
   1  -4  -7    0.55    0.07
   1   4  -7    0.52    0.08
   1   4  -7    0.58    0.08
  -1   4   7    0.67    0.08
  -1   4   7    0.54    0.08
  -1   4   7    0.58    0.09
   0  -4   7   10.27    0.74
   0  -4  -7    8.59    0.66
   0  -4   7    9.79    0.66
   0  -4  -7   10.53    0.62
   0  -4  -7    9.64    0.71
   0   4   7    9.68    0.74
   0   4  -7    9.87    0.66
   0   4   7    9.56    0.71
   0   4  -7    9.09    0.70
   0   4   7   10.60    0.64
  -1  -4  -7    1.20    0.12
  -1  -4  -7    0.93    0.13
  -1  -4  -7    1.21    0.14
   1  -4   7    0.98    0.13
   1  -4   7    1.33    0.18
  -1  -4  -7    1.20    0.16
  -1   4  -7    0.84    0.13
   1   4   7    1.34    0.18
  -1   4  -7    1.11    0.14
  -1   4  -7    1.14    0.14
   2  -4   7   11.76    0.79
  -2  -4  -7   12.48    0.85
   2  -4   7   11.63    0.90
  -2  -4  -7   12.41    0.80
  -2  -4  -7   11.47    0.74
  -2  -4  -7   10.61    0.80
   2  -4   7   12.59    0.76
  -2   4  -7   11.13    0.81
   2   4   7   11.82    0.90
  -2   4  -7   11.98    0.85
  -2   4  -7   12.11    0.79
   3  -4   7    9.60    0.73
  -3  -4  -7    8.95    0.65
  -3  -4  -7    9.48    0.65
  -3  -4  -7    9.09    0.69
   3  -4   7    9.03    0.61
   3   4   7    9.59    0.73
  -3   4  -7    9.51    0.69
  -3   4  -7    9.96    0.64
  -4  -4  -7    3.78    0.29
  -4  -4  -7    3.07    0.28
  -4  -4  -7    3.53    0.30
   4  -4   7    3.61    0.33
   4   4   7    3.34    0.33
  -4   4  -7    3.41    0.28
  -4   4  -7    3.28    0.29
  -4   4  -7    3.74    0.29
   5  -4   7    2.33    0.27
  -5  -4  -7    2.28    0.23
  -5  -4  -7    2.16    0.23
   5   4   7    2.21    0.27
  -5   4  -7    2.35    0.23
  -5   4  -7    2.66    0.23
  -5   4  -7    2.30    0.23
  -6  -4  -7    2.54    0.27
   6  -4   7    2.63    0.30
  -6  -4  -7    2.76    0.26
  -6   4  -7    2.74    0.25
   6   4   7    2.62    0.31
  -6   4  -7    2.73    0.25
  -6   4  -7    2.92    0.25
   7  -4   7    5.32    0.49
  -7  -4  -7    5.82    0.44
  -7  -4  -7    5.29    0.44
  -7   4  -7    5.55    0.42
   7   4   7    5.18    0.48
  -7   4  -7    5.56    0.43
  -8  -4  -7    1.99    0.22
  -8  -4  -7    2.12    0.25
   8  -4   7    2.13    0.29
  -8   4  -7    1.63    0.23
  -8   4  -7    1.80    0.23
   8   4   7    1.95    0.29
  -9  -4  -7    1.83    0.25
  -9  -4  -7    1.95    0.22
   9  -4   7    2.07    0.30
  -9   4  -7    1.82    0.24
   9   4   7    2.12    0.30
  -9   4  -7    1.86    0.24
  10  -4   7    0.42    0.17
 -10  -4  -7    0.43    0.14
 -10   4  -7    0.47    0.14
  10   4   7    0.40    0.17
 -10   4  -7    0.14    0.11
 -11  -4  -7    4.63    0.39
  11   4   7    4.31    0.43
  14  -5  -7    0.35    0.14
 -14  -5   7   -0.18    0.09
 -14   5   7    0.06    0.08
 -13  -5   7    2.98    0.26
 -13  -5   7    2.79    0.30
  13  -5  -7    2.75    0.28
 -13   5   7    2.76    0.24
 -12  -5   7    0.02    0.09
  12  -5  -7    0.22    0.11
 -12  -5   7    0.23    0.10
 -12   5   7    0.08    0.08
  11  -5  -7    6.71    0.57
  11  -5  -7    6.97    0.50
 -11  -5   7    7.63    0.57
 -11   5   7    7.09    0.51
 -11   5   7    8.25    0.58
  10  -5  -7    0.09    0.08
 -10  -5   7    0.05    0.07
 -10  -5   7   -0.06    0.08
  10  -5  -7   -0.07    0.10
 -10  -5   7    0.08    0.09
 -10   5   7    0.07    0.09
 -10   5   7    0.01    0.07
  -9  -5   7    6.41    0.52
   9  -5  -7    7.50    0.57
  -9  -5   7    7.14    0.57
  -9  -5   7    8.50    0.51
   9  -5  -7    7.43    0.50
  -9  -5   7    6.97    0.53
   9   5  -7    7.19    0.53
  -9   5   7    7.83    0.51
  -9   5   7    7.68    0.57
  -8  -5   7    0.01    0.07
  -8  -5   7   -0.05    0.07
   8  -5  -7    0.03    0.07
  -8  -5   7   -0.07    0.06
  -8  -5   7    0.05    0.09
   8  -5  -7   -0.05    0.10
  -8   5   7    0.10    0.07
   8   5  -7    0.10    0.08
  -8   5   7    0.01    0.08
   7  -5  -7   10.60    0.81
  -7  -5   7   12.42    0.71
  -7  -5   7   10.51    0.74
  -7  -5   7   10.14    0.75
   7  -5  -7   11.99    0.71
  -7  -5   7   10.57    0.81
   7   5  -7   10.75    0.75
  -7   5   7   10.67    0.72
  -7   5   7   10.89    0.80
  -6  -5   7    0.00    0.07
  -6  -5   7   -0.13    0.08
   6  -5  -7    0.05    0.06
   6  -5  -7    0.00    0.10
  -6  -5   7    0.02    0.04
  -6   5   7    0.00    0.07
   6   5  -7    0.04    0.08
  -6   5   7   -0.02    0.06
  -5  -5   7    2.19    0.20
   5  -5  -7    2.15    0.23
  -5  -5   7    2.26    0.22
   5  -5  -7    2.14    0.19
  -5   5   7    2.10    0.19
  -5   5   7    2.12    0.20
   5   5  -7    2.04    0.22
   4  -5  -7    0.50    0.11
  -4  -5   7    0.51    0.09
  -4  -5   7    0.39    0.08
   4  -5  -7    0.34    0.08
  -4   5   7    0.49    0.08
  -4   5   7    0.45    0.07
   4   5  -7    0.43    0.09
  -3  -5   7    4.94    0.36
   3  -5  -7    5.21    0.34
  -3  -5   7    5.25    0.39
   3  -5  -7    4.86    0.40
   3   5  -7    4.88    0.36
  -3   5   7    4.49    0.41
  -3   5   7    4.77    0.34
  -3   5   7    5.11    0.38
   2  -5  -7    0.53    0.09
   2  -5  -7    0.67    0.12
  -2  -5   7    0.57    0.09
  -2  -5   7    0.61    0.11
  -2   5   7    0.62    0.10
  -2   5   7    0.66    0.08
  -2   5   7    0.89    0.12
   2   5  -7    0.44    0.09
  -1  -5   7    3.01    0.29
   1  -5  -7    3.65    0.26
  -1  -5   7    3.87    0.28
   1  -5  -7    3.93    0.31
  -1   5   7    3.66    0.32
  -1   5   7    3.38    0.28
   1   5  -7    3.55    0.28
  -1   5   7    3.72    0.26
   0  -5  -7   -0.03    0.06
   0  -5   7   -0.03    0.06
   0  -5  -7    0.04    0.05
   0  -5   7    0.04    0.06
   0  -5  -7   -0.01    0.08
   0  -5   7   -0.07    0.06
   0   5  -7    0.13    0.06
   0   5   7    0.05    0.07
   0   5  -7   -0.04    0.06
   0   5   7    0.08    0.08
   0   5   7    0.12    0.06
   1  -5   7    6.95    0.54
  -1  -5  -7    6.53    0.48
  -1  -5  -7    6.98    0.51
  -1  -5  -7    6.87    0.45
   1  -5   7    7.36    0.46
   1  -5   7    6.67    0.47
  -1   5  -7    6.80    0.48
  -1   5  -7    6.48    0.50
   1   5   7    7.56    0.54
  -1   5  -7    6.06    0.48
  -2  -5  -7    0.13    0.09
   2  -5   7    0.18    0.09
   2  -5   7    0.15    0.07
  -2  -5  -7    0.09    0.07
   2  -5   7    0.17    0.06
  -2  -5  -7    0.16    0.05
   2   5   7    0.13    0.09
  -2   5  -7    0.06    0.07
  -2   5  -7    0.20    0.08
  -2   5  -7    0.16    0.07
   3  -5   7   21.90    1.71
   3  -5   7   24.75    1.44
  -3  -5  -7   22.64    1.54
  -3  -5  -7   22.50    1.62
   3   5   7   21.98    1.71
  -3   5  -7   21.93    1.54
  -3   5  -7   23.49    1.51
  -3   5  -7   24.09    1.62
  -4  -5  -7    0.45    0.10
  -4  -5  -7    0.41    0.10
   4  -5   7    0.34    0.09
   4  -5   7    0.43    0.11
  -4   5  -7    0.41    0.09
   4   5   7    0.35    0.12
  -4   5  -7    0.54    0.09
  -4   5  -7    0.46    0.10
  -5  -5  -7    3.51    0.30
   5  -5   7    3.16    0.34
  -5  -5  -7    3.08    0.30
   5  -5   7    3.75    0.27
   5   5   7    3.45    0.34
  -5   5  -7    3.64    0.30
  -5   5  -7    3.71    0.30
  -5   5  -7    3.46    0.29
  -6  -5  -7    0.06    0.11
   6  -5   7    0.04    0.11
  -6  -5  -7   -0.02    0.09
  -6   5  -7   -0.02    0.08
   6   5   7   -0.03    0.12
  -6   5  -7   -0.06    0.08
  -7  -5  -7    5.79    0.46
   7  -5   7    5.83    0.51
  -7  -5  -7    6.07    0.46
   7   5   7    5.94    0.50
  -7   5  -7    5.78    0.44
  -7   5  -7    5.19    0.44
  -8  -5  -7   -0.05    0.12
  -8  -5  -7    0.00    0.09
   8  -5   7   -0.05    0.14
  -8   5  -7    0.04    0.11
   8   5   7   -0.13    0.14
  -8   5  -7   -0.07    0.09
  -9  -5  -7    1.58    0.21
  -9  -5  -7    1.87    0.20
   9  -5   7    1.94    0.28
  -9   5  -7    1.69    0.23
   9   5   7    1.31    0.22
  -9   5  -7    1.67    0.20
  10  -5   7    0.23    0.16
 -10  -5  -7    0.17    0.14
  10   5   7    0.25    0.16
 -10   5  -7    0.22    0.12
 -10   5  -7    0.13    0.12
  14  -6  -7    1.01    0.18
 -14   6   7    0.72    0.12
  13  -6  -7    0.24    0.11
 -13  -6   7    0.14    0.12
 -13   6   7    0.13    0.08
 -12  -6   7    5.07    0.42
  12  -6  -7    4.89    0.41
 -12   6   7    4.88    0.37
  11  -6  -7    0.02    0.09
  11  -6  -7    0.11    0.11
 -11  -6   7    0.00    0.10
 -11   6   7    0.05    0.07
 -10  -6   7    2.63    0.26
 -10  -6   7    2.18    0.22
  10  -6  -7    2.61    0.23
  10  -6  -7    2.44    0.25
 -10   6   7    2.32    0.21
  10   6  -7    2.26    0.24
 -10   6   7    2.76    0.26
   9  -6  -7    0.09    0.08
  -9  -6   7    0.10    0.09
   9  -6  -7    0.08    0.10
  -9  -6   7    0.22    0.08
  -9  -6   7    0.22    0.09
  -9   6   7    0.19    0.07
  -9   6   7    0.24    0.09
   9   6  -7    0.21    0.09
  -8  -6   7    8.30    0.58
  -8  -6   7    7.32    0.57
  -8  -6   7    8.08    0.62
   8  -6  -7    8.34    0.62
   8  -6  -7    8.21    0.55
  -8   6   7    8.34    0.61
   8   6  -7    8.74    0.58
  -8   6   7    7.86    0.55
   7  -6  -7   -0.04    0.07
   7  -6  -7    0.08    0.10
  -7  -6   7    0.04    0.09
  -7  -6   7    0.02    0.07
  -7   6   7   -0.01    0.06
   7   6  -7   -0.02    0.08
  -7   6   7    0.01    0.07
   6  -6  -7    5.61    0.37
  -6  -6   7    5.28    0.42
  -6  -6   7    5.39    0.39
   6  -6  -7    5.59    0.43
  -6   6   7    4.93    0.41
   6   6  -7    5.60    0.40
  -6   6   7    4.74    0.37
   5  -6  -7    0.24    0.10
   5  -6  -7    0.15    0.07
  -5  -6   7    0.09    0.09
  -5  -6   7    0.04    0.07
   5   6  -7    0.09    0.09
  -5   6   7    0.13    0.06
  -5   6   7    0.17    0.07
  -4  -6   7   12.85    0.84
   4  -6  -7   12.57    0.91
   4  -6  -7   13.15    0.80
  -4  -6   7   12.46    0.91
   4   6  -7   12.83    0.85
  -4   6   7   11.65    0.81
  -4   6   7   11.94    0.90
  -3  -6   7    1.28    0.15
  -3  -6   7    1.36    0.17
   3  -6  -7    1.15    0.15
   3  -6  -7    1.26    0.20
   3   6  -7    1.43    0.18
  -3   6   7    1.28    0.21
  -3   6   7    1.35    0.14
   2  -6  -7    0.52    0.12
  -2  -6   7    0.45    0.08
   2  -6  -7    0.42    0.08
  -2  -6   7    0.44    0.10
  -2   6   7    0.51    0.08
   2   6  -7    0.36    0.09
  -2   6   7    0.54    0.10
   1  -6  -7    0.34    0.10
  -1  -6   7    0.17    0.07
  -1  -6   7    0.18    0.07
   1  -6  -7    0.27    0.08
  -1   6   7    0.31    0.07
  -1   6   7    0.36    0.08
   1   6  -7    0.20    0.07
   0  -6  -7   19.33    1.36
   0  -6   7   22.34    1.28
   0  -6   7   18.29    1.50
   0  -6   7   21.24    1.34
   0  -6  -7   20.97    1.44
   0  -6  -7   20.27    1.27
   0   6   7   21.15    1.52
   0   6  -7   20.11    1.34
   0   6   7   19.15    1.30
  -1  -6  -7    2.84    0.25
  -1  -6  -7    3.80    0.27
  -1  -6  -7    3.78    0.30
   1  -6   7    3.16    0.31
   1  -6   7    3.31    0.27
   1  -6   7    3.30    0.27
   1   6   7    4.30    0.32
   1   6   7    3.79    0.28
  -1   6  -7    3.30    0.27
   2  -6   7   18.71    1.44
  -2  -6  -7   18.57    1.37
   2  -6   7   19.48    1.27
  -2  -6  -7   20.12    1.30
   2  -6   7   21.21    1.22
   2   6   7   19.52    1.44
  -2   6  -7   19.02    1.28
  -2   6  -7   17.49    1.30
  -3  -6  -7    3.75    0.31
   3  -6   7    3.46    0.28
   3  -6   7    3.40    0.34
   3  -6   7    3.90    0.29
  -3  -6  -7    3.67    0.30
  -3   6  -7    3.78    0.30
  -3   6  -7    3.84    0.29
  -3   6  -7    3.79    0.30
   3   6   7    3.79    0.34
   4  -6   7    2.16    0.20
  -4  -6  -7    1.76    0.20
  -4  -6  -7    1.58    0.20
   4  -6   7    1.50    0.23
  -4   6  -7    1.87    0.19
  -4   6  -7    1.98    0.19
   4   6   7    1.65    0.23
  -5  -6  -7    1.00    0.14
   5  -6   7    0.81    0.12
  -5  -6  -7    0.76    0.13
   5  -6   7    0.71    0.14
  -5   6  -7    0.78    0.12
  -5   6  -7    0.72    0.12
   5   6   7    0.71    0.14
  -6  -6  -7    1.14    0.17
   6  -6   7    1.38    0.17
  -6  -6  -7    1.27    0.16
   6  -6   7    1.38    0.22
   6   6   7    1.04    0.17
  -6   6  -7    1.09    0.15
  -6   6  -7    1.09    0.16
   7  -6   7    2.05    0.28
  -7  -6  -7    2.24    0.25
  -7  -6  -7    2.22    0.23
   7   6   7    1.83    0.29
  -7   6  -7    2.23    0.24
  -7   6  -7    2.16    0.24
   8  -6   7    1.54    0.24
  -8  -6  -7    1.00    0.16
  -8  -6  -7    1.15    0.18
   8   6   7    0.63    0.19
  -8   6  -7    1.08    0.16
  -8   6  -7    1.04    0.16
  -9  -6  -7    1.62    0.22
   9  -6   7    1.03    0.19
  -9  -6  -7    1.09    0.18
  -9   6  -7    0.79    0.15
  -9   6  -7    1.26    0.19
 -10  -6  -7    1.12    0.18
  10  -6   7    1.62    0.26
 -10   6  -7    1.02    0.17
 -10   6  -7    1.12    0.17
 -13   7   7    0.00    0.08
  12  -7  -7    0.31    0.12
  12  -7  -7    0.38    0.11
 -12   7   7    0.33    0.09
  11  -7  -7    0.02    0.11
  11  -7  -7    0.20    0.09
 -11   7   7   -0.01    0.07
 -10  -7   7    0.21    0.10
  10  -7  -7    0.06    0.09
  10  -7  -7    0.15    0.11
 -10  -7   7    0.06    0.09
 -10  -7   7    0.27    0.08
  10   7  -7    0.10    0.09
 -10   7   7    0.06    0.07
   9  -7  -7    1.16    0.17
  -9  -7   7    1.26    0.19
  -9  -7   7    1.22    0.17
  -9  -7   7    1.25    0.19
   9  -7  -7    1.06    0.16
  -9   7   7    1.11    0.15
  -9   7   7    1.25    0.15
   9   7  -7    1.04    0.15
   8  -7  -7    0.01    0.08
  -8  -7   7    0.17    0.09
  -8  -7   7    0.11    0.08
   8  -7  -7    0.14    0.10
  -8   7   7    0.12    0.07
   8   7  -7    0.08    0.09
  -8   7   7    0.10    0.08
   7  -7  -7    0.39    0.12
   7  -7  -7    0.33    0.09
  -7  -7   7    0.44    0.10
  -7  -7   7    0.38    0.09
  -7   7   7    0.40    0.09
   7   7  -7    0.44    0.11
  -7   7   7    0.39    0.08
   6  -7  -7    0.02    0.07
  -6  -7   7    0.09    0.08
   6  -7  -7    0.00    0.10
  -6   7   7    0.05    0.06
   6   7  -7   -0.05    0.09
  -5  -7   7    4.31    0.33
   5  -7  -7    4.42    0.32
   5  -7  -7    4.51    0.36
  -5  -7   7    4.00    0.35
  -5   7   7    3.86    0.31
   5   7  -7    4.46    0.35
  -4  -7   7    0.24    0.08
  -4  -7   7    0.13    0.09
   4  -7  -7    0.16    0.11
   4  -7  -7    0.23    0.08
   4   7  -7    0.27    0.09
  -4   7   7    0.21    0.07
   3  -7  -7    0.21    0.07
  -3  -7   7    0.11    0.09
  -3  -7   7    0.11    0.07
   3  -7  -7    0.15    0.11
  -3   7   7    0.21    0.07
   3   7  -7    0.18    0.09
  -2  -7   7    0.60    0.10
   2  -7  -7    0.59    0.12
  -2  -7   7    0.51    0.09
   2  -7  -7    0.67    0.10
  -2   7   7    0.65    0.11
   2   7  -7    0.58    0.10
  -2   7   7    0.64    0.09
   1  -7  -7    1.66    0.20
   1  -7  -7    1.81    0.17
  -1  -7   7    1.53    0.18
  -1  -7   7    1.46    0.18
   1   7  -7    1.71    0.19
  -1   7   7    1.87    0.22
  -1   7   7    1.76    0.17
   0  -7   7    7.02    0.51
   0  -7   7    6.89    0.49
   0  -7  -7    6.50    0.48
   0  -7  -7    7.17    0.54
   0   7   7    7.54    0.49
   0   7   7    8.21    0.58
   0   7  -7    7.21    0.51
  -1  -7  -7    3.42    0.29
  -1  -7  -7    3.65    0.27
  -1  -7  -7    3.70    0.31
   1  -7   7    4.14    0.29
   1  -7   7    3.99    0.30
  -1   7  -7    3.86    0.30
   1   7   7    3.58    0.34
   1   7   7    4.02    0.30
  -2  -7  -7    4.98    0.36
   2  -7   7    4.66    0.35
   2  -7   7    4.84    0.40
   2  -7   7    4.92    0.36
  -2  -7  -7    4.29    0.34
  -2  -7  -7    4.51    0.39
   2   7   7    5.15    0.41
  -2   7  -7    5.50    0.37
  -2   7  -7    4.77    0.36
  -3  -7  -7    0.62    0.10
   3  -7   7    0.52    0.11
  -3  -7  -7    0.54    0.11
   3  -7   7    0.70    0.11
   3  -7   7    0.63    0.09
   3   7   7    0.51    0.11
  -3   7  -7    0.51    0.10
  -3   7  -7    0.52    0.09
  -4  -7  -7    2.68    0.27
   4  -7   7    2.52    0.30
   4  -7   7    2.83    0.26
  -4  -7  -7    3.25    0.27
  -4   7  -7    3.22    0.26
  -4   7  -7    3.46    0.26
   4   7   7    2.79    0.30
   5  -7   7    0.01    0.10
  -5  -7  -7    0.13    0.09
  -5  -7  -7    0.09    0.11
   5  -7   7    0.05    0.09
  -5   7  -7    0.05    0.08
   5   7   7   -0.09    0.12
  -5   7  -7    0.04    0.08
  -6  -7  -7    1.41    0.19
   6  -7   7    1.58    0.23
  -6  -7  -7    1.63    0.21
   6  -7   7    1.24    0.16
   6   7   7    1.06    0.19
  -6   7  -7    1.39    0.19
  -6   7  -7    1.21    0.19
   7  -7   7    0.16    0.13
  -7  -7  -7    0.20    0.10
  -7  -7  -7    0.30    0.12
  -7   7  -7    0.07    0.10
   7   7   7    0.02    0.14
  -7   7  -7    0.06    0.09
  -8  -7  -7    1.48    0.22
   8  -7   7    1.18    0.19
  -8  -7  -7    0.86    0.16
  -8   7  -7    1.26    0.16
  -8   7  -7    1.29    0.20
  -9  -7  -7    0.05    0.11
   9  -7   7    0.22    0.14
  -9   7  -7   -0.04    0.09
  -9   7  -7   -0.02    0.11
 -10  -7  -7    5.21    0.43
 -13   8   7    0.11    0.08
  12  -8  -7    2.51    0.23
  12  -8  -7    2.21    0.25
 -12   8   7    2.16    0.21
  11  -8  -7    0.30    0.10
  11  -8  -7    0.24    0.11
 -11   8   7    0.08    0.08
  11   8  -7    0.17    0.10
  10  -8  -7    2.52    0.27
  10  -8  -7    2.82    0.24
 -10  -8   7    2.77    0.24
  10   8  -7    2.57    0.26
 -10   8   7    2.32    0.22
   9  -8  -7    0.08    0.11
  -9  -8   7    0.23    0.09
   9  -8  -7    0.00    0.08
   9   8  -7    0.03    0.09
  -9   8   7    0.03    0.07
   8  -8  -7   13.26    0.84
  -8  -8   7   12.38    0.88
   8  -8  -7   13.25    0.96
   8   8  -7   13.08    0.89
  -8   8   7   12.75    0.85
   7  -8  -7   -0.01    0.08
   7  -8  -7   -0.02    0.11
  -7  -8   7   -0.11    0.09
  -7  -8   7    0.12    0.09
  -7   8   7    0.00    0.07
   7   8  -7    0.08    0.10
   6  -8  -7    1.78    0.21
   6  -8  -7    1.74    0.19
  -6  -8   7    1.42    0.19
  -6  -8   7    1.74    0.19
   6   8  -7    1.89    0.22
  -6   8   7    1.75    0.17
  -5  -8   7    0.02    0.08
   5  -8  -7   -0.10    0.11
  -5  -8   7    0.04    0.09
   5  -8  -7    0.04    0.08
   5   8  -7    0.01    0.09
  -5   8   7    0.05    0.06
   4  -8  -7    7.16    0.58
   4  -8  -7    8.31    0.52
  -4  -8   7    6.86    0.57
  -4  -8   7    7.67    0.54
  -4   8   7    7.18    0.51
   4   8  -7    8.79    0.55
  -3  -8   7    0.42    0.09
  -3  -8   7    0.37    0.09
   3  -8  -7    0.41    0.12
   3  -8  -7    0.35    0.09
  -3   8   7    0.43    0.08
   3   8  -7    0.30    0.10
  -2  -8   7   10.09    0.67
  -2  -8   7    9.65    0.64
  -2  -8   7    9.60    0.72
   2  -8  -7    9.19    0.72
   2  -8  -7   10.36    0.64
  -2   8   7    9.54    0.76
   2   8  -7   10.16    0.68
  -2   8   7    9.47    0.64
   1  -8  -7    0.29    0.11
   1  -8  -7    0.08    0.08
  -1  -8   7   -0.10    0.08
  -1  -8   7   -0.15    0.10
  -1  -8   7   -0.05    0.08
   1   8  -7    0.03    0.08
  -1   8   7    0.00    0.09
  -1   8   7    0.11    0.07
   0  -8  -7    9.57    0.79
   0  -8   7   11.06    0.74
   0  -8   7   12.14    0.71
   0  -8  -7   11.03    0.71
   0   8  -7   10.83    0.75
   0   8   7   11.12    0.84
   0   8   7   10.72    0.72
   1  -8   7    0.36    0.10
  -1  -8  -7    0.43    0.09
  -1  -8  -7    0.51    0.09
  -1  -8  -7    0.57    0.10
  -1  -8  -7    0.47    0.08
   1  -8   7    0.37    0.09
   1   8   7    0.42    0.10
   1   8   7    0.47    0.11
  -1   8  -7    0.48    0.09
   2  -8   7    7.31    0.47
   2  -8   7    7.44    0.45
  -2  -8  -7    6.00    0.49
  -2  -8  -7    5.89    0.45
  -2  -8  -7    6.30    0.47
  -2   8  -7    6.47    0.47
   2   8   7    5.86    0.46
   2   8   7    6.86    0.53
  -3  -8  -7    5.09    0.36
  -3  -8  -7    4.68    0.38
   3  -8   7    4.29    0.35
   3  -8   7    4.61    0.35
   3   8   7    5.06    0.41
  -3   8  -7    4.32    0.36
  -3   8  -7    4.66    0.36
   4  -8   7    6.07    0.42
  -4  -8  -7    5.15    0.44
  -4  -8  -7    5.66    0.45
   4   8   7    6.30    0.49
  -4   8  -7    6.05    0.44
  -4   8  -7    5.75    0.43
   5  -8   7    0.40    0.11
   5  -8   7    0.38    0.13
  -5  -8  -7    0.18    0.12
  -5  -8  -7    0.47    0.12
  -5   8  -7    0.34    0.09
  -5   8  -7    0.35    0.10
  -6  -8  -7    1.80    0.21
  -6  -8  -7    1.66    0.20
   6  -8   7    1.63    0.24
   6  -8   7    1.74    0.21
  -6   8  -7    1.73    0.21
  -6   8  -7    1.48    0.21
   7  -8   7    3.97    0.32
  -7  -8  -7    3.93    0.34
  -7  -8  -7    3.54    0.33
   7  -8   7    3.56    0.37
  -7   8  -7    4.25    0.34
  -7   8  -7    3.96    0.34
   8  -8   7    0.72    0.15
  -8  -8  -7    0.57    0.15
  -8  -8  -7    0.58    0.14
  -8   8  -7    0.68    0.14
  -8   8  -7    0.59    0.12
  -9  -8  -7    1.36    0.20
   9  -8   7    1.70    0.24
  -9   8  -7    1.28    0.17
  -9   8  -7    0.80    0.17
  12  -9  -7    0.04    0.10
 -12   9   7    0.20    0.07
  11  -9  -7    4.72    0.38
  11  -9  -7    5.47    0.44
 -11   9   7    4.75    0.38
  11   9  -7    6.13    0.42
 -10  -9   7    0.05    0.08
  10  -9  -7   -0.07    0.12
  10  -9  -7    0.07    0.09
  10   9  -7    0.17    0.09
 -10   9   7   -0.08    0.06
   9  -9  -7    5.37    0.40
   9  -9  -7    5.82    0.46
  -9  -9   7    5.41    0.41
  -9   9   7    4.82    0.39
   9   9  -7    6.04    0.43
  -8  -9   7    0.15    0.10
   8  -9  -7    0.10    0.12
   8  -9  -7    0.07    0.09
  -8   9   7    0.05    0.07
   8   9  -7    0.18    0.11
   7  -9  -7    8.53    0.57
  -7  -9   7    8.53    0.60
   7  -9  -7    8.22    0.64
  -7   9   7    7.59    0.56
   7   9  -7    9.15    0.61
   6  -9  -7   -0.01    0.08
   6  -9  -7   -0.22    0.11
  -6  -9   7   -0.01    0.08
  -6   9   7   -0.11    0.07
   6   9  -7    0.01    0.09
  -5  -9   7    7.25    0.49
   5  -9  -7    6.37    0.53
   5  -9  -7    7.04    0.48
  -5   9   7    6.47    0.46
   5   9  -7    6.85    0.50
   4  -9  -7    0.08    0.12
   4  -9  -7    0.23    0.09
  -4  -9   7    0.22    0.09
  -4   9   7    0.15    0.07
   4   9  -7    0.12    0.10
   3  -9  -7    7.08    0.59
   3  -9  -7    8.80    0.53
  -3  -9   7    8.12    0.55
   3   9  -7    8.34    0.56
  -3   9   7    6.54    0.52
   2  -9  -7    0.69    0.14
   2  -9  -7    1.11    0.15
  -2  -9   7    1.06    0.15
  -2  -9   7    0.70    0.13
  -2  -9   7    1.04    0.13
   2   9  -7    1.02    0.14
  -2   9   7    0.85    0.11
  -1  -9   7    4.27    0.40
  -1  -9   7    5.17    0.36
   1  -9  -7    5.43    0.37
   1  -9  -7    4.44    0.40
  -1  -9   7    5.23    0.38
   1   9  -7    5.54    0.39
  -1   9   7    4.85    0.36
  -1   9   7    5.74    0.44
   0  -9   7    0.04    0.08
   0  -9  -7    0.07    0.08
   0  -9  -7    0.05    0.07
   0  -9  -7    0.06    0.09
   0  -9   7    0.00    0.08
   0   9  -7   -0.06    0.08
   0   9   7    0.07    0.07
   0   9   7    0.02    0.09
  -1  -9  -7   13.64    1.06
   1  -9   7   15.86    0.99
   1  -9   7   15.13    0.95
  -1  -9  -7   13.64    0.98
   1   9   7   15.70    1.12
  -1   9  -7   15.04    0.99
   1   9   7   14.12    0.96
  -2  -9  -7    0.19    0.10
   2  -9   7    0.00    0.09
  -2  -9  -7    0.12    0.07
  -2  -9  -7    0.07    0.09
   2  -9   7    0.02    0.08
   2   9   7    0.08    0.09
  -2   9  -7    0.00    0.07
   2   9   7    0.01    0.10
  -3  -9  -7   12.95    0.92
   3  -9   7   14.87    0.87
   3  -9   7   14.26    0.91
  -3  -9  -7   13.03    0.97
  -3   9  -7   13.46    0.92
  -3   9  -7   12.29    0.91
   3   9   7   12.70    0.89
  -4  -9  -7    1.16    0.16
  -4  -9  -7    1.50    0.18
   4  -9   7    0.88    0.14
  -4   9  -7    1.07    0.16
  -4   9  -7    0.74    0.13
   5  -9   7    1.26    0.16
  -5  -9  -7    1.21    0.17
  -5  -9  -7    1.21    0.19
  -5   9  -7    1.22    0.18
  -5   9  -7    1.20    0.17
   6  -9   7    0.03    0.11
  -6  -9  -7    0.14    0.11
  -6   9  -7    0.15    0.09
  -6   9  -7    0.08    0.10
   7  -9   7    6.64    0.47
  -7  -9  -7    6.31    0.48
  -7   9  -7    6.38    0.49
  -7   9  -7    5.93    0.48
  -8  -9  -7    0.47    0.14
  -8   9  -7    0.64    0.13
  -8   9  -7    0.69    0.14
  -9  -9  -7    1.71    0.23
  12 -10  -7    0.24    0.11
  11 -10  -7   -0.03    0.10
  11 -10  -7    0.20    0.09
  11  10  -7   -0.02    0.10
  10 -10  -7    1.15    0.16
  10 -10  -7    0.77    0.18
  10  10  -7    0.95    0.15
 -10  10   7    0.92    0.14
  -9 -10   7    0.02    0.09
   9 -10  -7   -0.20    0.13
   9 -10  -7    0.10    0.10
  -9  10   7    0.18    0.07
   9  10  -7    0.09    0.11
   8 -10  -7    2.60    0.24
  -8 -10   7    2.71    0.25
   8 -10  -7    2.11    0.27
  -8  10   7    2.28    0.21
   8  10  -7    2.98    0.27
   7 -10  -7    0.13    0.09
  -7 -10   7    0.09    0.10
   7 -10  -7    0.19    0.14
  -7  10   7    0.10    0.07
   7  10  -7    0.22    0.11
   6 -10  -7    0.22    0.10
  -6 -10   7    0.20    0.10
   6 -10  -7    0.03    0.14
   6  10  -7    0.18    0.11
  -6  10   7    0.12    0.07
   5 -10  -7    0.15    0.09
  -5 -10   7    0.15    0.09
   5 -10  -7   -0.13    0.12
   5  10  -7    0.07    0.10
  -5  10   7    0.10    0.08
   4 -10  -7    0.50    0.14
  -4 -10   7    0.44    0.11
   4 -10  -7    0.50    0.11
   4  10  -7    0.49    0.12
  -4  10   7    0.39    0.09
   3 -10  -7    0.35    0.12
   3 -10  -7    0.32    0.10
  -3 -10   7    0.31    0.09
  -3  10   7    0.31    0.08
   3  10  -7    0.26    0.10
  -2 -10   7    0.48    0.10
   2 -10  -7    0.40    0.10
   2 -10  -7    0.32    0.12
  -2 -10   7    0.41    0.10
  -2  10   7    0.36    0.09
   2  10  -7    0.45    0.11
   1 -10  -7    0.75    0.12
   1 -10  -7    0.73    0.13
  -1 -10   7    0.78    0.12
  -1 -10   7    0.69    0.12
   1 -10  -7    0.50    0.11
   1  10  -7    0.72    0.12
  -1  10   7    0.72    0.10
   0 -10  -7    1.43    0.17
   0 -10  -7    1.54    0.18
   0 -10   7    1.62    0.18
   0 -10  -7    1.55    0.18
   0 -10   7    1.28    0.19
   0  10  -7    1.22    0.19
   0  10   7    1.56    0.17
   1 -10   7    2.64    0.23
  -1 -10  -7    2.48    0.24
  -1 -10  -7    2.23    0.22
   1 -10   7    2.39    0.25
   1  10   7    2.58    0.23
  -1  10  -7    2.63    0.24
   2 -10   7    2.44    0.24
   2 -10   7    2.62    0.24
  -2  10  -7    2.39    0.23
   2  10   7    2.23    0.24
   3 -10   7    2.86    0.25
  -3 -10  -7    2.44    0.25
   3 -10   7    2.91    0.26
   3  10   7    2.64    0.27
  -3  10  -7    2.75    0.25
  -3  10  -7    2.71    0.25
  -4 -10  -7    0.80    0.13
   4 -10   7    0.67    0.13
  -4  10  -7    0.63    0.12
   4  10   7    0.70    0.15
  -4  10  -7    0.48    0.11
   5 -10   7    0.60    0.13
  -5 -10  -7    0.92    0.14
  -5  10  -7    0.62    0.12
  -5  10  -7    0.64    0.13
  -6 -10  -7    0.21    0.13
   6 -10   7    0.09    0.11
  -6  10  -7   -0.06    0.10
  -6  10  -7    0.02    0.09
   7 -10   7    2.78    0.28
  -7 -10  -7    2.70    0.28
  -7  10  -7    2.98    0.28
  -7  10  -7    3.17    0.29
  -8 -10  -7    0.14    0.13
  -8  10  -7   -0.05    0.09
  -8  10  -7   -0.06    0.10
  11 -11  -7    0.97    0.15
  11  11  -7    1.14    0.16
  10 -11  -7    0.00    0.10
  10 -11  -7    0.32    0.10
  10  11  -7   -0.10    0.11
  -9 -11   7    0.48    0.12
   9 -11  -7    0.55    0.12
   9 -11  -7    0.20    0.16
   9 -11  -7    0.43    0.13
   9  11  -7    0.40    0.13
   8 -11  -7    0.02    0.10
  -8 -11   7   -0.07    0.09
   8 -11  -7    0.10    0.11
   8 -11  -7   -0.21    0.15
   8  11  -7    0.13    0.11
   7 -11  -7    0.89    0.19
  -7 -11   7    1.34    0.20
   7 -11  -7    1.02    0.15
   7  11  -7    1.08    0.16
  -7  11   7    1.22    0.14
   6 -11  -7    0.08    0.10
  -6 -11   7   -0.07    0.10
   6  11  -7    0.00    0.10
  -6  11   7    0.00    0.07
   5 -11  -7    0.35    0.11
  -5 -11   7    0.28    0.12
   5 -11  -7    0.18    0.14
  -5  11   7    0.37    0.08
   5  11  -7    0.39    0.12
   4 -11  -7    0.21    0.10
  -4 -11   7   -0.01    0.09
   4 -11  -7    0.05    0.10
  -4  11   7    0.12    0.07
   4  11  -7    0.07    0.10
   3 -11  -7    1.29    0.16
  -3 -11   7    1.19    0.18
   3 -11  -7    1.15    0.16
   3  11  -7    1.42    0.20
  -3  11   7    1.25    0.15
   2 -11  -7    0.15    0.10
  -2 -11   7    0.09    0.09
   2 -11  -7    0.23    0.10
  -2 -11   7    0.13    0.10
   2  11  -7    0.05    0.09
  -2  11   7    0.21    0.08
   1 -11  -7    3.15    0.26
  -1 -11   7    3.14    0.27
   1 -11  -7    2.93    0.28
  -1 -11   7    2.98    0.26
  -1  11   7    2.91    0.25
   1  11  -7    3.43    0.29
   0 -11  -7    1.09    0.14
   0 -11   7    1.01    0.14
   0 -11   7    0.86    0.14
   0  11   7    1.06    0.16
   0  11  -7    1.00    0.14
  -1 -11  -7    1.99    0.21
   1 -11   7    2.36    0.24
   1 -11   7    2.18    0.22
  -1  11  -7    2.32    0.23
   1  11   7    2.29    0.21
   2 -11   7    1.75    0.21
   2 -11   7    1.94    0.22
   2  11   7    1.96    0.21
  -2  11  -7    1.89    0.21
   3 -11   7    0.58    0.13
   3 -11   7    0.74    0.12
  -3  11  -7    0.59    0.12
   3  11   7    0.53    0.13
  -3  11  -7    0.52    0.11
   4 -11   7    1.60    0.22
  -4  11  -7    1.93    0.21
   4  11   7    2.02    0.24
  -4  11  -7    1.95    0.22
   5 -11   7    0.31    0.12
  -5 -11  -7    0.18    0.11
  -5  11  -7    0.12    0.10
  -5  11  -7    0.26    0.11
   5  11   7    0.02    0.15
  -6 -11  -7    1.24    0.18
   6 -11   7    0.77    0.15
  -6  11  -7    0.71    0.14
   6  11   7    0.48    0.17
  -6  11  -7    0.86    0.13
  -7 -11  -7    0.21    0.13
   7 -11   7    0.44    0.13
  -7  11  -7    0.18    0.11
  -7  11  -7    0.35    0.10
   7  11   7   -0.17    0.16
  10 -12  -7    2.24    0.25
  10 -12  -7    2.08    0.23
  10  12  -7    2.52    0.26
  -9 -12   7   -0.08    0.10
   9 -12  -7    0.03    0.10
   9  12  -7    0.19    0.11
   8 -12  -7    7.24    0.54
  -8 -12   7    7.06    0.53
   8 -12  -7    6.73    0.51
   8  12  -7    7.50    0.54
   7 -12  -7    0.27    0.12
   7 -12  -7    0.34    0.11
  -7 -12   7    0.19    0.11
   7  12  -7    0.15    0.11
  -6 -12   7    3.49    0.32
   6 -12  -7    3.43    0.30
   6 -12  -7    3.32    0.32
   6  12  -7    3.57    0.32
  -5 -12   7   -0.09    0.10
   5 -12  -7    0.07    0.10
   5 -12  -7    0.03    0.11
   5  12  -7   -0.02    0.11
   4 -12  -7    3.87    0.32
  -4 -12   7    3.83    0.33
   4 -12  -7    3.78    0.34
   4  12  -7    4.00    0.34
   3 -12  -7   -0.05    0.10
   3 -12  -7    0.11    0.10
  -3 -12   7   -0.02    0.10
   3  12  -7   -0.01    0.10
   2 -12  -7    2.01    0.23
   2 -12  -7    2.26    0.22
  -2 -12   7    1.90    0.22
  -2 -12   7    2.04    0.23
   2  12  -7    2.15    0.23
  -2  12   7    1.95    0.20
   1 -12  -7   -0.02    0.10
  -1 -12   7   -0.09    0.10
   1 -12  -7    0.24    0.09
  -1 -12   7   -0.04    0.09
  -1  12   7   -0.19    0.08
   1  12  -7   -0.09    0.09
   0 -12   7    4.81    0.38
   0 -12  -7    4.51    0.36
   0 -12   7    4.62    0.35
   0  12  -7    4.78    0.37
   0  12   7    4.71    0.35
  -1 -12  -7    0.00    0.09
   1 -12   7    0.02    0.10
   1 -12   7   -0.04    0.10
   1  12   7   -0.14    0.09
  -1  12  -7   -0.01    0.09
   2 -12   7    4.79    0.38
   2 -12   7    5.92    0.41
   2  12   7    5.26    0.39
  -2  12  -7    4.79    0.40
   3 -12   7    0.17    0.10
   3 -12   7    0.12    0.11
   3  12   7    0.14    0.11
  -3  12  -7    0.10    0.10
  -3  12  -7    0.21    0.10
   4 -12   7    5.44    0.41
  -4  12  -7    5.51    0.42
  -4  12  -7    4.94    0.41
   4  12   7    5.75    0.42
   5 -12   7   -0.02    0.11
  -5  12  -7   -0.04    0.09
  -5  12  -7   -0.10    0.08
   5  12   7   -0.30    0.12
   6 -12   7    1.67    0.22
   6  12   7    1.64    0.25
  -6  12  -7    1.66    0.22
  -6  12  -7    2.03    0.21
   9 -13  -7    0.00    0.11
   9  13  -7    0.21    0.11
   8 -13  -7   -0.04    0.10
   8 -13  -7   -0.06    0.11
  -8 -13   7    0.04    0.11
   8  13  -7    0.04    0.10
   7 -13  -7    0.56    0.13
  -7 -13   7    0.41    0.12
   7 -13  -7    0.56    0.14
   7  13  -7    0.28    0.13
   6 -13  -7   -0.14    0.11
   6 -13  -7    0.03    0.11
  -6 -13   7   -0.11    0.10
   6  13  -7   -0.11    0.10
   5 -13  -7    0.58    0.13
   5 -13  -7    0.28    0.13
  -5 -13   7    0.35    0.12
   5  13  -7    0.33    0.12
  -4 -13   7    0.17    0.11
   4 -13  -7    0.11    0.12
   4 -13  -7    0.13    0.11
   4  13  -7    0.08    0.12
   3 -13  -7    0.32    0.12
   3 -13  -7    0.21    0.11
  -3 -13   7    0.20    0.11
   3  13  -7    0.26    0.11
   2 -13  -7   -0.11    0.10
   2 -13  -7    0.08    0.10
  -2 -13   7   -0.01    0.10
   2  13  -7   -0.03    0.10
  -1 -13   7    0.82    0.14
  -1 -13   7    0.87    0.14
   1 -13  -7    0.84    0.14
   1  13  -7    0.81    0.14
   0 -13  -7    0.31    0.11
   0 -13   7    0.18    0.11
   0 -13   7    0.15    0.10
   0  13  -7    0.21    0.10
  -1 -13  -7    1.01    0.15
   1 -13   7    1.42    0.19
   1 -13   7    1.44    0.19
  -1  13  -7    1.40    0.18
   2 -13   7    0.52    0.12
   2 -13   7    0.51    0.12
  -2  13  -7    0.42    0.12
   3 -13   7    0.38    0.12
  -3  13  -7    0.40    0.11
  -3  13  -7    0.26    0.10
   4 -13   7    0.72    0.14
  -4  13  -7    0.47    0.12
  -4  13  -7    0.70    0.11
   5 -13   7   -0.07    0.10
  -5  13  -7   -0.09    0.08
  -5  13  -7   -0.14    0.08
   7 -14  -7    0.00    0.10
   7 -14  -7   -0.14    0.10
  -7 -14   7   -0.09    0.11
   7  14  -7   -0.17    0.10
  -6 -14   7    1.07    0.17
   6 -14  -7    0.99    0.16
   6 -14  -7    0.93    0.17
   6  14  -7    0.98    0.16
  -5 -14   7   -0.18    0.10
   5 -14  -7   -0.04    0.10
   5 -14  -7   -0.25    0.10
   5  14  -7   -0.12    0.11
   4 -14  -7   -0.07    0.11
   4 -14  -7   -0.18    0.10
  -4 -14   7    0.12    0.10
   4  14  -7    0.18    0.11
   3 -14  -7    0.05    0.11
  -3 -14   7    0.05    0.10
   3 -14  -7   -0.03    0.10
   3  14  -7    0.04    0.11
  -2 -14   7    0.04    0.10
   2 -14  -7   -0.01    0.10
   2  14  -7   -0.04    0.10
   1 -14  -7    0.30    0.11
  -1 -14   7    0.53    0.12
  -1 -14   7    0.52    0.12
   1  14  -7    0.40    0.11
   0 -14   7    0.31    0.11
   0 -14  -7    0.14    0.11
   0 -14   7    0.15    0.11
   0  14  -7    0.12    0.10
   1 -14   7    0.31    0.11
   1 -14   7    0.28    0.11
  -1  14  -7    0.27    0.10
   2 -14   7   -0.07    0.10
   2 -14   7    0.05    0.10
  -2  14  -7   -0.02    0.09
  -2  14  -7   -0.03    0.09
   3 -14   7    0.26    0.11
  -3  14  -7    0.13    0.10
  -3  14  -7    0.21    0.10
   4 -15  -7   -0.09    0.11
  -4 -15   7   -0.05    0.11
   4 -15  -7    0.11    0.12
   4  15  -7    0.05    0.11
   3 -15  -7    3.43    0.32
  -3 -15   7    3.57    0.31
   3 -15  -7    3.19    0.31
   3  15  -7    3.48    0.31
   2 -15  -7   -0.13    0.11
  -2 -15   7   -0.10    0.10
   2  15  -7    0.06    0.10
   1 -15  -7    2.79    0.26
  -1 -15   7    2.41    0.26
   1  15  -7    2.55    0.25
   0 -15   7   -0.04    0.10
   0 -15  -7    0.04    0.10
   0 -15   7    0.19    0.10
   0  15  -7   -0.08    0.09
   1 -15   7    0.73    0.14
 -15   0   8    0.08    0.09
 -14   0   8    4.68    0.36
  14   0  -8    4.59    0.39
 -14   0   8    4.81    0.41
  13   0  -8    0.44    0.10
 -13   0   8   -0.02    0.09
 -13   0   8    0.19    0.11
  12   0  -8   18.81    1.53
 -12   0   8   23.28    1.38
 -12   0   8   21.95    1.55
 -11   0   8    0.22    0.08
 -11   0   8    0.35    0.11
  11   0  -8    0.57    0.12
  10   0  -8   24.64    1.75
 -10   0   8   28.84    2.01
 -10   0   8   31.48    1.79
  10   0  -8   27.58    2.00
   8   0  -8   15.78    1.05
   8   0  -8   15.91    1.20
  -8   0   8   16.94    1.21
  -8   0   8   17.51    1.12
  -8   0   8   17.39    1.07
  -7   0   8    0.03    0.06
   7   0  -8    0.10    0.10
  -7   0   8    0.00    0.08
  -7   0   8   -0.07    0.08
  -6   0   8    0.20    0.06
  -6   0   8    0.16    0.09
   6   0  -8    0.24    0.10
  -6   0   8    0.26    0.08
   5   0  -8    0.36    0.10
  -5   0   8   -0.06    0.09
  -4   0   8   65.08    5.00
  -4   0   8   73.87    4.42
   4   0  -8   67.64    4.76
  -4   0   8   66.86    4.81
  -4   0   8   67.08    4.27
  -3   0   8    0.09    0.07
   3   0  -8   -0.07    0.04
  -3   0   8   -0.05    0.05
  -3   0   8    0.00    0.07
  -3   0   8   -0.05    0.07
   3   0  -8   -0.04    0.09
   2   0  -8   69.99    4.51
  -2   0   8   63.88    4.74
   2   0  -8   61.54    4.18
  -2   0   8   65.16    4.05
  -2   0   8   62.26    4.56
   1   0  -8    0.12    0.08
  -1   0   8    0.19    0.06
  -1   0   8    0.36    0.08
   0   0   8   54.47    4.20
   0   0   8   59.57    3.58
   0   0   8   57.29    3.70
   0   0  -8   54.28    3.78
   0   0  -8   56.01    3.70
   0   0  -8   60.64    3.98
  -1   0  -8    0.14    0.08
   1   0   8   -0.10    0.05
   1   0   8    0.16    0.08
  -1   0  -8    0.15    0.06
  -1   0  -8    0.05    0.06
  -2   0  -8   49.96    3.20
  -2   0  -8   50.84    3.44
   2   0   8   50.48    3.63
  -2   0  -8   45.50    3.27
  -4   0  -8    7.26    0.49
  -4   0  -8    6.57    0.51
  -4   0  -8    6.67    0.49
   4   0   8    6.48    0.55
  -5   0  -8    0.77    0.14
  -6   0  -8    7.72    0.58
  -6   0  -8    8.62    0.57
   6   0   8    7.79    0.65
  -6   0  -8    7.61    0.60
  -7   0  -8    0.09    0.09
  -7   0  -8    0.00    0.12
  -7   0  -8    0.11    0.10
   7   0   8    0.24    0.14
   8   0   8    6.52    0.58
  -8   0  -8    6.41    0.52
  -8   0  -8    6.48    0.50
  -8   0  -8    7.04    0.52
  -9   0  -8   -0.08    0.12
  -9   0  -8    0.07    0.11
   9   0   8    0.06    0.15
 -10   0  -8    4.87    0.41
 -10   0  -8    4.85    0.42
  10   0   8    5.36    0.47
 -15  -1   8    0.72    0.12
 -15   1   8    0.46    0.12
  14  -1  -8    0.27    0.11
 -14  -1   8    0.28    0.12
 -14  -1   8    0.02    0.09
  14  -1  -8    0.24    0.11
  14   1  -8    0.50    0.12
 -14   1   8    0.25    0.12
 -14   1   8    0.13    0.09
 -13  -1   8    1.84    0.20
 -13  -1   8    1.65    0.23
  13  -1  -8    2.01    0.22
  13   1  -8    1.99    0.22
 -13   1   8    1.82    0.20
 -13   1   8    1.84    0.24
  12  -1  -8    1.44    0.20
 -12  -1   8    1.46    0.22
 -12   1   8    1.15    0.17
 -12   1   8    1.54    0.22
  11  -1  -8    6.75    0.55
 -11  -1   8    7.39    0.56
 -11  -1   8    7.53    0.49
 -11   1   8    7.63    0.50
 -11   1   8    7.08    0.56
  11   1  -8    6.25    0.55
 -10  -1   8    1.90    0.22
  10  -1  -8    1.35    0.22
  10   1  -8    1.95    0.23
 -10   1   8    2.19    0.23
  -9  -1   8   23.13    1.49
   9  -1  -8   23.22    1.61
   9  -1  -8   22.97    1.42
  -9  -1   8   23.66    1.44
  -9  -1   8   19.79    1.62
   9   1  -8   21.92    1.41
   9   1  -8   21.23    1.61
  -9   1   8   24.39    1.44
  -9   1   8   22.83    1.62
  -8  -1   8    0.40    0.10
   8  -1  -8    0.50    0.12
  -8  -1   8    0.54    0.10
  -8  -1   8    0.42    0.07
   8  -1  -8    0.24    0.08
  -8   1   8    0.29    0.09
  -7  -1   8    2.16    0.23
   7  -1  -8    2.27    0.25
  -7  -1   8    2.22    0.19
   7  -1  -8    2.16    0.19
  -7  -1   8    2.17    0.22
  -7   1   8    2.02    0.22
  -7   1   8    2.26    0.19
  -7   1   8    1.92    0.23
   7   1  -8    2.31    0.24
  -6  -1   8    0.04    0.06
   6  -1  -8    0.19    0.10
  -6  -1   8   -0.05    0.08
  -6  -1   8    0.16    0.08
   6   1  -8    0.08    0.09
  -6   1   8    0.06    0.06
  -6   1   8    0.03    0.08
  -6   1   8    0.04    0.08
   5  -1  -8   10.05    0.74
  -5  -1   8   10.62    0.68
  -5  -1   8    9.61    0.73
  -5  -1   8    9.59    0.65
  -5   1   8   10.21    0.69
  -5   1   8    9.38    0.73
  -5   1   8    9.90    0.65
   5   1  -8   10.42    0.73
  -4  -1   8    5.82    0.44
   4  -1  -8    5.25    0.44
  -4  -1   8    5.81    0.43
  -4  -1   8    5.15    0.41
  -4   1   8    5.21    0.38
   4   1  -8    5.26    0.38
  -4   1   8    5.44    0.45
  -4   1   8    6.16    0.43
   3  -1  -8    1.35    0.18
  -3  -1   8    1.12    0.16
  -3  -1   8    1.18    0.16
  -3  -1   8    0.98    0.12
  -3  -1   8    1.33    0.17
  -3   1   8    1.03    0.13
  -3   1   8    0.85    0.12
  -3   1   8    1.21    0.17
   3   1  -8    1.11    0.17
  -3   1   8    1.20    0.13
   3   1  -8    0.74    0.12
  -2  -1   8    7.84    0.61
   2  -1  -8   10.11    0.69
  -2  -1   8    9.98    0.71
  -2  -1   8    9.57    0.69
   2  -1  -8    8.44    0.62
   2   1  -8    8.71    0.63
  -2   1   8   10.60    0.72
  -2   1   8    9.72    0.61
   2   1  -8    8.64    0.68
  -2   1   8   10.34    0.69
   1  -1  -8   11.78    0.83
  -1  -1   8   12.76    0.77
  -1  -1   8   10.97    0.73
  -1  -1   8   11.68    0.86
   1  -1  -8   10.62    0.76
   1   1  -8   11.60    0.76
   1   1  -8   10.07    0.77
  -1   1   8   11.05    0.86
   1   1  -8   12.45    0.82
  -1   1   8   11.30    0.74
   0  -1   8    5.06    0.43
   0  -1   8    6.38    0.42
   0  -1   8    5.86    0.49
   0  -1  -8    6.42    0.43
   0   1  -8    7.03    0.43
   0   1  -8    5.25    0.43
   0   1  -8    7.06    0.46
   0   1   8    5.71    0.44
  -1  -1  -8    2.71    0.26
   1  -1   8    3.34    0.26
   1  -1   8    3.76    0.31
  -1  -1  -8    3.21    0.28
  -1  -1  -8    3.16    0.27
  -1   1  -8    3.64    0.27
   1   1   8    3.74    0.32
  -1   1  -8    3.73    0.27
  -1   1  -8    3.15    0.28
   2  -1   8    9.24    0.74
  -2   1  -8   10.19    0.70
  -2   1  -8    9.72    0.66
  -2   1  -8    9.15    0.67
  -3  -1  -8   17.18    1.29
  -3  -1  -8   18.59    1.27
   3  -1   8   20.90    1.44
  -3  -1  -8   17.48    1.36
  -3   1  -8   20.93    1.36
   3   1   8   18.03    1.43
  -3   1  -8   20.03    1.27
  -3   1  -8   19.75    1.29
   4  -1   8    2.16    0.27
  -4  -1  -8    2.61    0.23
  -4   1  -8    2.23    0.23
  -4   1  -8    2.40    0.22
  -4   1  -8    1.85    0.22
  -5  -1  -8    6.25    0.52
  -5  -1  -8    6.92    0.51
  -5  -1  -8    6.88    0.53
  -5   1  -8    7.10    0.53
  -5   1  -8    7.76    0.51
  -5   1  -8    7.20    0.52
   5   1   8    6.76    0.58
   6  -1   8    2.36    0.29
  -6   1  -8    2.55    0.24
  -6   1  -8    2.22    0.23
  -6   1  -8    2.02    0.24
  -7  -1  -8    0.86    0.17
  -7  -1  -8    0.93    0.15
  -7  -1  -8    1.01    0.16
   7   1   8    0.89    0.18
  -7   1  -8    1.19    0.17
  -7   1  -8    1.02    0.16
  -7   1  -8    1.61    0.20
   8  -1   8    2.82    0.34
  -8   1  -8    2.55    0.27
   8   1   8    3.87    0.35
  -8   1  -8    2.72    0.28
  -8   1  -8    2.92    0.30
   9  -1   8    0.16    0.17
  -9  -1  -8    0.07    0.12
  -9  -1  -8    0.03    0.12
   9   1   8    0.15    0.16
  -9   1  -8    0.32    0.12
  -9   1  -8    0.22    0.13
 -10  -1  -8    3.93    0.34
  10  -1   8    3.28    0.38
 -10   1  -8    3.20    0.32
 -10   1  -8    3.36    0.32
  10   1   8    3.64    0.38
  15  -2  -8    0.90    0.17
 -15  -2   8    0.58    0.13
 -15   2   8    0.72    0.13
  14  -2  -8    0.24    0.12
 -14  -2   8    0.17    0.11
 -14  -2   8    0.20    0.09
  14  -2  -8    0.19    0.12
 -14   2   8    0.18    0.10
 -13  -2   8    0.22    0.10
 -13  -2   8    0.23    0.12
  13  -2  -8    0.36    0.12
 -13   2   8    0.22    0.09
 -13   2   8    0.15    0.12
  13   2  -8    0.35    0.11
 -12  -2   8   -0.01    0.09
  12  -2  -8    0.20    0.12
 -12  -2   8    0.02    0.11
 -12   2   8    0.17    0.11
 -12   2   8    0.17    0.09
  12   2  -8    0.31    0.11
 -11  -2   8    0.24    0.09
  11  -2  -8    0.25    0.12
 -11  -2   8    0.32    0.11
 -11  -2   8    0.24    0.09
 -11   2   8    0.35    0.11
 -11   2   8    0.28    0.09
  11   2  -8    0.28    0.11
 -10  -2   8    0.09    0.07
 -10  -2   8    0.09    0.08
 -10  -2   8    0.01    0.09
  10  -2  -8    0.17    0.11
  10  -2  -8    0.19    0.08
 -10   2   8    0.11    0.09
 -10   2   8    0.06    0.07
  10   2  -8    0.05    0.09
   9  -2  -8    0.19    0.08
  -9  -2   8    0.20    0.07
  -9  -2   8    0.05    0.09
   9  -2  -8    0.25    0.11
  -9  -2   8    0.32    0.10
   9   2  -8    0.20    0.07
   9   2  -8    0.28    0.10
  -9   2   8    0.26    0.07
   8  -2  -8    0.83    0.11
  -8  -2   8    0.74    0.12
  -8  -2   8    0.79    0.10
  -8  -2   8    0.81    0.11
   8  -2  -8    1.00    0.15
  -8   2   8    1.00    0.13
   8   2  -8    0.99    0.14
  -8   2   8    0.78    0.12
   7  -2  -8    0.38    0.12
  -7  -2   8    0.27    0.09
  -7  -2   8    0.22    0.06
  -7  -2   8    0.24    0.08
   7  -2  -8    0.18    0.07
  -7   2   8    0.19    0.09
  -7   2   8    0.24    0.07
   7   2  -8    0.27    0.10
   6  -2  -8    0.17    0.11
   6  -2  -8    0.20    0.07
  -6  -2   8    0.12    0.09
  -6  -2   8    0.16    0.06
  -6  -2   8    0.18    0.08
   6   2  -8    0.21    0.09
  -6   2   8    0.16    0.06
  -6   2   8    0.14    0.08
  -5  -2   8    1.00    0.12
   5  -2  -8    0.96    0.14
  -5  -2   8    0.80    0.11
  -5  -2   8    1.28    0.17
  -5   2   8    1.10    0.13
   5   2  -8    0.91    0.12
  -5   2   8    0.89    0.13
   5   2  -8    1.02    0.12
  -5   2   8    1.08    0.17
   4  -2  -8    1.26    0.20
  -4  -2   8    0.96    0.12
  -4  -2   8    0.98    0.13
  -4  -2   8    0.92    0.12
  -4   2   8    1.14    0.18
  -4   2   8    1.14    0.13
   4   2  -8    1.05    0.16
  -4   2   8    1.08    0.13
   4   2  -8    1.05    0.12
  -4   2   8    1.16    0.16
  -3  -2   8    0.13    0.07
  -3  -2   8    0.06    0.08
  -3  -2   8    0.04    0.07
   3  -2  -8    0.10    0.09
  -3  -2   8    0.11    0.05
   3   2  -8    0.10    0.05
   3   2  -8    0.11    0.08
  -3   2   8    0.12    0.07
  -3   2   8    0.09    0.07
  -3   2   8    0.07    0.08
  -3   2   8    0.08    0.06
   2  -2  -8    8.46    0.58
  -2  -2   8    7.11    0.58
  -2  -2   8    8.36    0.60
  -2  -2   8    7.57    0.50
  -2  -2   8    7.26    0.54
   2   2  -8    7.35    0.53
   2   2  -8    7.79    0.57
  -2   2   8    8.70    0.58
  -2   2   8    6.94    0.60
  -2   2   8    8.14    0.51
  -1  -2   8    3.23    0.28
  -1  -2   8    3.55    0.31
  -1  -2   8    3.37    0.25
   1  -2  -8    3.44    0.26
   1  -2  -8    3.81    0.31
   1   2  -8    3.67    0.29
   1   2  -8    3.08    0.27
  -1   2   8    3.94    0.26
  -1   2   8    3.87    0.30
   1   2  -8    2.91    0.26
  -1   2   8    4.30    0.31
   0  -2  -8   -0.01    0.08
   0  -2   8   -0.01    0.06
   0  -2   8    0.00    0.06
   0  -2  -8    0.14    0.05
   0  -2   8    0.06    0.08
   0  -2  -8    0.05    0.06
   0   2  -8    0.04    0.06
   0   2  -8    0.08    0.07
   0   2   8    0.12    0.08
   0   2   8    0.11    0.08
   0   2  -8    0.04    0.05
   1  -2   8    4.87    0.38
  -1  -2  -8    3.88    0.32
  -1  -2  -8    4.41    0.35
   1  -2   8    4.19    0.32
  -1  -2  -8    4.36    0.33
  -1   2  -8    4.54    0.35
   1   2   8    4.43    0.38
  -1   2  -8    4.63    0.32
  -1   2  -8    4.08    0.33
  -2  -2  -8    0.09    0.07
  -2  -2  -8    0.04    0.08
   2  -2   8    0.09    0.09
  -2   2  -8   -0.04    0.07
   2   2   8    0.10    0.09
  -2   2  -8    0.09    0.08
  -2   2  -8    0.06    0.06
  -3  -2  -8   19.08    1.11
  -3  -2  -8   16.34    1.18
  -3  -2  -8   16.57    1.12
   3  -2   8   14.88    1.24
  -3   2  -8   15.48    1.18
  -3   2  -8   16.09    1.12
  -3   2  -8   16.83    1.10
   3   2   8   16.82    1.25
  -4  -2  -8    0.23    0.10
   4  -2   8    0.10    0.11
  -4  -2  -8    0.17    0.08
  -4  -2  -8    0.13    0.08
  -4   2  -8    0.05    0.08
  -4   2  -8    0.17    0.08
   4   2   8    0.21    0.11
  -4   2  -8    0.13    0.09
   5  -2   8    9.56    0.76
  -5  -2  -8    9.90    0.69
  -5  -2  -8    9.00    0.71
  -5  -2  -8   11.16    0.69
  -5   2  -8    9.56    0.69
   5   2   8    9.18    0.77
  -5   2  -8    8.74    0.71
  -5   2  -8   10.32    0.68
  -6  -2  -8    0.52    0.11
   6  -2   8    0.48    0.14
  -6  -2  -8    0.64    0.12
  -6  -2  -8    0.71    0.13
  -6   2  -8    0.51    0.11
   6   2   8    0.57    0.14
  -6   2  -8    0.34    0.12
  -6   2  -8    0.38    0.11
  -7  -2  -8    5.38    0.40
  -7  -2  -8    4.70    0.41
  -7  -2  -8    4.33    0.40
   7  -2   8    5.10    0.46
   7   2   8    4.78    0.46
  -7   2  -8    4.74    0.40
  -7   2  -8    5.35    0.40
  -7   2  -8    5.10    0.40
  -8  -2  -8    0.18    0.11
   8  -2   8    0.07    0.14
  -8  -2  -8    0.14    0.10
  -8  -2  -8    0.24    0.13
  -8   2  -8    0.02    0.12
   8   2   8    0.24    0.15
  -8   2  -8   -0.13    0.09
   9  -2   8    1.01    0.20
  -9  -2  -8    0.86    0.15
  -9  -2  -8    1.04    0.18
  -9   2  -8    1.12    0.17
   9   2   8    0.72    0.18
  -9   2  -8    0.99    0.17
  10  -2   8    0.37    0.17
 -10  -2  -8    0.42    0.15
 -10   2  -8    0.29    0.14
  10   2   8    0.66    0.16
 -10   2  -8    0.24    0.13
 -14  -3   8   -0.02    0.11
 -14  -3   8    0.03    0.09
 -14   3   8    0.01    0.08
 -13  -3   8    5.39    0.45
  13  -3  -8    4.99    0.44
 -13  -3   8    5.27    0.40
 -13   3   8    5.25    0.39
 -13   3   8    5.48    0.45
  12  -3  -8    0.05    0.11
 -12  -3   8    0.07    0.10
 -12  -3   8    0.02    0.09
 -12   3   8    0.07    0.08
 -12   3   8    0.15    0.11
 -11  -3   8   12.71    0.91
  11  -3  -8   13.34    0.87
 -11  -3   8   13.18    1.00
  11  -3  -8   13.29    1.00
 -11  -3   8   14.83    0.89
 -11   3   8   13.68    0.89
 -11   3   8   14.77    1.00
  11   3  -8   12.78    0.98
 -10  -3   8    0.01    0.09
  10  -3  -8    0.01    0.08
 -10  -3   8   -0.14    0.07
  10  -3  -8    0.00    0.11
 -10  -3   8    0.05    0.08
  10   3  -8    0.01    0.08
 -10   3   8    0.07    0.09
 -10   3   8   -0.01    0.07
  -9  -3   8   22.27    1.56
  -9  -3   8   23.56    1.71
   9  -3  -8   24.45    1.70
  -9  -3   8   23.67    1.52
   9  -3  -8   24.51    1.49
   9   3  -8   22.54    1.68
  -9   3   8   24.32    1.70
  -9   3   8   24.88    1.52
  -8  -3   8   -0.04    0.06
   8  -3  -8    0.04    0.11
  -8  -3   8    0.24    0.09
   8  -3  -8    0.03    0.07
  -8  -3   8    0.09    0.08
   8   3  -8    0.15    0.08
  -8   3   8    0.11    0.09
  -8   3   8    0.03    0.06
  -7  -3   8    0.38    0.10
  -7  -3   8    0.48    0.09
   7  -3  -8    0.34    0.12
  -7  -3   8    0.38    0.07
   7  -3  -8    0.42    0.08
  -7   3   8    0.42    0.10
  -7   3   8    0.36    0.08
   7   3  -8    0.57    0.10
   6  -3  -8    0.20    0.07
  -6  -3   8    0.15    0.08
   6  -3  -8    0.33    0.11
  -6  -3   8    0.24    0.06
  -6  -3   8    0.16    0.09
   6   3  -8    0.22    0.07
   6   3  -8    0.29    0.08
  -6   3   8    0.18    0.08
  -6   3   8    0.28    0.07
   5  -3  -8   19.99    1.43
  -5  -3   8   19.56    1.27
  -5  -3   8   21.89    1.32
   5  -3  -8   20.43    1.25
  -5  -3   8   20.57    1.43
  -5   3   8   18.72    1.27
  -5   3   8   22.54    1.43
   5   3  -8   18.23    1.41
   5   3  -8   18.11    1.31
  -4  -3   8   -0.10    0.08
  -4  -3   8    0.06    0.04
  -4  -3   8    0.04    0.07
   4  -3  -8    0.08    0.06
  -4  -3   8    0.08    0.06
   4  -3  -8    0.00    0.10
   4   3  -8    0.02    0.05
  -4   3   8    0.03    0.08
  -4   3   8   -0.04    0.06
   4   3  -8    0.07    0.07
  -4   3   8    0.06    0.08
  -3  -3   8    0.57    0.06
  -3  -3   8    0.49    0.08
   3  -3  -8    0.69    0.12
  -3  -3   8    0.59    0.10
  -3  -3   8    0.53    0.09
   3   3  -8    0.39    0.07
   3   3  -8    0.53    0.09
  -3   3   8    0.50    0.08
  -3   3   8    0.49    0.09
  -3   3   8    0.58    0.09
  -2  -3   8    0.30    0.05
   2  -3  -8    0.49    0.11
  -2  -3   8    0.21    0.07
  -2  -3   8    0.22    0.07
  -2  -3   8    0.31    0.10
   2   3  -8    0.30    0.08
   2   3  -8    0.28    0.06
  -2   3   8    0.30    0.08
  -2   3   8    0.37    0.07
  -2   3   8    0.37    0.08
   1  -3  -8   10.71    0.83
  -1  -3   8   10.78    0.80
  -1  -3   8   12.87    0.95
   1  -3  -8   13.95    0.92
  -1  -3   8   14.07    0.85
  -1   3   8   13.19    0.82
  -1   3   8   13.30    0.96
   1   3  -8   12.67    0.84
   1   3  -8   12.46    0.90
  -1   3   8   14.02    0.92
   1   3  -8   11.57    0.85
   0  -3   8    0.57    0.10
   0  -3   8    0.51    0.07
   0  -3  -8    0.53    0.08
   0  -3  -8    0.74    0.11
   0  -3   8    0.48    0.08
   0   3  -8    0.55    0.08
   0   3  -8    0.68    0.09
   0   3   8    0.81    0.10
   0   3   8    0.62    0.10
   0   3  -8    0.63    0.08
  -1  -3  -8   17.36    1.23
  -1  -3  -8   16.89    1.14
   1  -3   8   16.47    1.10
   1  -3   8   18.69    1.14
   1  -3   8   17.98    1.29
  -1  -3  -8   15.66    1.16
  -1   3  -8   17.82    1.22
   1   3   8   18.06    1.29
  -1   3  -8   16.59    1.16
  -1   3  -8   17.02    1.14
  -2  -3  -8    2.39    0.22
  -2  -3  -8    2.02    0.21
   2  -3   8    2.54    0.26
  -2  -3  -8    2.44    0.24
   2  -3   8    2.53    0.20
   2   3   8    2.43    0.27
  -2   3  -8    2.70    0.22
  -2   3  -8    2.55    0.22
  -2   3  -8    2.30    0.22
  -3  -3  -8   18.33    1.24
  -3  -3  -8   19.41    1.31
   3  -3   8   17.67    1.38
  -3  -3  -8   19.15    1.23
  -3   3  -8   16.56    1.24
   3   3   8   19.38    1.38
  -3   3  -8   18.76    1.30
  -3   3  -8   17.36    1.22
   4  -3   8    0.33    0.11
  -4  -3  -8    0.42    0.11
  -4  -3  -8    0.33    0.09
  -4  -3  -8    0.33    0.10
  -4   3  -8    0.33    0.09
  -4   3  -8    0.34    0.10
  -4   3  -8    0.49    0.10
   4   3   8    0.29    0.12
  -5  -3  -8    6.71    0.58
  -5  -3  -8    8.64    0.56
   5  -3   8    7.65    0.63
  -5  -3  -8    8.51    0.57
  -5   3  -8    7.19    0.55
  -5   3  -8    7.53    0.58
  -5   3  -8    7.31    0.55
   5   3   8    7.88    0.63
  -6  -3  -8    1.08    0.15
  -6  -3  -8    1.40    0.21
  -6  -3  -8    0.95    0.14
   6  -3   8    0.92    0.17
  -6   3  -8    1.00    0.16
  -6   3  -8    0.87    0.14
   6   3   8    1.10    0.17
  -6   3  -8    0.88    0.14
  -7  -3  -8    4.99    0.41
  -7  -3  -8    5.13    0.39
   7  -3   8    5.09    0.46
  -7  -3  -8    4.38    0.40
  -7   3  -8    4.72    0.40
  -7   3  -8    5.07    0.39
  -7   3  -8    5.11    0.40
   7   3   8    4.97    0.46
   8  -3   8    0.21    0.15
  -8  -3  -8    0.19    0.11
  -8  -3  -8    0.20    0.14
  -8   3  -8    0.12    0.12
   8   3   8    0.16    0.15
  -8   3  -8    0.07    0.10
  -9  -3  -8    0.31    0.11
  -9  -3  -8    0.31    0.13
   9  -3   8    0.37    0.17
   9   3   8    0.20    0.16
  -9   3  -8    0.19    0.11
  -9   3  -8    0.10    0.13
  10  -3   8    0.20    0.16
 -10  -3  -8    0.22    0.13
 -10   3  -8   -0.11    0.12
  10   3   8   -0.23    0.15
 -10   3  -8    0.06    0.11
 -14  -4   8    2.64    0.29
 -14  -4   8    2.93    0.25
 -14   4   8    2.49    0.23
 -13  -4   8    0.32    0.11
  13  -4  -8    0.10    0.11
 -13  -4   8   -0.06    0.08
 -13   4   8    0.00    0.11
 -13   4   8    0.07    0.08
 -12  -4   8    7.86    0.51
  12  -4  -8    6.89    0.57
 -12  -4   8    7.22    0.57
 -12   4   8    6.44    0.50
 -12   4   8    7.91    0.58
 -11  -4   8    0.06    0.08
  11  -4  -8    0.15    0.11
 -11  -4   8    0.10    0.08
  11  -4  -8    0.14    0.09
 -11  -4   8    0.15    0.10
 -11   4   8    0.28    0.11
 -11   4   8    0.13    0.08
  10  -4  -8    4.51    0.39
 -10  -4   8    4.31    0.39
 -10  -4   8    4.98    0.34
 -10  -4   8    4.39    0.35
  10  -4  -8    4.54    0.34
 -10   4   8    4.99    0.39
 -10   4   8    4.74    0.34
  -9  -4   8    0.27    0.10
  -9  -4   8    0.23    0.09
  -9  -4   8    0.11    0.08
   9  -4  -8    0.16    0.09
   9  -4  -8    0.37    0.12
  -9   4   8    0.44    0.10
  -9   4   8    0.33    0.08
  -8  -4   8    5.14    0.39
  -8  -4   8    5.05    0.43
  -8  -4   8    5.41    0.38
   8  -4  -8    5.50    0.38
   8  -4  -8    5.82    0.44
  -8   4   8    5.40    0.38
  -8   4   8    5.39    0.43
   7  -4  -8    0.01    0.11
   7  -4  -8   -0.03    0.07
  -7  -4   8   -0.01    0.09
  -7  -4   8   -0.08    0.05
  -7  -4   8    0.05    0.07
   7   4  -8    0.03    0.07
  -7   4   8    0.04    0.06
  -7   4   8    0.05    0.07
  -6  -4   8    5.25    0.38
   6  -4  -8    5.16    0.35
  -6  -4   8    4.70    0.34
  -6  -4   8    4.84    0.41
   6  -4  -8    5.11    0.42
   6   4  -8    5.00    0.37
  -6   4   8    5.44    0.40
   6   4  -8    4.48    0.38
  -6   4   8    5.51    0.36
  -5  -4   8    0.00    0.04
   5  -4  -8    0.03    0.06
  -5  -4   8    0.02    0.08
   5  -4  -8   -0.01    0.10
  -5  -4   8    0.03    0.07
  -5   4   8    0.10    0.06
  -5   4   8    0.08    0.08
   5   4  -8    0.05    0.07
   5   4  -8    0.05    0.07
  -4  -4   8    2.57    0.25
  -4  -4   8    3.26    0.24
  -4  -4   8    2.76    0.24
  -4  -4   8    2.72    0.19
   4  -4  -8    3.16    0.28
   4  -4  -8    2.38    0.21
   4   4  -8    2.37    0.23
  -4   4   8    2.31    0.21
  -4   4   8    2.91    0.24
  -4   4   8    2.56    0.27
   4   4  -8    2.61    0.23
   3  -4  -8    0.08    0.10
   3  -4  -8    0.10    0.06
  -3  -4   8    0.06    0.08
  -3  -4   8    0.07    0.07
  -3  -4   8    0.00    0.05
   3   4  -8   -0.04    0.06
  -3   4   8    0.14    0.08
   3   4  -8    0.15    0.06
  -3   4   8    0.11    0.08
  -3   4   8    0.15    0.06
  -2  -4   8    9.33    0.76
   2  -4  -8   10.83    0.65
  -2  -4   8    9.91    0.69
   2  -4  -8   10.49    0.75
  -2  -4   8    9.83    0.75
   2   4  -8   10.15    0.68
  -2   4   8   10.31    0.74
  -2   4   8   10.77    0.66
  -2   4   8   10.43    0.77
   2   4  -8    9.21    0.72
   1  -4  -8    0.26    0.06
  -1  -4   8    0.20    0.07
   1  -4  -8    0.17    0.10
  -1  -4   8    0.07    0.07
   1   4  -8    0.22    0.07
  -1   4   8    0.17    0.08
   1   4  -8    0.24    0.07
  -1   4   8    0.39    0.07
  -1   4   8    0.31    0.09
   0  -4   8    5.16    0.39
   0  -4  -8    5.01    0.38
   0  -4  -8    4.97    0.32
   0  -4   8    4.82    0.35
   0   4   8    4.66    0.34
   0   4  -8    3.99    0.34
   0   4  -8    4.68    0.36
   0   4   8    5.07    0.40
   0   4   8    4.28    0.37
   0   4  -8    4.67    0.35
  -1  -4  -8    0.80    0.10
  -1  -4  -8    0.76    0.09
  -1  -4  -8    0.83    0.12
   1  -4   8    0.63    0.09
   1  -4   8    0.81    0.12
  -1  -4  -8    0.64    0.09
   1   4   8    0.79    0.12
  -1   4  -8    0.73    0.09
  -1   4  -8    0.88    0.10
  -1   4  -8    0.78    0.10
  -2  -4  -8   13.11    0.95
  -2  -4  -8   14.28    0.94
   2  -4   8   14.31    0.93
   2  -4   8   14.32    1.06
  -2  -4  -8   13.14    1.01
  -2  -4  -8   14.71    0.88
   2   4   8   14.92    1.06
  -2   4  -8   12.77    0.95
  -2   4  -8   14.40    0.94
  -2   4  -8   14.17    1.00
   3  -4   8    1.22    0.21
  -3  -4  -8    1.00    0.16
  -3  -4  -8    1.21    0.17
  -3  -4  -8    1.58    0.18
  -3   4  -8    1.31    0.16
  -3   4  -8    1.14    0.16
   3   4   8    1.06    0.16
  -3   4  -8    1.39    0.16
  -4  -4  -8    6.23    0.49
  -4  -4  -8    6.05    0.47
   4  -4   8    6.40    0.53
  -4  -4  -8    6.59    0.47
  -4   4  -8    5.83    0.47
  -4   4  -8    6.13    0.46
   4   4   8    7.01    0.53
  -4   4  -8    6.89    0.49
   5  -4   8    1.22    0.18
  -5  -4  -8    1.02    0.17
  -5  -4  -8    1.23    0.19
  -5   4  -8    1.20    0.17
  -5   4  -8    1.53    0.18
  -5   4  -8    1.51    0.18
   5   4   8    1.12    0.17
  -6  -4  -8    1.69    0.23
  -6  -4  -8    1.70    0.21
   6  -4   8    1.75    0.26
  -6   4  -8    1.79    0.21
  -6   4  -8    1.71    0.21
  -6   4  -8    2.02    0.20
   6   4   8    1.81    0.26
  -7  -4  -8    1.86    0.22
   7  -4   8    1.66    0.28
  -7  -4  -8    2.11    0.25
  -7   4  -8    2.04    0.23
  -7   4  -8    2.14    0.23
   7   4   8    1.72    0.27
  -8  -4  -8    0.17    0.10
  -8  -4  -8    0.17    0.13
   8  -4   8    0.05    0.15
  -8   4  -8    0.10    0.10
  -8   4  -8    0.02    0.11
   8   4   8    0.02    0.15
  -9  -4  -8    0.26    0.10
  -9  -4  -8    0.21    0.13
   9  -4   8   -0.05    0.16
  -9   4  -8    0.02    0.12
  -9   4  -8    0.00    0.10
   9   4   8   -0.11    0.15
  10  -4   8    1.06    0.20
 -10  -4  -8    0.60    0.16
  10   4   8    0.62    0.18
 -10   4  -8    0.64    0.15
 -10   4  -8    0.59    0.15
 -14  -5   8   -0.10    0.11
 -14   5   8    0.13    0.08
 -13  -5   8    0.49    0.11
  13  -5  -8    0.46    0.13
 -13  -5   8    0.45    0.10
 -13   5   8    0.36    0.09
 -12  -5   8    0.06    0.10
 -12  -5   8    0.17    0.09
  12  -5  -8    0.21    0.11
 -12   5   8    0.26    0.12
 -12   5   8    0.20    0.08
 -11  -5   8   -0.02    0.10
  11  -5  -8    0.03    0.08
 -11  -5   8    0.14    0.07
 -11  -5   8   -0.11    0.08
  11  -5  -8    0.03    0.10
 -11   5   8   -0.05    0.07
 -11   5   8   -0.03    0.10
  10  -5  -8   -0.05    0.08
  10  -5  -8    0.02    0.11
 -10  -5   8   -0.02    0.09
 -10  -5   8    0.00    0.08
 -10  -5   8   -0.04    0.07
 -10   5   8   -0.01    0.07
 -10   5   8   -0.05    0.09
  -9  -5   8    0.14    0.07
   9  -5  -8    0.14    0.08
  -9  -5   8    0.17    0.10
  -9  -5   8    0.12    0.08
   9  -5  -8    0.14    0.11
  -9   5   8    0.10    0.07
  -9   5   8    0.08    0.08
  -8  -5   8    0.24    0.10
  -8  -5   8    0.26    0.09
  -8  -5   8    0.10    0.07
   8  -5  -8    0.28    0.12
   8  -5  -8    0.23    0.08
  -8   5   8    0.26    0.08
  -8   5   8    0.17    0.07
   8   5  -8    0.21    0.09
   7  -5  -8    0.77    0.15
   7  -5  -8    0.71    0.10
  -7  -5   8    0.61    0.11
  -7  -5   8    0.54    0.10
   7   5  -8    0.85    0.12
  -7   5   8    0.60    0.10
  -7   5   8    0.67    0.10
   6  -5  -8    0.13    0.11
  -6  -5   8   -0.13    0.09
   6  -5  -8    0.02    0.07
  -6  -5   8    0.04    0.07
  -6   5   8    0.15    0.08
   6   5  -8   -0.02    0.08
  -6   5   8    0.11    0.06
  -5  -5   8    0.15    0.07
   5  -5  -8    0.22    0.07
   5  -5  -8    0.19    0.11
  -5  -5   8    0.23    0.09
  -5   5   8    0.24    0.07
   5   5  -8    0.21    0.08
  -5   5   8    0.22    0.08
   4  -5  -8    0.06    0.07
  -4  -5   8    0.08    0.07
  -4  -5   8    0.11    0.09
   4  -5  -8    0.39    0.12
  -4   5   8    0.13    0.06
  -4   5   8    0.11    0.09
   4   5  -8   -0.01    0.07
  -4   5   8    0.30    0.07
  -3  -5   8    4.41    0.31
   3  -5  -8    4.14    0.34
  -3  -5   8    3.82    0.33
   3  -5  -8    3.55    0.29
  -3   5   8    4.00    0.31
   3   5  -8    3.89    0.31
  -3   5   8    3.83    0.29
  -3   5   8    3.70    0.35
   2  -5  -8    1.55    0.20
  -2  -5   8    1.29    0.19
  -2  -5   8    1.36    0.16
   2  -5  -8    1.25    0.14
   2   5  -8    1.02    0.17
  -2   5   8    1.63    0.20
  -2   5   8    1.17    0.16
  -2   5   8    1.61    0.15
  -1  -5   8    2.23    0.23
   1  -5  -8    2.67    0.25
  -1  -5   8    2.46    0.22
   1  -5  -8    2.71    0.21
  -1   5   8    2.49    0.23
   1   5  -8    2.81    0.22
  -1   5   8    2.68    0.21
  -1   5   8    2.55    0.26
   0  -5   8    1.38    0.19
   0  -5  -8    1.33    0.15
   0  -5  -8    1.64    0.19
   0  -5   8    1.26    0.16
   0   5   8    1.56    0.17
   0   5  -8    1.42    0.15
   0   5   8    1.59    0.17
   0   5  -8    1.56    0.17
  -1  -5  -8    0.14    0.09
   1  -5   8    0.24    0.09
   1  -5   8    0.12    0.07
  -1  -5  -8    0.18    0.07
  -1   5  -8    0.05    0.07
   1   5   8    0.13    0.09
   1   5   8    0.24    0.09
  -1   5  -8    0.30    0.08
  -1   5  -8   -0.02    0.07
   2  -5   8    7.26    0.56
  -2  -5  -8    6.46    0.53
   2  -5   8    7.15    0.49
  -2  -5  -8    6.11    0.50
   2   5   8    7.82    0.57
  -2   5  -8    7.64    0.53
  -2   5  -8    6.95    0.50
  -2   5  -8    7.01    0.50
   3  -5   8    0.66    0.13
  -3  -5  -8    0.74    0.12
  -3  -5  -8    0.64    0.11
  -3   5  -8    0.53    0.10
  -3   5  -8    0.78    0.10
  -3   5  -8    0.59    0.09
   3   5   8    0.56    0.12
  -4  -5  -8    5.58    0.40
  -4  -5  -8    5.15    0.42
   4  -5   8    5.07    0.45
   4   5   8    5.31    0.46
  -4   5  -8    4.90    0.39
  -4   5  -8    4.84    0.40
  -4   5  -8    5.99    0.42
  -5  -5  -8    0.04    0.10
  -5  -5  -8    0.12    0.09
   5  -5   8   -0.01    0.11
  -5   5  -8    0.10    0.08
   5   5   8    0.07    0.13
  -5   5  -8    0.18    0.09
  -5   5  -8    0.16    0.09
  -6  -5  -8    2.04    0.23
  -6  -5  -8    2.36    0.24
   6  -5   8    2.02    0.27
  -6   5  -8    2.02    0.23
   6   5   8    2.26    0.29
  -6   5  -8    2.35    0.24
   7  -5   8    0.05    0.14
  -7  -5  -8    0.07    0.10
  -7  -5  -8    0.00    0.12
  -7   5  -8    0.01    0.09
  -7   5  -8    0.00    0.10
   7   5   8   -0.15    0.14
  -8  -5  -8    0.33    0.11
  -8  -5  -8    0.25    0.14
   8  -5   8    0.46    0.17
  -8   5  -8    0.60    0.13
  -8   5  -8    0.36    0.12
   8   5   8    0.34    0.16
   9  -5   8    0.00    0.15
  -9  -5  -8    0.25    0.10
  -9  -5  -8   -0.06    0.13
   9   5   8   -0.36    0.15
  -9   5  -8   -0.03    0.11
  -9   5  -8    0.07    0.10
 -10  -5  -8    1.94    0.25
  10  -5   8    2.16    0.30
 -10   5  -8    1.77    0.25
 -14   6   8    0.62    0.11
 -13  -6   8   -0.02    0.11
 -13   6   8    0.09    0.07
 -12  -6   8    2.40    0.26
  12  -6  -8    2.30    0.26
  12  -6  -8    2.32    0.23
 -12   6   8    2.33    0.22
  11  -6  -8   -0.04    0.10
 -11  -6   8    0.11    0.10
 -11  -6   8    0.03    0.08
  11  -6  -8    0.01    0.09
 -11   6   8   -0.02    0.10
 -11   6   8    0.07    0.07
 -10  -6   8    0.16    0.09
  10  -6  -8    0.20    0.09
  10  -6  -8    0.19    0.11
 -10  -6   8    0.25    0.10
 -10   6   8    0.18    0.08
 -10   6   8    0.33    0.10
  -9  -6   8    0.18    0.10
   9  -6  -8    0.15    0.11
   9  -6  -8    0.09    0.08
  -9  -6   8    0.15    0.09
  -9   6   8    0.09    0.09
   9   6  -8    0.18    0.09
  -9   6   8    0.11    0.07
   8  -6  -8    6.03    0.42
  -8  -6   8    5.81    0.47
  -8  -6   8    6.10    0.44
   8  -6  -8    5.70    0.48
  -8   6   8    5.75    0.46
  -8   6   8    6.14    0.42
   8   6  -8    6.02    0.44
  -7  -6   8   -0.06    0.09
   7  -6  -8    0.06    0.07
  -7  -6   8    0.04    0.08
   7  -6  -8    0.13    0.11
  -7   6   8    0.03    0.07
   7   6  -8    0.05    0.09
  -7   6   8    0.05    0.07
   6  -6  -8    3.41    0.30
  -6  -6   8    3.06    0.29
  -6  -6   8    2.97    0.26
   6  -6  -8    3.28    0.25
  -6   6   8    3.24    0.25
   6   6  -8    3.49    0.28
  -6   6   8    2.91    0.27
   5  -6  -8    1.47    0.17
   5  -6  -8    1.72    0.22
  -5  -6   8    1.36    0.18
  -5  -6   8    1.30    0.19
   5   6  -8    1.90    0.20
  -5   6   8    1.78    0.17
  -5   6   8    1.44    0.17
  -4  -6   8    0.21    0.08
   4  -6  -8    0.20    0.11
  -4  -6   8    0.16    0.09
   4  -6  -8    0.18    0.07
   4   6  -8    0.14    0.09
  -4   6   8    0.14    0.07
  -4   6   8    0.16    0.07
  -3  -6   8    0.06    0.09
  -3  -6   8    0.01    0.07
   3  -6  -8    0.01    0.10
   3  -6  -8    0.07    0.07
  -3   6   8    0.06    0.06
   3   6  -8   -0.11    0.07
  -3   6   8    0.05    0.09
  -2  -6   8    7.35    0.57
   2  -6  -8    6.84    0.57
  -2  -6   8    7.61    0.52
   2  -6  -8    7.67    0.50
  -2   6   8    7.50    0.50
  -2   6   8    7.65    0.59
   2   6  -8    7.59    0.53
   1  -6  -8    2.87    0.23
  -1  -6   8    3.01    0.25
   1  -6  -8    2.62    0.27
  -1   6   8    3.16    0.29
   1   6  -8    3.04    0.26
  -1   6   8    3.05    0.23
   0  -6   8    6.06    0.44
   0  -6  -8    6.02    0.41
   0  -6  -8    5.67    0.47
   0   6  -8    6.47    0.44
   0   6   8    6.01    0.50
   0   6   8    6.27    0.42
  -1  -6  -8    1.97    0.19
  -1  -6  -8    2.06    0.22
   1  -6   8    2.53    0.24
   1  -6   8    2.38    0.20
  -1   6  -8    2.25    0.21
  -1   6  -8    2.05    0.21
   1   6   8    2.33    0.25
   1   6   8    2.54    0.22
   2  -6   8    6.40    0.52
   2  -6   8    7.03    0.45
  -2  -6  -8    6.10    0.50
   2  -6   8    6.59    0.46
  -2  -6  -8    6.46    0.47
  -2   6  -8    6.34    0.47
   2   6   8    6.60    0.53
  -2   6  -8    6.61    0.47
   3  -6   8    4.93    0.35
  -3  -6  -8    4.64    0.39
  -3  -6  -8    4.53    0.37
   3  -6   8    4.91    0.42
  -3   6  -8    5.20    0.37
  -3   6  -8    4.79    0.37
   3   6   8    4.99    0.42
  -4  -6  -8    1.56    0.20
   4  -6   8    1.79    0.23
  -4  -6  -8    1.65    0.20
  -4   6  -8    1.69    0.19
   4   6   8    1.67    0.25
  -4   6  -8    1.91    0.20
  -5  -6  -8    0.85    0.13
  -5  -6  -8    0.82    0.13
   5  -6   8    0.90    0.15
  -5   6  -8    0.78    0.13
   5   6   8    0.67    0.16
  -5   6  -8    0.76    0.12
  -6  -6  -8    0.55    0.13
  -6  -6  -8    0.53    0.12
   6  -6   8    0.47    0.15
  -6   6  -8    0.46    0.12
   6   6   8    0.41    0.15
  -6   6  -8    0.50    0.12
  -7  -6  -8    1.73    0.22
   7  -6   8    1.40    0.21
  -7  -6  -8    1.38    0.20
  -7   6  -8    1.50    0.20
   7   6   8    1.61    0.26
  -7   6  -8    1.49    0.21
   8  -6   8    0.48    0.16
  -8  -6  -8    0.17    0.12
  -8  -6  -8    0.64    0.14
   8   6   8    0.44    0.16
  -8   6  -8    0.27    0.12
  -8   6  -8    0.41    0.12
  -9  -6  -8    1.89    0.23
   9  -6   8    1.56    0.27
  -9   6  -8    1.66    0.22
  -9   6  -8    1.43    0.22
 -13   7   8    4.07    0.31
  12  -7  -8    0.26    0.09
  12  -7  -8    0.08    0.11
 -12   7   8    0.10    0.07
  11  -7  -8    4.23    0.38
 -11  -7   8    4.12    0.37
  11  -7  -8    4.45    0.33
 -11   7   8    4.15    0.32
 -10  -7   8    0.06    0.09
  10  -7  -8    0.09    0.09
 -10  -7   8    0.20    0.08
  10  -7  -8    0.15    0.11
 -10   7   8    0.11    0.07
 -10   7   8    0.01    0.10
  -9  -7   8    8.58    0.62
   9  -7  -8    8.34    0.67
   9  -7  -8    8.63    0.59
  -9  -7   8    8.62    0.67
  -9   7   8    9.44    0.67
  -9   7   8    8.42    0.59
   9   7  -8    9.42    0.63
  -8  -7   8   -0.05    0.10
   8  -7  -8    0.01    0.09
  -8  -7   8    0.16    0.09
   8  -7  -8    0.06    0.12
  -8   7   8    0.02    0.08
   8   7  -8    0.07    0.10
  -8   7   8    0.10    0.07
   7  -7  -8    2.09    0.21
  -7  -7   8    2.00    0.23
   7  -7  -8    2.17    0.25
  -7  -7   8    2.25    0.22
  -7   7   8    2.17    0.20
   7   7  -8    2.43    0.24
   6  -7  -8    0.23    0.12
  -6  -7   8    0.18    0.09
   6  -7  -8    0.20    0.08
  -6  -7   8    0.19    0.10
   6   7  -8    0.22    0.10
  -6   7   8    0.27    0.08
  -5  -7   8    8.54    0.58
  -5  -7   8    7.75    0.62
   5  -7  -8    8.16    0.63
   5  -7  -8    8.48    0.55
  -5   7   8    7.85    0.55
   5   7  -8    8.91    0.59
   4  -7  -8    0.07    0.07
  -4  -7   8    0.08    0.09
  -4  -7   8    0.04    0.07
   4  -7  -8    0.01    0.11
  -4   7   8    0.07    0.07
   4   7  -8    0.00    0.09
  -3  -7   8    7.47    0.50
   3  -7  -8    7.30    0.48
   3  -7  -8    6.18    0.54
  -3  -7   8    7.22    0.53
  -3   7   8    7.23    0.47
  -3   7   8    6.55    0.57
   3   7  -8    6.91    0.50
  -2  -7   8    0.18    0.08
  -2  -7   8    0.21    0.10
   2  -7  -8    0.18    0.11
   2  -7  -8    0.15    0.08
  -2   7   8    0.14    0.10
   2   7  -8    0.10    0.09
  -2   7   8    0.31    0.07
   1  -7  -8   20.19    1.22
  -1  -7   8   20.83    1.28
   1  -7  -8   18.60    1.37
  -1  -7   8   18.72    1.39
   1   7  -8   19.45    1.28
  -1   7   8   19.21    1.44
  -1   7   8   17.63    1.23
   0  -7  -8    0.03    0.08
   0  -7   8    0.06    0.08
   0  -7  -8    0.24    0.11
   0  -7   8    0.06    0.08
   0   7  -8    0.18    0.08
   0   7   8    0.20    0.10
   0   7   8    0.26    0.08
  -1  -7  -8    7.71    0.58
  -1  -7  -8    7.66    0.51
   1  -7   8    8.16    0.52
   1  -7   8    8.23    0.54
   1   7   8    6.86    0.53
  -1   7  -8    7.74    0.54
   1   7   8    7.44    0.61
  -2  -7  -8    0.23    0.10
   2  -7   8    0.24    0.09
   2  -7   8    0.13    0.08
   2   7   8    0.23    0.10
  -2   7  -8    0.23    0.08
   2   7   8    0.27    0.10
  -2   7  -8    0.13    0.08
   3  -7   8   14.78    1.17
  -3  -7  -8   14.56    1.05
   3  -7   8   16.53    1.00
  -3  -7  -8   15.99    1.12
  -3   7  -8   14.43    1.04
   3   7   8   16.38    1.18
  -3   7  -8   15.89    1.06
  -4  -7  -8   -0.02    0.10
  -4  -7  -8    0.08    0.10
   4  -7   8    0.18    0.11
   4  -7   8    0.16    0.09
  -4   7  -8    0.11    0.08
   4   7   8    0.00    0.12
  -4   7  -8    0.22    0.09
   5  -7   8    2.98    0.24
   5  -7   8    2.44    0.28
  -5  -7  -8    2.43    0.25
  -5  -7  -8    2.58    0.26
  -5   7  -8    2.51    0.25
   5   7   8    2.57    0.30
  -5   7  -8    2.64    0.25
   6  -7   8    0.05    0.12
  -6  -7  -8    0.28    0.11
  -6  -7  -8    0.00    0.10
  -6   7  -8    0.06    0.09
   6   7   8   -0.23    0.14
  -6   7  -8    0.06    0.09
  -7  -7  -8    2.51    0.26
  -7  -7  -8    3.09    0.27
   7  -7   8    2.29    0.30
   7   7   8    2.16    0.31
  -7   7  -8    2.62    0.26
  -7   7  -8    2.60    0.26
   8  -7   8    0.42    0.15
  -8  -7  -8    0.25    0.12
  -8   7  -8    0.37    0.11
  -8   7  -8    0.27    0.12
   9  -7   8    1.25    0.21
  -9  -7  -8    1.70    0.22
  -9   7  -8    1.83    0.20
  -9   7  -8    1.09    0.17
 -13   8   8    0.27    0.08
  12  -8  -8    2.43    0.26
  12  -8  -8    2.27    0.23
 -12   8   8    2.17    0.21
  11  -8  -8    0.30    0.10
  11  -8  -8    0.31    0.12
 -11   8   8    0.11    0.08
 -10  -8   8    0.33    0.09
  10  -8  -8    0.06    0.09
  10  -8  -8   -0.08    0.12
  10   8  -8    0.00    0.10
 -10   8   8    0.07    0.07
   9  -8  -8    0.09    0.13
  -9  -8   8    0.17    0.10
   9  -8  -8   -0.06    0.09
  -9   8   8   -0.01    0.07
   9   8  -8   -0.04    0.10
  -8  -8   8    1.83    0.23
   8  -8  -8    2.02    0.21
   8  -8  -8    1.94    0.25
  -8  -8   8    2.14    0.22
   8   8  -8    2.41    0.24
  -8   8   8    1.77    0.19
   7  -8  -8    0.04    0.08
  -7  -8   8   -0.13    0.09
  -7  -8   8    0.06    0.09
   7  -8  -8   -0.03    0.12
  -7   8   8   -0.02    0.07
   7   8  -8    0.05    0.10
  -6  -8   8    0.18    0.09
   6  -8  -8    0.15    0.08
  -6  -8   8    0.03    0.10
   6  -8  -8    0.10    0.12
   6   8  -8    0.12    0.11
  -6   8   8    0.10    0.07
   5  -8  -8   -0.02    0.07
   5  -8  -8    0.04    0.11
  -5  -8   8    0.14    0.09
  -5  -8   8   -0.02    0.08
  -5   8   8    0.04    0.07
   5   8  -8    0.06    0.10
  -4  -8   8    1.56    0.18
   4  -8  -8    1.37    0.21
  -4  -8   8    1.16    0.18
   4  -8  -8    1.56    0.18
  -4   8   8    1.33    0.16
   4   8  -8    1.39    0.20
   3  -8  -8    0.59    0.14
   3  -8  -8    0.77    0.11
  -3  -8   8    0.71    0.11
  -3  -8   8    0.70    0.11
  -3   8   8    0.69    0.10
   3   8  -8    0.61    0.12
  -2  -8   8    3.21    0.26
  -2  -8   8    2.98    0.28
   2  -8  -8    3.21    0.26
   2  -8  -8    2.84    0.28
   2   8  -8    3.09    0.28
  -2   8   8    3.17    0.32
  -2   8   8    3.10    0.24
   1  -8  -8    1.58    0.19
  -1  -8   8    1.23    0.18
   1  -8  -8    1.50    0.17
  -1  -8   8    1.29    0.21
  -1   8   8    1.63    0.24
  -1   8   8    1.71    0.17
   1   8  -8    1.61    0.19
   0  -8  -8    2.25    0.20
   0  -8   8    1.82    0.21
   0  -8  -8    1.98    0.22
   0  -8   8    2.00    0.21
   0   8   8    2.11    0.20
   0   8  -8    2.23    0.22
   0   8   8    2.32    0.25
  -1  -8  -8    0.18    0.10
   1  -8   8    0.14    0.09
   1  -8   8    0.11    0.08
  -1   8  -8    0.25    0.08
   1   8   8    0.14    0.10
   1   8   8    0.25    0.09
   2  -8   8    6.34    0.44
  -2  -8  -8    5.47    0.47
   2  -8   8    6.84    0.44
   2   8   8    6.18    0.44
   2   8   8    6.63    0.51
  -2   8  -8    5.51    0.45
  -2   8  -8    5.63    0.45
   3  -8   8    3.15    0.28
  -3  -8  -8    3.27    0.29
  -3   8  -8    3.47    0.28
   3   8   8    2.87    0.30
  -3   8  -8    3.41    0.28
   3   8   8    3.08    0.32
   4  -8   8    6.49    0.43
  -4  -8  -8    5.75    0.46
  -4  -8  -8    5.64    0.44
  -4   8  -8    5.77    0.44
   4   8   8    6.10    0.50
  -4   8  -8    5.78    0.45
  -5  -8  -8    1.29    0.18
   5  -8   8    1.46    0.19
  -5  -8  -8    1.36    0.16
  -5   8  -8    1.26    0.19
   5   8   8    1.10    0.19
  -5   8  -8    1.44    0.19
  -6  -8  -8    1.30    0.18
  -6  -8  -8    1.10    0.15
  -6   8  -8    0.79    0.15
  -6   8  -8    0.91    0.15
  -7  -8  -8    0.97    0.16
  -7  -8  -8    1.04    0.16
   7  -8   8    1.59    0.23
  -7   8  -8    1.04    0.16
  -7   8  -8    1.39    0.20
  -8  -8  -8   -0.08    0.12
   8  -8   8    0.27    0.14
  -8   8  -8   -0.14    0.10
  -8   8  -8   -0.04    0.10
  12  -9  -8    0.36    0.10
 -12   9   8    0.35    0.08
  11  -9  -8    0.04    0.09
 -11   9   8   -0.01    0.07
 -10  -9   8    0.24    0.09
  10  -9  -8    0.15    0.09
  10  -9  -8    0.00    0.12
  10   9  -8    0.11    0.10
 -10   9   8    0.11    0.07
  -9  -9   8    0.68    0.12
   9  -9  -8    0.39    0.11
   9  -9  -8    0.58    0.16
   9   9  -8    0.44    0.12
  -9   9   8    0.39    0.09
  -8  -9   8    0.01    0.10
   8  -9  -8   -0.07    0.09
   8  -9  -8   -0.10    0.13
   8   9  -8    0.05    0.10
  -8   9   8    0.15    0.07
   7  -9  -8    1.06    0.14
   7  -9  -8    0.97    0.18
  -7  -9   8    1.02    0.14
  -7   9   8    0.78    0.11
   7   9  -8    1.07    0.15
   6  -9  -8   -0.24    0.12
  -6  -9   8   -0.03    0.09
   6  -9  -8    0.01    0.09
   6   9  -8   -0.03    0.10
  -6   9   8   -0.03    0.07
   5  -9  -8   -0.07    0.13
  -5  -9   8    0.17    0.09
   5  -9  -8    0.15    0.09
   5   9  -8    0.15    0.11
  -5   9   8    0.16    0.07
   4  -9  -8    0.22    0.13
  -4  -9   8    0.19    0.10
   4  -9  -8    0.29    0.10
  -4  -9   8    0.29    0.10
   4   9  -8    0.21    0.11
  -4   9   8    0.29    0.08
   3  -9  -8    3.21    0.32
  -3  -9   8    3.74    0.29
  -3  -9   8    3.14    0.30
   3  -9  -8    3.97    0.29
  -3   9   8    3.29    0.27
   3   9  -8    3.72    0.31
   2  -9  -8    0.36    0.13
  -2  -9   8    0.13    0.11
  -2  -9   8    0.29    0.10
   2  -9  -8    0.39    0.10
   2   9  -8    0.42    0.11
  -2   9   8    0.31    0.09
  -1  -9   8    0.25    0.12
   1  -9  -8    0.40    0.13
  -1  -9   8    0.53    0.11
  -1  -9   8    0.41    0.10
   1  -9  -8    0.60    0.10
  -1   9   8    0.45    0.09
   1   9  -8    0.53    0.11
  -1   9   8    0.58    0.12
   0  -9   8    0.88    0.13
   0  -9   8    1.18    0.17
   0  -9  -8    1.00    0.14
   0  -9  -8    1.12    0.15
   0   9  -8    0.91    0.13
   0   9   8    1.07    0.15
   0   9   8    1.13    0.15
  -1  -9  -8   -0.07    0.10
   1  -9   8   -0.05    0.09
   1  -9   8    0.01    0.08
  -1  -9  -8    0.13    0.08
   1   9   8   -0.17    0.10
  -1   9  -8    0.03    0.08
   1   9   8   -0.04    0.09
   2  -9   8    4.18    0.32
   2  -9   8    4.35    0.33
  -2  -9  -8    3.87    0.34
  -2   9  -8    3.96    0.33
   2   9   8    4.21    0.38
   2   9   8    3.79    0.33
  -2   9  -8    4.12    0.33
  -3  -9  -8    0.45    0.11
   3  -9   8    0.38    0.11
  -3   9  -8    0.21    0.09
  -3   9  -8    0.13    0.09
   3   9   8    0.17    0.12
   4  -9   8    2.36    0.24
  -4  -9  -8    2.36    0.23
  -4   9  -8    2.22    0.23
   4   9   8    2.15    0.27
  -4   9  -8    2.16    0.23
  -5  -9  -8    0.29    0.12
   5  -9   8    0.36    0.12
  -5   9  -8    0.25    0.10
  -5   9  -8    0.39    0.11
   6  -9   8    2.39    0.24
  -6  -9  -8    2.44    0.25
  -6   9  -8    2.24    0.25
  -6   9  -8    2.45    0.26
  -7  -9  -8    0.00    0.12
  -7   9  -8    0.12    0.11
  -7   9  -8    0.16    0.10
  -8  -9  -8    0.42    0.14
  -8   9  -8    0.17    0.11
  -8   9  -8    0.15    0.11
  11 -10  -8    0.34    0.10
 -11  10   8   -0.05    0.07
  10 -10  -8    1.77    0.26
  10 -10  -8    2.30    0.22
 -10 -10   8    2.39    0.23
  10  10  -8    2.56    0.25
 -10  10   8    1.91    0.20
   9 -10  -8   -0.15    0.13
   9 -10  -8   -0.06    0.09
  -9 -10   8    0.12    0.09
   9  10  -8    0.11    0.10
  -9  10   8   -0.02    0.07
   8 -10  -8    2.53    0.25
   8 -10  -8    2.35    0.29
  -8 -10   8    2.78    0.26
   8  10  -8    2.74    0.27
  -8  10   8    2.78    0.23
   7 -10  -8   -0.22    0.14
   7 -10  -8   -0.07    0.09
  -7 -10   8   -0.05    0.10
  -7  10   8    0.02    0.07
   7  10  -8    0.04    0.11
   6 -10  -8    2.83    0.31
  -6 -10   8    3.39    0.29
   6 -10  -8    3.28    0.28
   6  10  -8    3.62    0.31
  -6  10   8    3.09    0.26
   5 -10  -8   -0.02    0.13
  -5 -10   8   -0.04    0.09
   5 -10  -8   -0.04    0.09
   5  10  -8   -0.10    0.10
  -5  10   8   -0.07    0.07
   4 -10  -8    4.41    0.43
  -4 -10   8    5.30    0.40
   4 -10  -8    5.44    0.39
  -4  10   8    5.23    0.38
   4  10  -8    5.81    0.42
  -3 -10   8    0.04    0.09
   3 -10  -8    0.00    0.12
   3 -10  -8    0.09    0.09
  -3  10   8    0.03    0.08
   3  10  -8   -0.09    0.10
  -2 -10   8    3.99    0.32
   2 -10  -8    3.57    0.34
   2 -10  -8    4.03    0.31
  -2  10   8    3.89    0.30
   2  10  -8    4.35    0.34
  -1 -10   8    0.12    0.10
   1 -10  -8    0.38    0.12
   1 -10  -8    0.41    0.10
   1 -10  -8    0.53    0.11
  -1 -10   8    0.34    0.10
  -1  10   8    0.28    0.09
   1  10  -8    0.22    0.10
   0 -10  -8    5.91    0.48
   0 -10  -8    6.23    0.46
   0 -10   8    6.44    0.47
   0 -10   8    6.27    0.45
   0  10   8    6.55    0.44
   0  10  -8    6.32    0.47
   0  10   8    6.31    0.53
   1 -10   8    0.08    0.09
  -1 -10  -8    0.32    0.11
   1 -10   8    0.10    0.10
  -1 -10  -8    0.17    0.09
  -1  10  -8    0.08    0.09
   1  10   8    0.21    0.10
   2 -10   8    5.89    0.42
   2 -10   8    6.14    0.44
  -2 -10  -8    5.52    0.46
  -2  10  -8    5.78    0.44
   2  10   8    6.17    0.43
  -2  10  -8    5.68    0.45
   3 -10   8    0.67    0.13
   3  10   8    0.78    0.14
  -3  10  -8    0.69    0.13
  -3  10  -8    0.63    0.12
   4 -10   8    0.82    0.14
  -4  10  -8    0.66    0.13
  -4  10  -8    0.71    0.13
   4  10   8    0.65    0.16
   5 -10   8    0.24    0.12
  -5  10  -8    0.10    0.10
  -5  10  -8    0.19    0.10
   5  10   8    0.22    0.14
   6 -10   8    3.26    0.28
  -6  10  -8    3.30    0.29
  -6  10  -8    2.84    0.28
   6  10   8    2.70    0.33
  -7  10  -8    0.36    0.11
  -7  10  -8    0.03    0.10
  11 -11  -8    2.26    0.23
 -10 -11   8    0.00    0.10
  10 -11  -8    0.32    0.10
  10 -11  -8    0.09    0.10
  10  11  -8    0.19    0.10
  -9 -11   8    4.94    0.37
   9 -11  -8    4.72    0.36
   9 -11  -8    3.56    0.42
  -9  11   8    4.33    0.33
   9  11  -8    5.16    0.38
  -8 -11   8    0.09    0.10
   8 -11  -8   -0.06    0.15
   8 -11  -8    0.17    0.10
   8  11  -8   -0.02    0.11
  -8  11   8    0.03    0.07
   7 -11  -8    0.77    0.21
   7 -11  -8    1.27    0.18
  -7 -11   8    1.46    0.20
  -7  11   8    1.25    0.15
   7  11  -8    1.13    0.17
  -6 -11   8    0.15    0.11
   6 -11  -8    0.17    0.10
   6 -11  -8    0.03    0.15
   6  11  -8    0.19    0.12
  -6  11   8    0.18    0.08
  -5 -11   8    0.07    0.11
   5 -11  -8    0.10    0.10
   5 -11  -8   -0.16    0.15
   5  11  -8    0.16    0.12
  -5  11   8    0.13    0.08
   4 -11  -8    0.12    0.10
  -4 -11   8    0.15    0.10
   4 -11  -8    0.16    0.14
  -4  11   8    0.27    0.08
   4  11  -8    0.14    0.12
   3 -11  -8    0.52    0.15
   3 -11  -8    1.08    0.14
  -3 -11   8    0.69    0.13
   3 -11  -8    0.95    0.15
  -3  11   8    0.85    0.12
   3  11  -8    0.77    0.14
   2 -11  -8    0.26    0.10
   2 -11  -8    0.19    0.10
  -2 -11   8    0.24    0.10
  -2  11   8    0.18    0.09
   2  11  -8    0.12    0.11
   1 -11  -8    4.76    0.34
   1 -11  -8    4.51    0.36
  -1 -11   8    4.44    0.36
  -1 -11   8    4.72    0.35
  -1  11   8    4.39    0.34
   1  11  -8    4.46    0.37
   0 -11   8    0.34    0.11
   0 -11   8    0.27    0.11
   0 -11  -8    0.35    0.10
   0  11   8    0.30    0.10
   0  11  -8    0.32    0.11
   1 -11   8    1.02    0.14
   1 -11   8    0.99    0.14
  -1  11  -8    0.77    0.14
   1  11   8    0.92    0.13
   2 -11   8    0.21    0.10
   2 -11   8    0.10    0.11
   2  11   8    0.14    0.10
  -2  11  -8    0.09    0.10
  -2  11  -8    0.12    0.10
   3 -11   8    7.18    0.51
   3  11   8    7.68    0.52
  -3  11  -8    6.75    0.54
  -3  11  -8    7.29    0.53
   4 -11   8    0.25    0.12
  -4  11  -8    0.13    0.10
   4  11   8    0.06    0.13
  -4  11  -8    0.07    0.10
   5 -11   8    1.45    0.20
  -5  11  -8    0.99    0.15
   5  11   8    1.25    0.18
  -5  11  -8    1.63    0.19
   6 -11   8    0.85    0.14
   6  11   8    0.26    0.17
  -6  11  -8    0.89    0.15
  -6  11  -8    0.61    0.13
  10  12  -8    0.43    0.13
   9 -12  -8    0.28    0.11
  -9 -12   8    0.25    0.11
   9  12  -8    0.16    0.11
   8 -12  -8    0.32    0.11
   8 -12  -8    0.34    0.11
  -8 -12   8    0.34    0.11
   8  12  -8    0.00    0.11
  -7 -12   8    0.11    0.11
   7 -12  -8    0.27    0.11
   7 -12  -8    0.14    0.11
   7  12  -8   -0.04    0.11
   6 -12  -8    0.52    0.13
   6 -12  -8    0.50    0.13
  -6 -12   8    0.43    0.13
   6  12  -8    0.51    0.13
   5 -12  -8    0.08    0.10
   5 -12  -8    0.04    0.10
  -5 -12   8   -0.04    0.11
   5  12  -8    0.17    0.12
  -5  12   8    0.13    0.07
   4 -12  -8    0.41    0.12
   4 -12  -8    0.24    0.11
  -4 -12   8    0.09    0.11
   4  12  -8    0.29    0.12
  -4  12   8    0.30    0.09
   3 -12  -8    0.36    0.12
   3 -12  -8    0.31    0.10
  -3 -12   8    0.12    0.10
  -3  12   8    0.22    0.09
   3  12  -8    0.12    0.11
  -2 -12   8    0.07    0.10
   2 -12  -8    0.17    0.10
   2 -12  -8    0.06    0.09
  -2  12   8    0.12    0.09
   2  12  -8    0.09    0.11
  -1 -12   8    0.74    0.13
   1 -12  -8    0.54    0.12
  -1  12   8    0.62    0.12
   1  12  -8    0.76    0.14
   0 -12  -8    0.26    0.10
   0 -12   8    0.40    0.11
   0 -12   8    0.47    0.11
   0  12   8    0.35    0.10
   0  12  -8    0.44    0.11
   1 -12   8    0.62    0.13
   1 -12   8    0.64    0.13
   1  12   8    0.41    0.12
  -1  12  -8    0.42    0.12
   2 -12   8    0.10    0.11
   2 -12   8    0.10    0.10
  -2  12  -8    0.05    0.10
  -2  12  -8   -0.03    0.10
   2  12   8   -0.08    0.10
   3 -12   8    2.30    0.24
  -3  12  -8    2.22    0.24
   3  12   8    2.39    0.24
  -3  12  -8    2.12    0.24
   4 -12   8    0.04    0.11
  -4  12  -8   -0.09    0.09
  -4  12  -8   -0.04    0.09
   4  12   8   -0.28    0.11
   5 -12   8    0.97    0.15
  -5  12  -8    0.78    0.14
   5  12   8    0.34    0.16
  -5  12  -8    1.26    0.16
   8 -13  -8    0.21    0.11
   8 -13  -8    0.10    0.10
  -8 -13   8    0.27    0.11
   8  13  -8   -0.12    0.11
   7 -13  -8    3.16    0.29
  -7 -13   8    3.01    0.32
   7 -13  -8    3.69    0.32
   7  13  -8    3.77    0.32
  -6 -13   8    0.05    0.10
   6 -13  -8    0.18    0.11
   6 -13  -8    0.12    0.11
   6  13  -8    0.12    0.11
   5 -13  -8    0.84    0.16
  -5 -13   8    0.73    0.15
   5 -13  -8    0.71    0.14
   5  13  -8    0.70    0.15
   4 -13  -8    0.10    0.12
   4 -13  -8    0.31    0.11
  -4 -13   8   -0.10    0.10
   4  13  -8    0.07    0.11
   3 -13  -8    1.83    0.20
   3 -13  -8    1.35    0.21
  -3 -13   8    1.17    0.17
   3  13  -8    1.27    0.18
   2 -13  -8    0.07    0.11
   2 -13  -8    0.21    0.11
  -2 -13   8    0.12    0.11
   2  13  -8    0.20    0.11
   1 -13  -8    3.10    0.27
  -1 -13   8    2.94    0.28
   1  13  -8    2.97    0.28
   0 -13   8    0.31    0.11
   0 -13  -8    0.01    0.09
   0 -13   8    0.11    0.11
   0  13  -8    0.16    0.10
   1 -13   8    1.47    0.19
   1 -13   8    1.34    0.20
  -1  13  -8    1.25    0.19
   2 -13   8    0.43    0.11
   2 -13   8    0.38    0.11
  -2  13  -8    0.06    0.10
  -2  13  -8    0.11    0.10
   3 -13   8    1.21    0.17
  -3  13  -8    1.16    0.18
  -3  13  -8    1.07    0.16
   4 -13   8    0.10    0.10
  -4  13  -8   -0.09    0.09
  -4  13  -8   -0.13    0.09
   6 -14  -8   -0.11    0.11
   6 -14  -8    0.07    0.11
  -6 -14   8    0.11    0.11
   6  14  -8    0.00    0.10
  -5 -14   8    0.01    0.11
   5 -14  -8   -0.07    0.11
   5 -14  -8   -0.19    0.11
   5  14  -8    0.06    0.10
   4 -14  -8    1.78    0.22
   4 -14  -8    1.94    0.24
  -4 -14   8    1.66    0.23
   4  14  -8    2.01    0.23
   3 -14  -8   -0.12    0.10
   3 -14  -8   -0.14    0.10
  -3 -14   8   -0.09    0.10
   3  14  -8   -0.12    0.10
   2 -14  -8    1.74    0.23
  -2 -14   8    2.14    0.23
   2  14  -8    2.14    0.23
   1 -14  -8   -0.01    0.10
  -1 -14   8    0.06    0.10
   1  14  -8   -0.02    0.10
   0 -14   8    1.29    0.19
   0 -14  -8    0.99    0.15
   0  14  -8    1.20    0.18
   1 -14   8    0.19    0.10
   1 -14   8    0.00    0.10
  -1  14  -8    0.03    0.09
   2 -14   8    0.89    0.13
  -2  14  -8    0.52    0.13
  -2  14  -8    0.65    0.13
 -14   0   9    0.02    0.08
 -14   0   9   -0.11    0.11
  14   0  -9   -0.13    0.10
  13   0  -9    0.40    0.12
 -13   0   9    0.26    0.09
 -13   0   9    0.28    0.11
  12   0  -9    0.01    0.10
 -12   0   9    0.01    0.10
 -12   0   9   -0.02    0.08
 -11   0   9    0.02    0.07
  11   0  -9    0.01    0.11
 -11   0   9    0.00    0.10
  10   0  -9   -0.05    0.11
 -10   0   9   -0.01    0.07
 -10   0   9   -0.15    0.09
  10   0  -9   -0.12    0.07
  -9   0   9    0.91    0.13
  -9   0   9    0.45    0.11
   9   0  -9    0.41    0.09
  -9   0   9    0.52    0.11
   9   0  -9    0.60    0.13
   8   0  -9    0.08    0.11
  -8   0   9    0.04    0.06
   8   0  -9    0.07    0.07
  -8   0   9    0.03    0.09
  -8   0   9    0.00    0.09
   7   0  -9    0.53    0.13
  -7   0   9    0.34    0.11
  -7   0   9    0.54    0.11
  -7   0   9    0.57    0.09
  -6   0   9   -0.01    0.06
   6   0  -9    0.09    0.10
  -6   0   9    0.02    0.09
  -6   0   9   -0.04    0.08
  -5   0   9    0.29    0.07
  -5   0   9    0.10    0.09
  -5   0   9    0.16    0.09
   5   0  -9    0.33    0.11
  -5   0   9    0.28    0.09
   4   0  -9    0.11    0.10
  -4   0   9    0.12    0.08
  -4   0   9    0.09    0.08
  -4   0   9    0.20    0.08
  -4   0   9    0.15    0.06
  -3   0   9    7.84    0.57
  -3   0   9    7.22    0.48
  -3   0   9    7.62    0.55
   3   0  -9    7.15    0.55
   3   0  -9    6.36    0.49
  -2   0   9    0.38    0.09
  -2   0   9    0.10    0.06
   2   0  -9    0.18    0.09
  -2   0   9    0.20    0.08
  -1   0   9   17.47    1.33
   1   0  -9   18.11    1.26
  -1   0   9   16.70    1.13
   1   0  -9   18.77    1.17
   0   0   9    0.04    0.07
   0   0   9   -0.07    0.06
   0   0   9    0.10    0.09
   0   0  -9    0.00    0.08
   0   0  -9    0.08    0.06
  -1   0  -9    6.24    0.43
   1   0   9    6.29    0.49
   1   0   9    4.94    0.42
  -1   0  -9    6.62    0.43
  -1   0  -9    5.86    0.46
   1   0   9    5.85    0.42
  -2   0  -9    0.24    0.09
  -2   0  -9    0.31    0.09
  -2   0  -9    0.26    0.09
   2   0   9    0.46    0.11
  -3   0  -9    1.46    0.18
  -3   0  -9    1.24    0.17
  -3   0  -9    1.33    0.17
   3   0   9    1.38    0.23
   4   0   9    1.83    0.26
  -5   0  -9    2.59    0.26
  -5   0  -9    2.60    0.25
  -5   0  -9    2.68    0.25
   5   0   9    2.52    0.31
  -6   0  -9    0.09    0.09
  -6   0  -9    0.07    0.10
  -6   0  -9    0.10    0.12
   6   0   9    0.02    0.13
  -7   0  -9    4.16    0.35
  -7   0  -9    4.35    0.34
  -7   0  -9    3.62    0.33
   7   0   9    3.24    0.39
  -8   0  -9    0.10    0.10
  -8   0  -9    0.12    0.13
  -8   0  -9    0.27    0.12
   8   0   9    0.05    0.15
  -9   0  -9    1.05    0.16
  -9   0  -9    1.12    0.18
   9   0   9    0.85    0.20
  10   0   9    0.09    0.14
 -10   0  -9   -0.01    0.11
 -10   0  -9    0.22    0.13
 -14  -1   9   -0.01    0.10
 -14  -1   9    0.05    0.08
  14  -1  -9    0.05    0.10
 -14   1   9   -0.12    0.10
 -14   1   9   -0.06    0.08
  14   1  -9   -0.02    0.11
  13  -1  -9    2.63    0.28
 -13  -1   9    3.18    0.26
 -13  -1   9    2.62    0.28
 -13   1   9    3.14    0.29
  13   1  -9    2.51    0.28
 -13   1   9    3.16    0.25
  12  -1  -9    0.18    0.11
 -12  -1   9    0.23    0.10
 -12  -1   9    0.08    0.08
 -12   1   9    0.11    0.11
  12   1  -9    0.17    0.12
 -12   1   9    0.02    0.08
 -11  -1   9    1.83    0.18
 -11  -1   9    1.52    0.22
  11  -1  -9    1.58    0.22
  11   1  -9    1.52    0.21
 -11   1   9    1.53    0.22
 -11   1   9    1.85    0.18
  10  -1  -9   -0.01    0.11
 -10  -1   9   -0.08    0.09
 -10  -1   9    0.05    0.08
 -10  -1   9    0.00    0.07
  10  -1  -9    0.00    0.08
  10   1  -9   -0.06    0.08
 -10   1   9   -0.05    0.09
  10   1  -9    0.07    0.10
 -10   1   9   -0.10    0.06
   9  -1  -9    8.12    0.65
  -9  -1   9    8.70    0.64
  -9  -1   9    9.36    0.60
  -9  -1   9    8.79    0.56
   9  -1  -9    7.99    0.56
   9   1  -9    8.57    0.64
  -9   1   9    7.53    0.64
  -9   1   9    8.50    0.57
   9   1  -9    8.16    0.55
  -8  -1   9    0.45    0.10
   8  -1  -9    0.25    0.08
  -8  -1   9    0.33    0.07
  -8  -1   9    0.36    0.10
   8  -1  -9    0.29    0.12
   8   1  -9    0.42    0.12
  -8   1   9    0.43    0.10
  -8   1   9    0.26    0.10
  -8   1   9    0.27    0.08
  -7  -1   9    1.67    0.16
   7  -1  -9    1.74    0.22
  -7  -1   9    1.46    0.20
  -7  -1   9    1.52    0.20
   7  -1  -9    1.82    0.17
  -7   1   9    1.78    0.21
  -7   1   9    1.50    0.16
  -7   1   9    1.51    0.20
   7   1  -9    1.41    0.21
   6  -1  -9    0.91    0.15
  -6  -1   9    0.92    0.12
  -6  -1   9    0.82    0.13
  -6  -1   9    1.22    0.17
  -6   1   9    1.18    0.18
  -6   1   9    1.08    0.13
   6   1  -9    0.96    0.14
  -6   1   9    0.87    0.13
  -5  -1   9    1.05    0.13
  -5  -1   9    1.23    0.13
   5  -1  -9    1.16    0.16
  -5  -1   9    1.16    0.17
  -5  -1   9    1.11    0.18
  -5   1   9    1.14    0.18
   5   1  -9    1.16    0.18
  -5   1   9    1.08    0.13
  -5   1   9    1.05    0.14
  -5   1   9    1.02    0.13
   4  -1  -9    0.68    0.13
  -4  -1   9    0.73    0.11
  -4  -1   9    0.71    0.10
  -4  -1   9    0.69    0.10
  -4  -1   9    0.64    0.08
  -4   1   9    0.66    0.11
  -4   1   9    0.65    0.11
   4   1  -9    0.64    0.12
  -4   1   9    0.66    0.11
  -4   1   9    0.67    0.09
  -3  -1   9   27.08    1.74
   3  -1  -9   29.29    1.95
  -3  -1   9   29.12    1.81
  -3  -1   9   26.57    1.97
  -3  -1   9   28.24    2.04
  -3   1   9   25.71    1.96
   3   1  -9   25.78    1.80
  -3   1   9   26.87    1.82
  -3   1   9   27.65    2.05
   3   1  -9   28.59    1.95
  -3   1   9   29.05    1.75
  -2  -1   9    5.34    0.38
   2  -1  -9    4.58    0.37
   2  -1  -9    4.22    0.32
  -2  -1   9    4.27    0.35
  -2  -1   9    4.24    0.32
  -2  -1   9    4.94    0.38
  -2   1   9    4.30    0.37
   2   1  -9    4.60    0.37
  -2   1   9    4.53    0.38
  -2   1   9    4.68    0.32
   2   1  -9    4.47    0.33
  -1  -1   9   35.05    2.43
  -1  -1   9   41.41    2.52
   1  -1  -9   42.27    2.52
  -1  -1   9   35.32    2.85
   1  -1  -9   39.51    2.71
  -1   1   9   35.65    2.85
  -1   1   9   37.81    2.43
   1   1  -9   40.12    2.71
   1   1  -9   38.48    2.51
  -1   1   9   40.78    2.52
  -1   1   9   38.76    2.74
   0  -1   9    2.70    0.25
   0  -1  -9    2.00    0.22
   0  -1   9    2.02    0.19
   0  -1  -9    1.78    0.19
   0  -1   9    2.21    0.20
   0   1   9    1.69    0.20
   0   1  -9    1.89    0.21
   0   1   9    1.87    0.20
   0   1  -9    2.56    0.19
   0   1  -9    2.42    0.20
   0   1   9    1.90    0.23
  -1  -1  -9    7.11    0.53
   1  -1   9    6.89    0.52
   1  -1   9    6.52    0.51
  -1  -1  -9    8.53    0.57
   1  -1   9    8.02    0.60
  -1   1  -9    7.52    0.56
  -1   1  -9    7.71    0.53
   1   1   9    7.91    0.52
  -1   1  -9    7.08    0.53
   1   1   9    8.17    0.60
  -2  -1  -9    4.67    0.40
  -2  -1  -9    5.42    0.42
  -2   1  -9    5.62    0.43
  -2   1  -9    5.99    0.41
   2   1   9    5.13    0.46
  -2   1  -9    5.93    0.41
  -3  -1  -9    1.33    0.17
   3  -1   9    1.19    0.16
  -3  -1  -9    1.27    0.17
  -3  -1  -9    1.45    0.18
  -3   1  -9    1.21    0.16
  -3   1  -9    1.16    0.17
  -3   1  -9    1.23    0.17
   3   1   9    1.13    0.16
  -4  -1  -9    5.10    0.45
  -4  -1  -9    6.23    0.44
  -4  -1  -9    4.90    0.44
  -4   1  -9    6.71    0.44
   4   1   9    5.00    0.49
  -4   1  -9    6.30    0.45
  -4   1  -9    6.53    0.44
  -5  -1  -9    1.71    0.19
   5  -1   9    1.33    0.19
   5   1   9    1.86    0.25
  -5   1  -9    1.41    0.19
  -5   1  -9    1.22    0.16
  -5   1  -9    1.17    0.18
  -6  -1  -9    0.99    0.15
  -6  -1  -9    1.01    0.15
   6  -1   9    0.98    0.17
  -6  -1  -9    0.99    0.15
  -6   1  -9    0.98    0.15
   6   1   9    0.72    0.17
  -6   1  -9    1.00    0.15
  -6   1  -9    1.05    0.17
  -7  -1  -9    3.02    0.27
  -7  -1  -9    2.31    0.24
   7  -1   9    2.37    0.31
  -7  -1  -9    2.75    0.27
  -7   1  -9    1.88    0.24
  -7   1  -9    2.03    0.25
   7   1   9    2.50    0.31
  -7   1  -9    2.11    0.25
   8  -1   9    1.09    0.20
  -8  -1  -9    1.21    0.18
  -8  -1  -9    0.99    0.17
  -8  -1  -9    1.07    0.16
   8   1   9    0.82    0.19
  -8   1  -9    1.19    0.17
  -8   1  -9    1.16    0.17
  -8   1  -9    1.41    0.21
   9  -1   9    0.66    0.20
  -9  -1  -9    0.86    0.15
  -9  -1  -9    0.92    0.17
   9   1   9    0.77    0.18
  -9   1  -9    0.96    0.16
  -9   1  -9    0.87    0.16
  10  -1   9    0.21    0.17
 -10  -1  -9    0.54    0.14
  10   1   9    0.18    0.16
 -10   1  -9    0.61    0.13
 -10   1  -9    0.32    0.14
 -14  -2   9    0.15    0.11
 -14  -2   9    0.14    0.10
 -14   2   9    0.18    0.08
 -14   2   9    0.23    0.11
 -13  -2   9    0.07    0.10
  13  -2  -9   -0.14    0.10
 -13  -2   9    0.04    0.09
 -13   2   9    0.30    0.11
 -13   2   9    0.02    0.08
 -12  -2   9    5.63    0.48
  12  -2  -9    5.74    0.48
 -12  -2   9    6.68    0.44
  12   2  -9    5.74    0.48
 -12   2   9    6.40    0.49
 -12   2   9    5.76    0.43
 -11  -2   9   -0.07    0.07
 -11  -2   9    0.06    0.08
  11  -2  -9    0.02    0.12
  11  -2  -9   -0.18    0.08
 -11  -2   9   -0.04    0.10
 -11   2   9    0.01    0.10
 -11   2   9    0.01    0.08
  11   2  -9   -0.06    0.10
 -10  -2   9    4.26    0.40
  10  -2  -9    4.70    0.40
 -10  -2   9    5.25    0.35
 -10  -2   9    4.74    0.37
  10  -2  -9    4.98    0.35
  10   2  -9    4.31    0.39
 -10   2   9    4.98    0.40
 -10   2   9    4.57    0.35
   9  -2  -9    0.02    0.08
  -9  -2   9    0.00    0.06
  -9  -2   9   -0.02    0.08
  -9  -2   9    0.07    0.09
   9  -2  -9    0.05    0.11
  -9   2   9    0.12    0.09
  -9   2   9    0.00    0.06
   9   2  -9    0.11    0.10
  -8  -2   9   27.41    2.25
  -8  -2   9   31.75    2.00
  -8  -2   9   34.55    2.07
   8  -2  -9   34.02    1.97
   8  -2  -9   30.62    2.24
  -8   2   9   29.28    2.00
   8   2  -9   31.37    2.23
  -8   2   9   33.72    2.25
   7  -2  -9    0.03    0.07
  -7  -2   9    0.00    0.06
  -7  -2   9    0.02    0.09
  -7  -2   9    0.02    0.08
   7  -2  -9    0.12    0.12
   7   2  -9    0.00    0.09
  -7   2   9    0.00    0.06
  -7   2   9    0.09    0.09
  -6  -2   9    0.19    0.10
   6  -2  -9    0.19    0.07
  -6  -2   9    0.21    0.06
   6  -2  -9    0.28    0.12
  -6  -2   9    0.26    0.08
  -6   2   9    0.32    0.09
   6   2  -9    0.07    0.10
  -6   2   9    0.23    0.07
  -5  -2   9    0.18    0.06
   5  -2  -9    0.20    0.12
  -5  -2   9    0.19    0.08
  -5  -2   9    0.23    0.09
  -5  -2   9    0.27    0.08
  -5   2   9    0.16    0.07
  -5   2   9    0.21    0.09
   5   2  -9    0.21    0.09
  -5   2   9    0.15    0.09
  -4  -2   9    7.20    0.54
  -4  -2   9    6.23    0.53
   4  -2  -9    7.11    0.54
  -4  -2   9    6.60    0.46
  -4  -2   9    7.62    0.50
  -4   2   9    7.04    0.52
  -4   2   9    6.93    0.55
   4   2  -9    5.99    0.47
   4   2  -9    6.74    0.52
  -4   2   9    7.15    0.47
  -4   2   9    8.04    0.51
  -3  -2   9    1.57    0.18
  -3  -2   9    1.09    0.14
  -3  -2   9    1.15    0.13
  -3  -2   9    1.76    0.19
   3  -2  -9    1.57    0.21
  -3   2   9    1.39    0.15
   3   2  -9    1.41    0.18
  -3   2   9    1.74    0.18
   3   2  -9    1.11    0.14
  -2  -2   9   24.30    1.75
  -2  -2   9   24.62    1.82
  -2  -2   9   25.46    1.61
   2  -2  -9   26.82    1.74
  -2  -2   9   23.96    1.55
  -2   2   9   22.30    1.82
   2   2  -9   21.12    1.60
  -2   2   9   25.51    1.56
   2   2  -9   25.09    1.73
  -2   2   9   26.11    1.75
  -1  -2   9    0.48    0.10
  -1  -2   9    0.58    0.08
  -1  -2   9    1.08    0.16
   1   2  -9    0.86    0.11
   1   2  -9    0.87    0.13
   1   2  -9    0.73    0.11
   0  -2   9   11.58    0.89
   0  -2   9   11.11    0.75
   0  -2  -9   12.30    0.85
   0  -2  -9   11.23    0.78
   0  -2   9   13.19    0.79
   0   2   9   12.22    0.77
   0   2  -9   11.59    0.84
   0   2   9   10.94    0.89
   0   2  -9   10.64    0.79
   0   2  -9   12.05    0.78
   1  -2   9   -0.06    0.07
  -1  -2  -9    0.14    0.07
  -1  -2  -9    0.09    0.08
   1  -2   9   -0.01    0.09
   1  -2   9   -0.01    0.05
  -1   2  -9    0.03    0.06
  -1   2  -9    0.03    0.06
   1   2   9    0.17    0.09
  -1   2  -9    0.01    0.08
   1   2   9    0.10    0.09
  -2  -2  -9   15.32    0.98
  -2  -2  -9   14.64    1.05
  -2  -2  -9   13.26    0.99
   2  -2   9   14.74    1.11
  -2   2  -9   15.21    1.05
  -2   2  -9   14.39    0.99
  -2   2  -9   15.46    0.98
   2   2   9   13.64    1.10
   3  -2   9    0.06    0.10
  -3  -2  -9    0.13    0.09
  -3  -2  -9    0.19    0.08
  -3  -2  -9    0.17    0.09
   3   2   9    0.10    0.11
  -3   2  -9    0.15    0.08
  -3   2  -9    0.10    0.08
  -3   2  -9    0.11    0.08
  -4  -2  -9   13.09    0.97
  -4  -2  -9   14.90    0.92
   4  -2   9   14.05    1.04
  -4  -2  -9   13.31    0.93
  -4   2  -9   13.28    0.93
  -4   2  -9   13.29    0.97
  -4   2  -9   12.88    0.91
   4   2   9   12.88    1.03
  -5  -2  -9    0.08    0.09
  -5  -2  -9    0.14    0.11
   5  -2   9    0.09    0.12
  -5  -2  -9    0.23    0.10
   5   2   9    0.04    0.12
  -5   2  -9   -0.01    0.09
  -5   2  -9    0.00    0.09
  -5   2  -9    0.02    0.09
   6  -2   9    1.93    0.28
  -6  -2  -9    1.59    0.23
  -6  -2  -9    1.69    0.21
  -6  -2  -9    2.11    0.23
  -6   2  -9    1.83    0.21
   6   2   9    2.01    0.28
  -6   2  -9    1.70    0.22
  -6   2  -9    1.85    0.22
  -7  -2  -9    0.32    0.11
   7  -2   9    0.21    0.15
  -7  -2  -9    0.47    0.12
  -7  -2  -9    0.33    0.14
   7   2   9    0.23    0.15
  -7   2  -9    0.22    0.12
  -7   2  -9    0.15    0.11
  -7   2  -9    0.35    0.11
  -8  -2  -9    0.61    0.13
  -8  -2  -9    0.99    0.16
   8  -2   9    0.76    0.18
  -8  -2  -9    0.62    0.15
  -8   2  -9    0.80    0.15
   8   2   9    0.47    0.18
  -8   2  -9    0.74    0.14
   9  -2   9    0.76    0.16
  -9  -2  -9    0.27    0.15
   9   2   9    0.22    0.17
  -9   2  -9    0.51    0.14
  -9   2  -9    0.62    0.14
 -10  -2  -9    0.28    0.13
 -10   2  -9    0.03    0.12
 -14  -3   9    0.09    0.11
 -14  -3   9    0.12    0.08
 -14   3   9   -0.08    0.11
 -14   3   9    0.00    0.08
  13  -3  -9    0.54    0.14
 -13  -3   9    0.50    0.13
 -13  -3   9    0.30    0.10
 -13   3   9    0.39    0.10
 -13   3   9    0.28    0.12
  12  -3  -9    0.07    0.12
 -12  -3   9    0.14    0.10
 -12  -3   9    0.06    0.08
 -12  -3   9   -0.09    0.08
 -12   3   9    0.11    0.08
 -12   3   9    0.08    0.10
 -11  -3   9    0.35    0.09
 -11  -3   9    0.21    0.12
 -11  -3   9    0.49    0.10
  11  -3  -9    0.35    0.13
  11  -3  -9    0.44    0.10
 -11   3   9    0.37    0.09
 -11   3   9    0.32    0.11
  10  -3  -9    0.06    0.08
 -10  -3   9    0.04    0.08
 -10  -3   9   -0.02    0.10
  10  -3  -9   -0.07    0.11
 -10  -3   9   -0.03    0.07
 -10   3   9   -0.03    0.09
 -10   3   9   -0.04    0.07
   9  -3  -9    0.22    0.12
  -9  -3   9    0.17    0.07
  -9  -3   9    0.11    0.09
  -9  -3   9    0.13    0.10
   9  -3  -9    0.07    0.08
  -9   3   9    0.08    0.09
  -9   3   9    0.11    0.07
   9   3  -9    0.11    0.10
   8  -3  -9    0.19    0.12
  -8  -3   9    0.04    0.08
  -8  -3   9    0.09    0.10
  -8  -3   9    0.09    0.06
   8  -3  -9    0.18    0.08
   8   3  -9    0.04    0.09
  -8   3   9    0.19    0.09
  -8   3   9    0.14    0.07
   7  -3  -9    0.02    0.11
  -7  -3   9    0.03    0.05
   7  -3  -9    0.05    0.07
  -7  -3   9   -0.03    0.09
  -7  -3   9    0.04    0.07
   7   3  -9   -0.01    0.09
  -7   3   9   -0.01    0.08
  -7   3   9    0.08    0.06
  -6  -3   9    0.45    0.11
  -6  -3   9    0.41    0.07
   6  -3  -9    0.38    0.08
  -6  -3   9    0.43    0.09
   6  -3  -9    0.45    0.13
  -6   3   9    0.56    0.09
   6   3  -9    0.47    0.11
  -6   3   9    0.45    0.10
  -5  -3   9    0.00    0.07
  -5  -3   9    0.04    0.04
   5  -3  -9    0.05    0.11
   5  -3  -9    0.04    0.06
  -5  -3   9   -0.01    0.08
  -5   3   9    0.01    0.06
   5   3  -9    0.01    0.08
   5   3  -9   -0.05    0.06
  -5   3   9    0.06    0.08
  -5   3   9   -0.13    0.08
   4  -3  -9    0.10    0.11
  -4  -3   9    0.00    0.07
   4  -3  -9    0.09    0.06
  -4  -3   9    0.07    0.09
  -4  -3   9    0.04    0.04
  -4  -3   9    0.09    0.07
  -4   3   9    0.04    0.06
   4   3  -9    0.09    0.08
  -4   3   9    0.13    0.08
   4   3  -9    0.02    0.06
  -4   3   9    0.13    0.09
  -3  -3   9   -0.03    0.07
  -3  -3   9    0.03    0.09
  -3  -3   9    0.03    0.07
  -3  -3   9    0.00    0.04
   3  -3  -9    0.09    0.10
  -3   3   9    0.13    0.08
  -3   3   9    0.02    0.06
   3   3  -9    0.05    0.07
  -3   3   9    0.10    0.08
   3   3  -9   -0.01    0.06
  -2  -3   9    1.64    0.14
   2  -3  -9    1.80    0.22
  -2  -3   9    1.88    0.20
  -2  -3   9    1.82    0.22
  -2  -3   9    1.47    0.18
  -2   3   9    2.01    0.19
  -2   3   9    1.87    0.21
   2   3  -9    1.67    0.18
   2   3  -9    1.54    0.17
  -2   3   9    1.84    0.17
   1  -3  -9    7.51    0.57
  -1  -3   9    7.72    0.55
  -1  -3   9    9.33    0.59
   1  -3  -9    9.11    0.64
  -1  -3   9    9.40    0.66
   1   3  -9    8.05    0.58
   1   3  -9    7.53    0.58
  -1   3   9    9.15    0.63
  -1   3   9    9.07    0.66
   1   3  -9    8.42    0.62
  -1   3   9    8.77    0.57
   0  -3   9    4.73    0.35
   0  -3   9    5.13    0.44
   0  -3  -9    4.98    0.38
   0  -3   9    5.61    0.38
   0  -3  -9    5.71    0.42
   0   3   9    5.73    0.38
   0   3  -9    4.91    0.38
   0   3   9    5.44    0.43
   0   3  -9    5.35    0.40
   0   3  -9    4.95    0.38
   1  -3   9    2.06    0.25
  -1  -3  -9    2.19    0.22
   1  -3   9    2.21    0.19
   1  -3   9    1.67    0.18
  -1  -3  -9    2.03    0.20
  -1   3  -9    2.13    0.20
  -1   3  -9    1.95    0.19
  -1   3  -9    2.18    0.19
   1   3   9    2.18    0.25
   1   3   9    2.09    0.22
  -2  -3  -9    4.64    0.33
   2  -3   9    4.25    0.37
  -2  -3  -9    3.76    0.34
  -2  -3  -9    3.59    0.31
   2   3   9    4.61    0.37
  -2   3  -9    4.19    0.33
  -2   3  -9    4.06    0.32
  -2   3  -9    3.90    0.32
  -3  -3  -9    0.07    0.08
  -3  -3  -9    0.12    0.08
  -3  -3  -9    0.13    0.09
   3  -3   9    0.06    0.10
  -3   3  -9    0.23    0.08
  -3   3  -9    0.04    0.08
  -3   3  -9    0.12    0.08
   3   3   9    0.08    0.11
   4  -3   9    7.71    0.66
  -4  -3  -9    7.64    0.61
  -4  -3  -9    8.45    0.59
  -4  -3  -9    9.50    0.59
   4   3   9    8.09    0.65
  -4   3  -9    8.18    0.61
  -4   3  -9    7.96    0.58
  -4   3  -9    7.61    0.58
  -5  -3  -9    1.08    0.15
  -5  -3  -9    1.20    0.18
  -5  -3  -9    1.29    0.19
   5  -3   9    1.21    0.18
  -5   3  -9    1.28    0.18
  -5   3  -9    1.43    0.19
  -5   3  -9    1.47    0.19
   5   3   9    1.19    0.18
  -6  -3  -9    3.22    0.31
   6  -3   9    3.03    0.35
  -6  -3  -9    2.97    0.29
  -6  -3  -9    3.58    0.30
  -6   3  -9    3.12    0.29
  -6   3  -9    3.52    0.30
   6   3   9    2.96    0.34
  -6   3  -9    3.14    0.29
  -7  -3  -9    0.03    0.13
  -7  -3  -9    0.06    0.10
   7  -3   9    0.09    0.15
  -7   3  -9   -0.08    0.11
  -7   3  -9    0.10    0.09
  -7   3  -9   -0.09    0.09
   7   3   9   -0.03    0.14
  -8  -3  -9    0.73    0.15
   8  -3   9    0.86    0.19
  -8  -3  -9    0.92    0.16
   8   3   9    0.63    0.18
  -8   3  -9    0.89    0.16
  -8   3  -9    0.86    0.15
   9  -3   9    0.43    0.15
  -9  -3  -9    0.04    0.13
  -9   3  -9    0.11    0.11
   9   3   9   -0.05    0.15
  -9   3  -9   -0.15    0.10
 -14  -4   9    0.05    0.11
 -14  -4   9   -0.08    0.09
 -14   4   9    0.01    0.08
 -13  -4   9    0.26    0.08
 -13  -4   9    0.01    0.10
  13  -4  -9    0.16    0.12
 -13   4   9   -0.01    0.11
 -13   4   9    0.06    0.08
 -12  -4   9    3.52    0.28
  12  -4  -9    3.21    0.31
 -12  -4   9    3.07    0.31
 -12   4   9    3.32    0.27
 -12   4   9    3.38    0.32
 -11  -4   9   -0.01    0.10
 -11  -4   9    0.08    0.08
  11  -4  -9    0.06    0.11
  11  -4  -9    0.05    0.08
 -11  -4   9    0.08    0.08
 -11   4   9   -0.01    0.07
 -11   4   9   -0.08    0.10
  10  -4  -9    3.79    0.30
 -10  -4   9    3.97    0.30
  10  -4  -9    3.46    0.34
 -10  -4   9    4.02    0.29
 -10  -4   9    3.25    0.34
 -10   4   9    4.02    0.33
 -10   4   9    3.56    0.29
   9  -4  -9    0.06    0.11
   9  -4  -9    0.01    0.08
  -9  -4   9   -0.04    0.06
  -9  -4   9    0.05    0.08
  -9  -4   9    0.00    0.10
  -9   4   9    0.02    0.09
  -9   4   9    0.00    0.07
   8  -4  -9    4.32    0.37
  -8  -4   9    4.00    0.32
   8  -4  -9    3.80    0.30
  -8  -4   9    3.62    0.35
  -8  -4   9    4.06    0.29
  -8   4   9    4.13    0.31
  -8   4   9    4.19    0.35
   7  -4  -9   -0.05    0.07
  -7  -4   9    0.00    0.08
   7  -4  -9   -0.07    0.11
  -7  -4   9   -0.01    0.05
  -7  -4   9   -0.13    0.09
  -7   4   9   -0.08    0.06
  -7   4   9   -0.05    0.08
  -6  -4   9   14.12    0.89
   6  -4  -9   14.26    1.02
   6  -4  -9   14.84    0.89
  -6  -4   9   12.27    1.01
  -6  -4   9   13.96    0.93
  -6   4   9   14.09    1.01
  -6   4   9   14.47    0.90
   6   4  -9   12.93    0.93
  -5  -4   9    0.36    0.09
  -5  -4   9    0.34    0.10
   5  -4  -9    0.21    0.12
   5  -4  -9    0.30    0.08
   5   4  -9    0.34    0.08
  -5   4   9    0.36    0.08
  -5   4   9    0.34    0.09
  -4  -4   9    1.62    0.19
  -4  -4   9    1.42    0.18
   4  -4  -9    1.70    0.22
   4  -4  -9    1.65    0.16
  -4  -4   9    1.44    0.17
  -4   4   9    1.41    0.21
  -4   4   9    1.33    0.15
   4   4  -9    1.42    0.16
  -4   4   9    1.43    0.18
   4   4  -9    1.23    0.17
   3  -4  -9    1.82    0.17
  -3  -4   9    1.32    0.19
  -3  -4   9    1.80    0.21
  -3  -4   9    1.69    0.19
   3  -4  -9    1.74    0.23
   3   4  -9    2.07    0.18
  -3   4   9    1.95    0.19
   3   4  -9    1.70    0.18
  -3   4   9    1.59    0.21
  -3   4   9    2.02    0.17
  -2  -4   9    0.14    0.07
  -2  -4   9    0.02    0.07
   2  -4  -9    0.22    0.11
  -2  -4   9    0.16    0.10
   2  -4  -9    0.19    0.07
  -2   4   9    0.04    0.08
  -2   4   9    0.19    0.09
   2   4  -9    0.09    0.07
  -2   4   9    0.16    0.07
   2   4  -9    0.22    0.07
   1  -4  -9    5.22    0.40
  -1  -4   9    4.68    0.37
  -1  -4   9    5.24    0.41
   1  -4  -9    5.06    0.34
   1   4  -9    4.89    0.38
   1   4  -9    5.25    0.36
  -1   4   9    5.12    0.39
  -1   4   9    4.64    0.41
   1   4  -9    4.36    0.36
  -1   4   9    5.20    0.35
   0  -4  -9    5.81    0.44
   0  -4  -9    5.52    0.37
   0  -4   9    5.64    0.46
   0  -4   9    5.61    0.40
   0   4  -9    5.10    0.40
   0   4   9    4.99    0.39
   0   4   9    5.39    0.43
   0   4  -9    6.13    0.40
   0   4  -9    5.58    0.42
   0   4   9    5.76    0.46
   1  -4   9    0.80    0.13
   1  -4   9    0.86    0.13
  -1  -4  -9    0.90    0.12
  -1  -4  -9    0.90    0.13
  -1  -4  -9    1.04    0.14
  -1   4  -9    0.89    0.11
  -1   4  -9    0.82    0.11
  -1   4  -9    0.86    0.14
   1   4   9    0.91    0.13
   1   4   9    0.88    0.12
  -2  -4  -9    2.14    0.21
   2  -4   9    2.48    0.26
  -2  -4  -9    2.07    0.23
  -2   4  -9    2.20    0.21
  -2   4  -9    2.33    0.21
   2   4   9    2.24    0.26
  -2   4  -9    2.01    0.21
   3  -4   9    1.09    0.16
  -3  -4  -9    1.07    0.15
  -3  -4  -9    1.16    0.17
  -3  -4  -9    0.94    0.12
  -3   4  -9    1.28    0.16
  -3   4  -9    1.17    0.17
  -3   4  -9    0.96    0.13
   3   4   9    0.95    0.15
   4  -4   9    5.99    0.50
  -4  -4  -9    5.27    0.43
  -4  -4  -9    6.09    0.44
  -4  -4  -9    5.60    0.45
  -4   4  -9    5.36    0.43
  -4   4  -9    5.96    0.43
   4   4   9    5.43    0.49
  -4   4  -9    6.32    0.45
   5  -4   9    0.80    0.16
  -5  -4  -9    0.96    0.14
  -5  -4  -9    0.75    0.13
  -5   4  -9    0.91    0.13
   5   4   9    0.68    0.15
  -5   4  -9    0.79    0.13
  -5   4  -9    0.74    0.13
   6  -4   9    2.45    0.32
  -6  -4  -9    2.43    0.26
  -6  -4  -9    2.24    0.25
  -6   4  -9    2.44    0.24
  -6   4  -9    2.62    0.25
  -6   4  -9    2.51    0.26
   6   4   9    2.34    0.30
  -7  -4  -9    0.13    0.10
  -7  -4  -9   -0.05    0.12
   7  -4   9   -0.04    0.14
   7   4   9   -0.05    0.14
  -7   4  -9    0.13    0.10
  -7   4  -9    0.07    0.10
  -8  -4  -9    0.08    0.12
  -8  -4  -9    0.01    0.10
   8  -4   9    0.01    0.16
   8   4   9   -0.09    0.15
  -8   4  -9   -0.04    0.11
  -8   4  -9    0.08    0.10
   9  -4   9    0.41    0.16
  -9  -4  -9    0.06    0.13
  -9   4  -9    0.03    0.11
  -9   4  -9    0.12    0.12
   9   4   9   -0.29    0.16
 -14  -5   9   -0.19    0.11
 -14   5   9   -0.05    0.07
 -13  -5   9    2.58    0.26
  13  -5  -9    2.12    0.26
 -13   5   9    2.30    0.22
 -13   5   9    2.44    0.27
  12  -5  -9    0.25    0.12
 -12  -5   9    0.19    0.10
  12  -5  -9   -0.01    0.09
 -12   5   9    0.04    0.08
 -12   5   9   -0.08    0.11
 -11  -5   9    1.84    0.24
  11  -5  -9    2.03    0.24
  11  -5  -9    2.03    0.20
 -11  -5   9    2.04    0.21
 -11   5   9    2.49    0.24
 -11   5   9    1.72    0.19
 -10  -5   9    0.15    0.09
 -10  -5   9   -0.01    0.10
  10  -5  -9    0.16    0.12
  10  -5  -9    0.18    0.09
 -10   5   9    0.08    0.07
 -10   5   9    0.11    0.10
  -9  -5   9    6.04    0.44
   9  -5  -9    5.61    0.42
   9  -5  -9    5.90    0.49
  -9  -5   9    5.74    0.48
  -9   5   9    6.22    0.47
  -9   5   9    5.98    0.42
   8  -5  -9    0.17    0.12
   8  -5  -9    0.03    0.08
  -8  -5   9    0.22    0.10
  -8  -5   9    0.14    0.09
  -8   5   9    0.14    0.07
  -8   5   9    0.20    0.09
   7  -5  -9    2.24    0.26
   7  -5  -9    2.06    0.20
  -7  -5   9    2.20    0.22
  -7  -5   9    2.24    0.24
  -7   5   9    1.97    0.22
  -7   5   9    2.14    0.20
   7   5  -9    2.26    0.22
  -6  -5   9    0.13    0.10
   6  -5  -9    0.24    0.12
   6  -5  -9    0.05    0.07
  -6  -5   9   -0.01    0.08
  -6   5   9    0.16    0.07
  -6   5   9    0.14    0.08
   6   5  -9    0.07    0.08
   5  -5  -9    0.82    0.16
  -5  -5   9    0.78    0.12
   5  -5  -9    0.87    0.11
  -5  -5   9    0.65    0.11
   5   5  -9    0.70    0.11
  -5   5   9    0.82    0.11
  -5   5   9    0.70    0.10
   4  -5  -9    0.16    0.07
  -4  -5   9    0.13    0.08
  -4  -5   9    0.14    0.09
   4  -5  -9    0.16    0.12
  -4   5   9    0.13    0.10
  -4   5   9    0.10    0.08
   4   5  -9    0.07    0.08
  -4   5   9    0.11    0.06
  -3  -5   9   13.91    0.98
   3  -5  -9   14.12    0.86
  -3  -5   9   13.42    0.90
   3  -5  -9   13.90    0.98
  -3   5   9   12.97    0.97
   3   5  -9   12.53    0.90
  -3   5   9   13.26    1.02
  -3   5   9   12.78    0.86
  -2  -5   9    0.20    0.08
   2  -5  -9    0.16    0.07
  -2  -5   9    0.17    0.11
   2  -5  -9    0.12    0.11
  -2   5   9    0.21    0.07
  -2   5   9    0.12    0.09
   2   5  -9    0.14    0.08
   1  -5  -9   19.91    1.46
  -1  -5   9   21.72    1.36
   1  -5  -9   22.72    1.29
  -1  -5   9   18.53    1.52
  -1   5   9   19.80    1.46
  -1   5   9   20.79    1.31
  -1   5   9   20.01    1.53
   1   5  -9   20.77    1.36
   0  -5   9   -0.05    0.08
   0  -5   9   -0.04    0.06
   0  -5  -9   -0.03    0.07
   0  -5  -9   -0.08    0.09
   0   5  -9    0.02    0.06
   0   5   9   -0.05    0.08
   0   5  -9   -0.01    0.06
   0   5   9   -0.06    0.09
   1  -5   9    1.16    0.20
   1  -5   9    1.35    0.15
  -1  -5  -9    1.03    0.17
  -1  -5  -9    1.31    0.14
  -1   5  -9    1.49    0.16
  -1   5  -9    1.37    0.17
   1   5   9    1.33    0.18
   1   5   9    1.39    0.21
  -1   5  -9    1.15    0.15
   2  -5   9    0.04    0.10
  -2  -5  -9   -0.08    0.08
   2   5   9   -0.07    0.10
  -2   5  -9    0.03    0.07
  -2   5  -9   -0.01    0.07
  -2   5  -9    0.01    0.07
  -3  -5  -9    3.58    0.32
   3  -5   9    3.84    0.35
   3   5   9    3.94    0.36
  -3   5  -9    3.53    0.30
  -3   5  -9    3.49    0.31
  -3   5  -9    4.02    0.31
  -4  -5  -9    0.32    0.11
  -4  -5  -9    0.16    0.10
   4  -5   9    0.36    0.13
  -4   5  -9    0.27    0.09
   4   5   9    0.26    0.13
  -4   5  -9    0.36    0.10
  -4   5  -9    0.26    0.09
   5  -5   9    0.84    0.16
  -5  -5  -9    0.77    0.14
  -5  -5  -9    0.88    0.14
  -5   5  -9    0.86    0.14
   5   5   9    0.75    0.16
  -5   5  -9    0.78    0.13
  -5   5  -9    0.89    0.13
  -6  -5  -9   -0.09    0.10
  -6  -5  -9   -0.07    0.11
   6  -5   9    0.06    0.14
  -6   5  -9   -0.03    0.10
  -6   5  -9    0.03    0.09
   6   5   9    0.05    0.14
   7  -5   9    0.13    0.15
  -7  -5  -9    0.11    0.11
  -7  -5  -9   -0.08    0.12
  -7   5  -9    0.24    0.11
   7   5   9    0.11    0.15
  -7   5  -9    0.13    0.11
  -8  -5  -9    0.03    0.13
   8  -5   9    0.13    0.14
  -8  -5  -9    0.03    0.10
  -8   5  -9    0.12    0.12
   8   5   9    0.02    0.15
  -8   5  -9    0.10    0.10
   9  -5   9    0.99    0.18
  -9  -5  -9    0.68    0.16
  -9   5  -9    0.58    0.15
  -9   5  -9    0.75    0.15
   9   5   9    0.75    0.18
 -13  -6   9    0.32    0.11
 -13   6   9    0.12    0.08
  12  -6  -9    5.14    0.40
 -12  -6   9    5.73    0.46
  12  -6  -9    5.54    0.46
 -12   6   9    5.17    0.40
 -12   6   9    6.00    0.46
  11  -6  -9    0.04    0.08
 -11  -6   9    0.01    0.08
  11  -6  -9    0.06    0.11
 -11  -6   9    0.04    0.10
 -11   6   9   -0.01    0.07
 -11   6   9   -0.09    0.10
 -10  -6   9    0.93    0.12
 -10  -6   9    0.67    0.13
  10  -6  -9    0.87    0.13
  10  -6  -9    0.67    0.16
 -10   6   9    0.81    0.13
 -10   6   9    0.73    0.11
   9  -6  -9   -0.01    0.11
  -9  -6   9    0.23    0.09
   9  -6  -9    0.00    0.08
  -9  -6   9    0.15    0.10
  -9   6   9    0.04    0.07
  -9   6   9    0.08    0.09
   8  -6  -9    1.18    0.15
   8  -6  -9    1.56    0.22
  -8  -6   9    1.31    0.18
  -8  -6   9    1.44    0.20
  -8   6   9    1.37    0.19
  -8   6   9    1.24    0.16
   8   6  -9    1.55    0.19
  -7  -6   9   -0.05    0.10
   7  -6  -9    0.07    0.08
  -7  -6   9    0.07    0.08
   7  -6  -9    0.08    0.12
  -7   6   9    0.05    0.08
  -7   6   9    0.10    0.07
   7   6  -9    0.08    0.09
   6  -6  -9    2.61    0.28
  -6  -6   9    2.47    0.26
  -6  -6   9    2.59    0.24
   6  -6  -9    2.87    0.23
  -6   6   9    2.59    0.22
   6   6  -9    2.80    0.25
  -6   6   9    2.61    0.24
  -5  -6   9    0.16    0.10
   5  -6  -9    0.14    0.12
   5  -6  -9   -0.01    0.07
  -5  -6   9   -0.03    0.08
  -5   6   9    0.11    0.08
   5   6  -9    0.05    0.09
  -5   6   9    0.12    0.07
   4  -6  -9    0.29    0.13
  -4  -6   9    0.17    0.08
  -4  -6   9    0.15    0.10
   4  -6  -9    0.22    0.08
   4   6  -9    0.21    0.09
  -4   6   9    0.20    0.07
  -4   6   9   -0.03    0.10
   3  -6  -9    0.36    0.09
  -3  -6   9    0.47    0.11
  -3  -6   9    0.38    0.09
   3  -6  -9    0.53    0.14
  -3   6   9    0.46    0.11
   3   6  -9    0.28    0.10
  -3   6   9    0.51    0.08
  -2  -6   9    6.82    0.49
   2  -6  -9    6.73    0.53
   2  -6  -9    6.45    0.46
  -2  -6   9    6.86    0.54
  -2   6   9    6.94    0.55
  -2   6   9    7.15    0.47
   2   6  -9    6.83    0.49
   1  -6  -9    1.70    0.19
  -1  -6   9    1.77    0.21
   1  -6  -9    1.89    0.23
  -1   6   9    2.67    0.26
  -1   6   9    2.45    0.20
   1   6  -9    2.29    0.21
   0  -6  -9    8.21    0.57
   0  -6  -9    8.63    0.65
   0  -6   9    8.95    0.60
   0   6  -9    9.02    0.60
   0   6  -9    7.77    0.61
   0   6   9    9.14    0.68
   0   6   9    9.10    0.59
  -1  -6  -9    1.50    0.19
  -1  -6  -9    1.54    0.15
   1  -6   9    1.56    0.21
   1  -6   9    1.62    0.18
  -1   6  -9    1.51    0.17
   1   6   9    1.57    0.22
  -1   6  -9    1.91    0.18
   1   6   9    1.45    0.19
  -2  -6  -9    1.86    0.21
   2  -6   9    2.28    0.25
  -2   6  -9    1.90    0.20
   2   6   9    2.16    0.25
   2   6   9    2.06    0.23
  -2   6  -9    1.89    0.20
   3  -6   9    1.88    0.25
  -3  -6  -9    1.86    0.22
   3   6   9    2.07    0.25
  -3   6  -9    2.19    0.20
  -3   6  -9    1.89    0.20
   4  -6   9    1.44    0.23
  -4  -6  -9    1.03    0.15
  -4   6  -9    1.17    0.18
  -4   6  -9    0.84    0.13
   4   6   9    0.94    0.16
  -5  -6  -9    0.70    0.12
   5  -6   9    0.52    0.14
  -5  -6  -9    0.61    0.13
   5   6   9    0.44    0.16
  -5   6  -9    0.51    0.12
  -5   6  -9    0.57    0.12
   6  -6   9    3.87    0.37
  -6  -6  -9    3.99    0.33
  -6  -6  -9    3.66    0.33
   6   6   9    3.55    0.38
  -6   6  -9    3.53    0.32
  -6   6  -9    3.82    0.33
  -7  -6  -9    1.08    0.18
   7  -6   9    1.17    0.19
  -7  -6  -9    1.50    0.21
  -7   6  -9    0.94    0.16
  -7   6  -9    1.18    0.16
   7   6   9    0.71    0.19
   8  -6   9    0.88    0.18
  -8  -6  -9    0.99    0.15
  -8   6  -9    0.60    0.13
   8   6   9    0.32    0.18
  -9  -6  -9    1.65    0.23
 -13   7   9    0.04    0.07
  12  -7  -9   -0.02    0.12
  12  -7  -9   -0.02    0.09
 -12   7   9    0.05    0.07
 -11  -7   9    0.36    0.11
  11  -7  -9    0.31    0.11
  11  -7  -9    0.24    0.14
 -11  -7   9    0.45    0.10
 -11   7   9    0.26    0.09
 -10  -7   9    0.03    0.08
 -10  -7   9   -0.05    0.09
  10  -7  -9   -0.01    0.08
  10  -7  -9   -0.06    0.12
 -10   7   9    0.03    0.07
   9  -7  -9    0.18    0.13
  -9  -7   9    0.31    0.11
  -9  -7   9    0.25    0.10
   9  -7  -9    0.22    0.09
  -9   7   9    0.15    0.08
   8  -7  -9   -0.01    0.08
  -8  -7   9    0.01    0.09
   8  -7  -9   -0.03    0.11
  -8  -7   9   -0.03    0.09
   8   7  -9    0.02    0.10
  -8   7   9   -0.01    0.07
  -7  -7   9    0.58    0.11
  -7  -7   9    0.53    0.12
   7  -7  -9    0.65    0.16
   7  -7  -9    0.66    0.11
  -7   7   9    0.61    0.10
   7   7  -9    0.65    0.13
  -6  -7   9    0.47    0.10
   6  -7  -9    0.33    0.14
   6  -7  -9    0.50    0.10
  -6  -7   9    0.43    0.11
  -6   7   9    0.54    0.09
   6   7  -9    0.60    0.13
  -5  -7   9    0.91    0.15
  -5  -7   9    0.99    0.13
   5  -7  -9    1.16    0.14
   5  -7  -9    1.08    0.18
   5   7  -9    1.32    0.19
  -5   7   9    1.24    0.15
  -4  -7   9    0.33    0.11
   4  -7  -9    0.22    0.09
   4  -7  -9    0.24    0.13
  -4  -7   9    0.27    0.09
   4   7  -9    0.29    0.10
  -4   7   9    0.22    0.08
   3  -7  -9    0.16    0.12
   3  -7  -9    0.22    0.08
  -3  -7   9    0.10    0.08
  -3  -7   9    0.07    0.10
  -3   7   9    0.17    0.07
  -3   7   9    0.07    0.10
   3   7  -9    0.07    0.09
  -2  -7   9    2.28    0.25
  -2  -7   9    2.22    0.22
   2  -7  -9    2.11    0.21
   2  -7  -9    2.03    0.25
  -2   7   9    2.54    0.27
  -2   7   9    2.41    0.20
   2   7  -9    2.57    0.23
   1  -7  -9    0.23    0.09
   1  -7  -9    0.24    0.11
  -1  -7   9    0.30    0.12
  -1  -7   9    0.13    0.08
   1   7  -9    0.20    0.08
  -1   7   9    0.24    0.08
  -1   7   9    0.24    0.10
   0  -7  -9    2.93    0.25
   0  -7   9    3.05    0.27
   0  -7  -9    2.78    0.28
   0   7   9    3.19    0.32
   0   7  -9    3.59    0.27
   0   7   9    3.39    0.26
   1  -7   9    0.57    0.10
  -1  -7  -9    0.72    0.12
  -1   7  -9    0.32    0.10
   1   7   9    0.64    0.12
  -1   7  -9    0.53    0.10
   1   7   9    0.55    0.11
  -2  -7  -9    1.75    0.20
   2   7   9    1.79    0.24
  -2   7  -9    1.63    0.20
   2   7   9    1.97    0.22
  -2   7  -9    2.06    0.20
  -3  -7  -9    0.04    0.10
   3   7   9    0.04    0.12
   3   7   9    0.02    0.11
  -3   7  -9   -0.01    0.08
  -3   7  -9   -0.01    0.08
  -4  -7  -9    3.27    0.31
   4  -7   9    3.48    0.35
  -4   7  -9    4.04    0.31
   4   7   9    3.59    0.35
  -4   7  -9    3.67    0.31
  -5  -7  -9    0.05    0.10
   5  -7   9    0.25    0.12
  -5   7  -9    0.05    0.10
   5   7   9   -0.15    0.13
  -5   7  -9    0.02    0.09
   6  -7   9    4.35    0.41
  -6  -7  -9    4.33    0.37
   6   7   9    3.98    0.42
  -6   7  -9    4.56    0.37
  -6   7  -9    4.75    0.37
  -7  -7  -9    1.35    0.19
   7  -7   9    1.69    0.25
  -7   7  -9    1.34    0.20
  -7   7  -9    1.01    0.17
  -8   7  -9    1.07    0.17
  -8   7  -9    1.37    0.19
  12  -8  -9    2.38    0.22
 -12   8   9    2.28    0.21
  11  -8  -9   -0.13    0.09
 -11  -8   9    0.00    0.08
  11  -8  -9   -0.08    0.12
 -11   8   9    0.02    0.07
  10  -8  -9    4.52    0.34
  10  -8  -9    4.46    0.39
 -10  -8   9    4.36    0.34
 -10   8   9    4.04    0.32
   9  -8  -9   -0.09    0.09
   9  -8  -9    0.07    0.14
  -9  -8   9    0.10    0.09
  -9  -8   9    0.11    0.09
  -9   8   9    0.14    0.08
   9   8  -9    0.11    0.10
  -8  -8   9    4.80    0.41
  -8  -8   9    5.09    0.39
   8  -8  -9    4.93    0.42
   8  -8  -9    4.43    0.36
  -8   8   9    5.00    0.36
   8   8  -9    5.11    0.39
   7  -8  -9   -0.12    0.08
   7  -8  -9   -0.23    0.13
  -7  -8   9   -0.08    0.09
  -7  -8   9   -0.19    0.10
   7   8  -9   -0.04    0.10
  -7   8   9   -0.01    0.07
  -6  -8   9    1.50    0.20
  -6  -8   9    1.48    0.20
   6  -8  -9    1.50    0.19
   6  -8  -9    1.55    0.22
  -6   8   9    1.46    0.17
   6   8  -9    1.81    0.22
  -5  -8   9    0.04    0.09
  -5  -8   9    0.00    0.10
   5  -8  -9   -0.06    0.12
   5  -8  -9    0.09    0.09
  -5   8   9    0.05    0.07
   5   8  -9    0.00    0.10
  -4  -8   9    5.36    0.40
   4  -8  -9    5.10    0.43
   4  -8  -9    5.27    0.38
  -4  -8   9    4.87    0.42
  -4   8   9    5.21    0.37
   4   8  -9    5.38    0.41
  -3  -8   9    0.80    0.12
   3  -8  -9    0.65    0.15
   3  -8  -9    0.72    0.12
  -3  -8   9    0.77    0.12
   3   8  -9    0.58    0.13
  -3   8   9    0.81    0.11
  -2  -8   9   10.09    0.77
   2  -8  -9    9.56    0.77
   2  -8  -9   10.27    0.68
  -2  -8   9   10.64    0.71
  -2   8   9   10.93    0.81
   2   8  -9   10.60    0.72
  -2   8   9   10.27    0.69
  -1  -8   9    2.10    0.22
   1  -8  -9    1.93    0.20
   1  -8  -9    1.84    0.23
  -1  -8   9    1.81    0.25
   1   8  -9    2.28    0.22
  -1   8   9    2.29    0.28
  -1   8   9    2.25    0.20
   0  -8   9    1.83    0.21
   0  -8  -9    2.53    0.20
   0  -8  -9    1.74    0.21
   0   8  -9    2.21    0.21
   0   8   9    1.89    0.20
   0   8   9    1.79    0.25
   1  -8   9    0.37    0.10
  -1  -8  -9    0.30    0.12
   1   8   9    0.30    0.12
  -1   8  -9    0.30    0.10
  -1   8  -9    0.33    0.10
   1   8   9    0.40    0.10
  -2  -8  -9    2.84    0.28
  -2   8  -9    2.76    0.26
   2   8   9    3.04    0.27
   2   8   9    3.19    0.32
  -2   8  -9    3.14    0.27
  -3  -8  -9    1.12    0.17
  -3   8  -9    0.81    0.13
   3   8   9    0.98    0.16
   3   8   9    0.81    0.15
  -3   8  -9    0.75    0.13
  -4  -8  -9    4.27    0.35
  -4   8  -9    4.32    0.34
   4   8   9    3.95    0.39
  -4   8  -9    4.10    0.34
   4   8   9    4.13    0.37
  -5  -8  -9    0.27    0.12
   5   8   9   -0.16    0.13
  -5   8  -9    0.24    0.11
  -5   8  -9    0.21    0.11
  -6  -8  -9    0.63    0.13
  -6   8  -9    0.61    0.13
  -6   8  -9    0.71    0.14
  -7  -8  -9    0.15    0.12
  -7   8  -9    0.27    0.11
  -7   8  -9    0.18    0.11
  -8   8  -9    0.33    0.12
  12  -9  -9    0.13    0.10
 -12   9   9   -0.03    0.07
  11  -9  -9    3.70    0.28
 -11  -9   9    3.19    0.28
 -11   9   9    3.16    0.26
  10  -9  -9    0.13    0.10
 -10  -9   9    0.27    0.09
  10  -9  -9   -0.08    0.14
 -10   9   9    0.16    0.07
   9  -9  -9    1.65    0.20
  -9  -9   9    1.74    0.21
   9  -9  -9    1.52    0.23
  -9   9   9    1.57    0.17
   9   9  -9    1.78    0.22
   8  -9  -9    0.03    0.15
  -8  -9   9    0.16    0.10
   8  -9  -9    0.13    0.10
  -8   9   9    0.11    0.08
   8   9  -9    0.02    0.11
   7  -9  -9    3.31    0.34
   7  -9  -9    3.56    0.29
  -7  -9   9    3.35    0.31
  -7   9   9    3.61    0.28
   7   9  -9    3.80    0.33
   6  -9  -9    0.03    0.09
  -6  -9   9   -0.03    0.09
   6  -9  -9   -0.20    0.13
   6   9  -9   -0.06    0.11
  -6   9   9   -0.02    0.07
  -5  -9   9    2.54    0.25
   5  -9  -9    2.43    0.23
  -5  -9   9    2.45    0.24
   5  -9  -9    2.05    0.27
   5   9  -9    2.87    0.27
  -5   9   9    2.20    0.21
   4  -9  -9    0.40    0.15
  -4  -9   9    0.28    0.11
   4  -9  -9    0.44    0.11
  -4  -9   9    0.42    0.11
  -4   9   9    0.36    0.09
   4   9  -9    0.36    0.12
  -3  -9   9    3.99    0.35
   3  -9  -9    3.85    0.36
   3  -9  -9    4.36    0.32
  -3  -9   9    4.33    0.34
  -3   9   9    3.87    0.31
   3   9  -9    4.65    0.36
   2  -9  -9    0.57    0.14
   2  -9  -9    0.45    0.11
  -2   9   9    0.63    0.10
   2   9  -9    0.20    0.12
  -2   9   9    0.67    0.13
   1  -9  -9   16.03    1.34
  -1  -9   9   19.58    1.26
   1  -9  -9   19.35    1.20
  -1  -9   9   18.59    1.36
  -1   9   9   18.36    1.21
   1   9  -9   19.79    1.26
  -1   9   9   19.78    1.42
   0  -9   9   -0.14    0.13
   0  -9  -9    0.16    0.11
   0  -9   9   -0.01    0.09
   0   9   9   -0.02    0.11
   0   9   9    0.05    0.09
   0   9  -9    0.13    0.09
   1  -9   9    4.31    0.32
  -1  -9  -9    3.68    0.34
  -1   9  -9    4.08    0.32
   1   9   9    4.13    0.38
   1   9   9    3.76    0.31
  -1   9  -9    3.71    0.32
  -2  -9  -9    0.30    0.12
   2   9   9    0.22    0.13
  -2   9  -9    0.41    0.11
  -2   9  -9    0.52    0.11
   2   9   9    0.30    0.12
  -3  -9  -9    2.56    0.25
  -3   9  -9    2.38    0.24
   3   9   9    2.45    0.26
  -3   9  -9    2.10    0.24
   3   9   9    2.54    0.29
  -4  -9  -9    0.73    0.12
   4   9   9    0.50    0.15
  -4   9  -9    0.61    0.12
  -4   9  -9    0.54    0.12
  -5  -9  -9    1.77    0.22
  -5   9  -9    2.00    0.22
  -5   9  -9    1.85    0.22
   5   9   9    2.01    0.26
  -6   9  -9    0.37    0.11
   6   9   9   -0.30    0.15
  -6   9  -9    0.07    0.09
  -7   9  -9    0.21    0.11
  -7   9  -9    0.21    0.11
  11 -10  -9    0.16    0.10
 -11  10   9    0.02    0.07
  10 -10  -9    0.37    0.11
  10 -10  -9    0.25    0.17
 -10  10   9    0.32    0.09
  -9 -10   9    0.00    0.09
   9 -10  -9   -0.05    0.10
   9  10  -9   -0.13    0.10
  -9  10   9   -0.02    0.07
   8 -10  -9   -0.17    0.14
  -8 -10   9    0.02    0.10
   8 -10  -9    0.06    0.10
  -8  10   9    0.07    0.07
   8  10  -9   -0.09    0.11
   7 -10  -9    0.13    0.10
  -7 -10   9    0.23    0.10
   7 -10  -9   -0.22    0.15
   7  10  -9    0.10    0.12
  -7  10   9    0.19    0.08
   6 -10  -9    0.01    0.10
  -6 -10   9   -0.09    0.10
   6 -10  -9   -0.11    0.15
  -6  10   9    0.04    0.07
   6  10  -9   -0.04    0.11
  -5 -10   9    0.15    0.10
   5 -10  -9    0.10    0.15
   5 -10  -9    0.31    0.11
  -5  10   9    0.28    0.09
   5  10  -9    0.31    0.13
  -4 -10   9    0.02    0.10
   4 -10  -9    0.10    0.14
   4 -10  -9    0.11    0.10
  -4  10   9    0.19    0.09
   4  10  -9    0.14    0.11
  -3 -10   9    0.04    0.10
   3 -10  -9    0.16    0.10
   3 -10  -9   -0.02    0.13
   3  10  -9   -0.08    0.11
  -3  10   9    0.15    0.08
  -2 -10   9    0.44    0.12
   2 -10  -9    0.66    0.12
   2 -10  -9    0.59    0.14
   2  10  -9    0.58    0.13
  -2  10   9    0.67    0.11
   1 -10  -9    1.58    0.19
   1 -10  -9    1.45    0.21
  -1 -10   9    1.44    0.21
   1 -10  -9    1.69    0.20
   1  10  -9    1.83    0.22
  -1  10   9    2.14    0.26
  -1  10   9    1.59    0.19
   0 -10   9    0.34    0.11
   0 -10  -9    0.64    0.10
   0 -10   9    0.38    0.14
   0 -10  -9    0.61    0.12
   0  10  -9    0.34    0.11
   0  10   9    0.52    0.13
   0  10   9    0.43    0.11
   1 -10   9    1.78    0.21
  -1 -10  -9    2.13    0.21
  -1  10  -9    1.52    0.21
   1  10   9    1.75    0.20
  -1  10  -9    1.60    0.21
  -2 -10  -9    0.11    0.12
  -2  10  -9    0.13    0.10
   2  10   9    0.22    0.11
  -2  10  -9    0.19    0.10
  -3  10  -9    1.68    0.21
  -3  10  -9    1.76    0.21
   3  10   9    1.58    0.22
  -4  10  -9    0.14    0.10
   4  10   9    0.13    0.13
  -4  10  -9    0.15    0.10
  -5  10  -9    2.32    0.23
  -5  10  -9    2.28    0.24
   5  10   9    1.79    0.26
   6  10   9    0.31    0.17
  -6  10  -9    1.30    0.18
  -6  10  -9    0.71    0.14
  10 -11  -9    0.26    0.11
 -10 -11   9    0.27    0.10
  10  11  -9   -0.20    0.11
 -10  11   9    0.04    0.07
   9 -11  -9    0.45    0.18
  -9 -11   9    0.74    0.13
   9 -11  -9    0.53    0.12
  -9  11   9    0.34    0.09
   9  11  -9    0.21    0.12
   8 -11  -9   -0.36    0.17
   8 -11  -9    0.06    0.10
  -8 -11   9    0.02    0.10
  -8  11   9    0.13    0.08
   8  11  -9    0.03    0.12
   7 -11  -9    1.54    0.19
   7 -11  -9    1.00    0.22
  -7 -11   9    1.60    0.22
  -7  11   9    1.28    0.16
   7  11  -9    1.68    0.23
   6 -11  -9   -0.05    0.10
  -6 -11   9   -0.13    0.10
   6 -11  -9   -0.32    0.15
  -6  11   9    0.10    0.08
   6  11  -9   -0.03    0.11
   5 -11  -9    1.95    0.21
   5 -11  -9    1.59    0.24
  -5 -11   9    1.44    0.22
  -5  11   9    1.83    0.19
   5  11  -9    2.14    0.24
   4 -11  -9   -0.07    0.14
   4 -11  -9   -0.07    0.09
  -4 -11   9   -0.03    0.10
   4  11  -9   -0.09    0.11
  -4  11   9   -0.04    0.08
  -3 -11   9    0.34    0.12
   3 -11  -9    0.35    0.11
   3 -11  -9    0.64    0.13
   3  11  -9    0.49    0.14
  -3  11   9    0.42    0.10
   2 -11  -9    1.41    0.18
  -2 -11   9    0.82    0.14
   2 -11  -9    1.03    0.14
   2 -11  -9    0.93    0.14
  -2  11   9    0.91    0.13
   2  11  -9    0.87    0.15
   1 -11  -9    0.27    0.09
  -1 -11   9    0.06    0.10
   1  11  -9    0.07    0.10
  -1  11   9    0.13    0.09
   0 -11   9    0.37    0.12
   0 -11  -9    0.48    0.11
   0  11  -9    0.58    0.12
   0  11   9    0.39    0.11
   1 -11   9    0.77    0.14
   1  11   9    0.85    0.13
  -1  11  -9    0.80    0.14
  -1  11  -9    0.84    0.14
  -2  11  -9    1.00    0.15
   2  11   9    0.92    0.14
  -2  11  -9    0.89    0.15
  -3  11  -9    0.71    0.14
   3  11   9    0.69    0.14
  -3  11  -9    0.85    0.13
   4  11   9    1.37    0.19
  -4  11  -9    1.72    0.20
  -4  11  -9    1.31    0.19
  -5  11  -9    1.23    0.18
  -5  11  -9    1.11    0.17
   9 -12  -9    0.17    0.10
  -9 -12   9    0.18    0.10
   9 -12  -9    0.36    0.10
   8 -12  -9    5.40    0.44
  -8 -12   9    6.25    0.47
   8 -12  -9    6.02    0.47
   8  12  -9    6.08    0.47
   7 -12  -9    0.16    0.10
  -7 -12   9    0.04    0.10
   7 -12  -9    0.18    0.12
   7  12  -9    0.16    0.11
  -6 -12   9    0.18    0.12
   6 -12  -9    0.36    0.12
   6 -12  -9    0.32    0.12
  -6  12   9    0.15    0.09
   6  12  -9    0.12    0.11
   5 -12  -9    0.07    0.11
  -5 -12   9   -0.09    0.10
   5 -12  -9    0.00    0.10
  -5  12   9    0.09    0.08
   5  12  -9    0.00    0.10
  -4 -12   9    1.07    0.17
   4 -12  -9    1.34    0.19
   4 -12  -9    1.45    0.20
   4  12  -9    0.97    0.17
  -4  12   9    1.20    0.16
   3 -12  -9    0.13    0.10
   3 -12  -9    0.14    0.11
  -3 -12   9   -0.12    0.11
   3  12  -9   -0.12    0.11
  -3  12   9    0.01    0.08
  -2 -12   9    6.24    0.48
   2 -12  -9    6.36    0.48
   2 -12  -9    6.33    0.45
  -2  12   9    6.29    0.45
   2  12  -9    6.41    0.49
   1 -12  -9    0.12    0.10
  -1 -12   9    0.02    0.11
   1  12  -9    0.12    0.11
  -1  12   9   -0.06    0.10
   0 -12  -9    1.10    0.15
   0 -12   9    1.23    0.17
   0  12   9    1.26    0.18
   0  12  -9    1.31    0.20
   1 -12   9   -0.03    0.10
  -1  12  -9   -0.11    0.09
   1  12   9   -0.16    0.09
  -1  12  -9   -0.05    0.10
  -2  12  -9    2.42    0.25
  -2  12  -9    2.35    0.25
   2  12   9    2.27    0.24
  -3  12  -9    0.14    0.10
   3  12   9   -0.04    0.11
  -3  12  -9   -0.02    0.10
  -4  12  -9    2.78    0.25
   4  12   9    2.19    0.25
  -4  12  -9    2.35    0.25
   8  13  -9    0.09    0.10
   7 -13  -9    0.31    0.11
  -7 -13   9    0.07    0.11
   7 -13  -9    0.29    0.11
   7  13  -9   -0.18    0.11
  -6 -13   9   -0.08    0.11
   6 -13  -9    0.24    0.11
   6 -13  -9    0.34    0.10
   6  13  -9    0.19    0.11
   5 -13  -9    0.48    0.13
   5 -13  -9    0.62    0.13
   5  13  -9    0.14    0.12
   4 -13  -9    0.27    0.10
  -4 -13   9    0.06    0.11
   4 -13  -9    0.17    0.11
   4  13  -9   -0.03    0.11
   3 -13  -9    0.55    0.11
  -3 -13   9    0.17    0.12
   3 -13  -9    0.16    0.11
   3  13  -9    0.29    0.12
  -2 -13   9    0.14    0.11
   2 -13  -9    0.10    0.11
   2  13  -9    0.08    0.11
   1 -13  -9    1.87    0.22
  -1 -13   9    1.89    0.23
   1  13  -9    2.18    0.23
   0 -13   9    0.17    0.11
   0  13  -9    0.33    0.12
   1 -13   9    0.05    0.11
  -1  13  -9    0.18    0.11
  -1  13  -9    0.24    0.11
  -2  13  -9    0.32    0.12
  -2  13  -9    0.64    0.13
  -3  13  -9   -0.04    0.10
   5 -14  -9    0.02    0.11
  -5 -14   9    0.05    0.11
   5  14  -9   -0.13    0.10
   4 -14  -9    1.21    0.17
  -4 -14   9    1.06    0.16
   4 -14  -9    0.84    0.17
   4  14  -9    1.51    0.19
  -3 -14   9    0.01    0.11
   3 -14  -9   -0.09    0.11
   3  14  -9   -0.03    0.10
  -2 -14   9   -0.25    0.10
   2 -14  -9   -0.15    0.10
   2  14  -9   -0.03    0.10
  -1 -14   9    0.19    0.12
   1 -14  -9    0.13    0.11
   1  14  -9    0.55    0.12
   0 -14   9   -0.11    0.11
   0  14  -9   -0.05    0.10
 -14   0  10    0.30    0.10
 -14   0  10    0.18    0.09
 -13   0  10   -0.07    0.08
 -13   0  10   -0.09    0.10
  13   0 -10   -0.02    0.12
 -12   0  10    2.03    0.19
  12   0 -10    1.60    0.22
 -12   0  10    1.67    0.22
 -11   0  10   -0.07    0.08
  11   0 -10    0.06    0.11
 -11   0  10    0.03    0.10
  10   0 -10    4.14    0.31
  10   0 -10    3.78    0.37
 -10   0  10    4.54    0.31
 -10   0  10    4.07    0.36
   9   0 -10    0.05    0.08
  -9   0  10    0.08    0.07
  -9   0  10    0.13    0.10
  -9   0  10   -0.03    0.09
   9   0 -10    0.06    0.12
   8   0 -10   24.67    1.77
  -8   0  10   22.85    1.77
  -8   0  10   26.15    1.58
   8   0 -10   25.30    1.55
   7   0 -10    0.13    0.12
  -7   0  10    0.35    0.10
  -7   0  10   -0.21    0.10
  -7   0  10    0.15    0.07
  -6   0  10   93.58    5.44
  -6   0  10   72.40    5.91
  -6   0  10   81.73    5.25
   6   0 -10   87.46    5.86
   5   0 -10   -0.01    0.11
  -5   0  10    0.05    0.09
  -5   0  10    0.00    0.09
  -5   0  10   -0.04    0.06
  -5   0  10   -0.02    0.08
  -4   0  10   15.20    0.99
   4   0 -10   15.82    1.11
  -4   0  10   17.35    1.05
  -4   0  10   14.89    1.16
  -4   0  10   14.03    1.12
   3   0 -10   -0.02    0.10
  -3   0  10    0.00    0.06
  -3   0  10    0.03    0.08
  -3   0  10    0.00    0.09
  -3   0  10   -0.09    0.08
  -2   0  10   70.57    4.14
  -2   0  10   61.27    4.68
  -2   0  10   63.76    4.50
   2   0 -10   62.71    4.13
  -2   0  10   62.41    4.00
   2   0 -10   61.37    4.45
   1   0 -10    0.52    0.11
   0   0  10   23.94    1.56
   0   0 -10   23.49    1.68
   0   0  10   23.14    1.77
   0   0  10   23.50    1.51
   0   0 -10   24.48    1.56
  -1   0 -10    0.09    0.08
  -1   0 -10    0.07    0.08
   1   0  10    0.18    0.10
   1   0  10    0.01    0.09
  -2   0 -10    1.41    0.19
  -2   0 -10    1.51    0.18
  -2   0 -10    1.36    0.16
   2   0  10    1.44    0.24
  -3   0 -10    0.27    0.10
   3   0  10    0.49    0.12
  -3   0 -10    0.15    0.10
  -3   0 -10    0.31    0.10
  -4   0 -10    5.75    0.45
  -4   0 -10    6.22    0.45
   4   0  10    6.25    0.51
  -4   0 -10    5.57    0.46
  -5   0 -10   -0.06    0.09
  -5   0 -10    0.08    0.10
  -5   0 -10   -0.01    0.11
   5   0  10   -0.05    0.13
  -6   0 -10    2.48    0.26
   6   0  10    2.37    0.32
  -6   0 -10    2.68    0.27
  -6   0 -10    2.99    0.27
  -7   0 -10    0.11    0.11
  -7   0 -10    0.15    0.12
   7   0  10   -0.04    0.16
  -7   0 -10    0.01    0.09
   8   0  10    1.48    0.24
  -8   0 -10    1.94    0.24
  -8   0 -10    2.13    0.22
  -8   0 -10    2.03    0.24
   9   0  10   -0.15    0.15
  -9   0 -10   -0.03    0.12
  -9   0 -10    0.09    0.11
 -14  -1  10    0.07    0.10
 -14  -1  10    0.15    0.08
 -14   1  10    0.05    0.08
 -14   1  10    0.10    0.10
 -13  -1  10    0.11    0.08
  13  -1 -10    0.08    0.12
 -13  -1  10   -0.01    0.10
 -13   1  10    0.00    0.08
 -13   1  10    0.09    0.10
  13   1 -10    0.19    0.12
 -12  -1  10    0.01    0.10
 -12  -1  10   -0.01    0.08
  12  -1 -10    0.07    0.11
 -12   1  10    0.01    0.10
  12   1 -10    0.12    0.12
 -12   1  10   -0.03    0.07
  11  -1 -10    0.61    0.15
 -11  -1  10    0.42    0.12
 -11  -1  10    0.61    0.10
  11  -1 -10    0.66    0.11
 -11   1  10    0.55    0.11
 -11   1  10    0.43    0.12
  11   1 -10    0.69    0.14
 -10  -1  10    0.01    0.07
  10  -1 -10    0.10    0.12
  10  -1 -10    0.06    0.09
 -10  -1  10    0.05    0.09
 -10  -1  10    0.03    0.10
  10   1 -10   -0.10    0.11
 -10   1  10    0.08    0.07
 -10   1  10    0.16    0.10
  10   1 -10    0.05    0.08
   9  -1 -10    3.25    0.33
  -9  -1  10    3.35    0.26
  -9  -1  10    3.30    0.32
  -9  -1  10    3.80    0.30
   9  -1 -10    3.32    0.27
  -9   1  10    3.53    0.32
   9   1 -10    3.33    0.32
  -9   1  10    3.63    0.27
   9   1 -10    3.28    0.27
   8  -1 -10    1.86    0.24
  -8  -1  10    1.60    0.22
  -8  -1  10    1.30    0.16
  -8   1  10    1.99    0.18
   7  -1 -10    7.17    0.56
  -7  -1  10    6.69    0.48
   7  -1 -10    7.96    0.48
  -7  -1  10    6.73    0.55
  -7  -1  10    7.36    0.52
  -7   1  10    6.62    0.48
  -7   1  10    7.67    0.52
  -7   1  10    7.18    0.55
   7   1 -10    6.93    0.55
  -6  -1  10    4.74    0.38
  -6  -1  10    4.29    0.32
   6   1 -10    4.70    0.39
  -5  -1  10    0.14    0.06
  -5  -1  10    0.14    0.09
  -5  -1  10    0.15    0.09
  -5  -1  10    0.16    0.09
   5  -1 -10    0.18    0.12
  -5   1  10    0.21    0.07
   5   1 -10    0.12    0.11
  -5   1  10    0.22    0.10
  -5   1  10    0.28    0.10
  -5   1  10    0.15    0.09
   4  -1 -10    2.71    0.26
  -4  -1  10    2.41    0.24
  -4  -1  10    1.88    0.23
  -4  -1  10    2.13    0.18
   4   1 -10    2.09    0.24
  -4   1  10    1.52    0.25
  -3  -1  10    0.75    0.11
  -3  -1  10    0.76    0.10
   3  -1 -10    0.82    0.14
  -3  -1  10    0.92    0.12
  -3  -1  10    0.87    0.12
  -3   1  10    0.70    0.12
   3   1 -10    0.84    0.13
  -3   1  10    0.87    0.12
  -3   1  10    0.78    0.12
  -3   1  10    0.86    0.10
  -2  -1  10    9.48    0.71
  -2  -1  10    8.87    0.62
  -2  -1  10    9.69    0.73
   2   1 -10    9.31    0.64
   2   1 -10   10.07    0.70
  -1  -1  10   13.37    0.95
  -1  -1  10   13.35    0.84
  -1  -1  10   13.06    0.81
   1  -1 -10   12.65    0.83
   1  -1 -10   11.19    0.90
  -1   1  10   11.43    0.91
   1   1 -10   12.71    0.84
  -1   1  10   11.78    0.94
   1   1 -10   13.34    0.90
  -1   1  10   11.71    0.84
  -1   1  10   12.34    0.81
   0  -1  10    3.08    0.30
   0  -1  10    3.15    0.25
   0   1 -10    3.22    0.26
   0   1 -10    3.08    0.27
  -1  -1 -10    1.68    0.20
  -1  -1 -10    1.61    0.21
   1  -1  10    2.08    0.25
   1  -1  10    1.83    0.20
   1   1  10    1.81    0.21
  -1   1 -10    2.11    0.20
   1   1  10    1.80    0.23
  -1   1 -10    2.05    0.20
   2  -1  10    0.17    0.10
  -2  -1 -10    0.51    0.11
  -2  -1 -10    0.40    0.09
   2  -1  10    0.34    0.12
   2   1  10    0.43    0.11
  -2   1 -10    0.33    0.09
  -2   1 -10    0.29    0.09
  -2   1 -10    0.28    0.09
  -3  -1 -10    3.12    0.30
  -3  -1 -10    3.12    0.30
  -3  -1 -10    3.03    0.29
   3  -1  10    4.19    0.34
  -3   1 -10    3.39    0.29
  -3   1 -10    3.65    0.30
   3   1  10    3.32    0.34
  -3   1 -10    3.76    0.30
   4  -1  10    2.15    0.30
  -4  -1 -10    3.11    0.25
  -4   1 -10    2.04    0.24
  -4   1 -10    2.56    0.25
   4   1  10    3.15    0.30
  -4   1 -10    2.10    0.24
  -5  -1 -10    0.29    0.11
  -5  -1 -10    0.20    0.11
   5  -1  10    0.36    0.15
  -5  -1 -10    0.34    0.12
   5   1  10    0.28    0.14
  -5   1 -10    0.32    0.11
  -5   1 -10    0.48    0.11
  -5   1 -10    0.41    0.12
  -6  -1 -10    1.99    0.23
  -6  -1 -10    1.72    0.21
   6  -1  10    1.24    0.21
  -6  -1 -10    2.16    0.22
  -6   1 -10    1.47    0.20
  -6   1 -10    1.60    0.22
   6   1  10    1.61    0.26
  -6   1 -10    1.61    0.22
  -7  -1 -10    0.70    0.15
   7  -1  10    1.01    0.18
  -7  -1 -10    0.57    0.13
  -7  -1 -10    0.65    0.15
  -7   1 -10    0.77    0.13
  -7   1 -10    0.89    0.15
  -7   1 -10    0.99    0.16
   7   1  10    0.57    0.18
  -8  -1 -10    1.28    0.19
   8  -1  10    1.09    0.20
  -8  -1 -10    1.67    0.22
   8   1  10    1.02    0.20
  -8   1 -10    1.23    0.18
  -8   1 -10    1.88    0.22
  -8   1 -10    1.69    0.21
   9  -1  10    0.15    0.15
  -9  -1 -10    0.43    0.13
   9   1  10   -0.12    0.15
  -9   1 -10   -0.08    0.11
  -9   1 -10    0.17    0.13
 -14  -2  10    0.10    0.09
 -14  -2  10    0.27    0.11
 -14   2  10   -0.02    0.10
 -14   2  10    0.22    0.09
 -13  -2  10   -0.04    0.07
 -13  -2  10   -0.07    0.10
  13  -2 -10   -0.06    0.11
 -13   2  10    0.08    0.10
 -13   2  10   -0.04    0.08
  12  -2 -10    0.14    0.12
 -12  -2  10    0.04    0.10
 -12  -2  10   -0.07    0.07
 -12   2  10    0.02    0.08
 -12   2  10    0.07    0.10
 -11  -2  10    0.07    0.08
  11  -2 -10    0.11    0.12
 -11  -2  10   -0.01    0.10
  11  -2 -10    0.09    0.09
 -11  -2  10    0.06    0.08
  11   2 -10   -0.17    0.11
 -11   2  10    0.03    0.10
 -11   2  10   -0.05    0.08
 -10  -2  10    0.11    0.10
  10  -2 -10    0.13    0.13
 -10  -2  10    0.08    0.07
 -10  -2  10    0.11    0.09
  10  -2 -10    0.13    0.09
 -10   2  10    0.12    0.10
  10   2 -10    0.05    0.08
 -10   2  10    0.06    0.07
  10   2 -10   -0.07    0.11
  -9  -2  10    0.12    0.10
  -9  -2  10    0.16    0.10
  -9  -2  10    0.11    0.07
   9  -2 -10    0.17    0.09
   9  -2 -10    0.12    0.13
  -9   2  10    0.12    0.08
  -9   2  10    0.12    0.10
   9   2 -10    0.07    0.11
   8  -2 -10    0.30    0.09
  -8  -2  10    0.19    0.07
  -8  -2  10    0.25    0.10
  -8  -2  10    0.23    0.10
   8  -2 -10    0.40    0.14
  -8   2  10    0.25    0.10
  -8   2  10    0.27    0.08
   8   2 -10    0.22    0.12
  -7  -2  10    0.10    0.11
  -7  -2  10    0.19    0.09
  -7  -2  10    0.15    0.06
   7  -2 -10    0.19    0.08
   7  -2 -10    0.22    0.13
  -7   2  10    0.08    0.10
   7   2 -10    0.32    0.12
  -7   2  10    0.20    0.08
  -6  -2  10   -0.11    0.08
   6  -2 -10    0.08    0.07
  -6  -2  10    0.06    0.06
  -6  -2  10    0.20    0.10
   6  -2 -10    0.22    0.13
   6   2 -10    0.06    0.10
  -6   2  10    0.19    0.07
   5  -2 -10   -0.10    0.11
  -5  -2  10    0.17    0.08
  -5  -2  10    0.00    0.09
  -5  -2  10   -0.02    0.05
  -5  -2  10    0.01    0.07
  -5   2  10    0.01    0.09
  -5   2  10    0.01    0.06
   5   2 -10    0.01    0.10
  -5   2  10    0.01    0.09
  -4  -2  10    2.86    0.22
   4  -2 -10    2.67    0.30
  -4  -2  10    3.54    0.29
  -4  -2  10    2.64    0.28
  -4  -2  10    3.28    0.26
   4   2 -10    2.66    0.23
   4   2 -10    2.85    0.28
  -4   2  10    2.95    0.24
  -4   2  10    3.08    0.27
  -4   2  10    3.34    0.29
   3  -2 -10    0.06    0.11
  -3  -2  10    0.10    0.09
  -3  -2  10    0.10    0.08
  -3  -2  10    0.03    0.05
  -3  -2  10    0.06    0.08
  -3   2  10    0.08    0.08
  -3   2  10    0.06    0.07
   3   2 -10    0.01    0.06
   3   2 -10    0.02    0.08
  -3   2  10   -0.04    0.09
   2  -2 -10    1.68    0.21
  -2  -2  10    1.22    0.14
  -2  -2  10    1.64    0.21
  -2   2  10    1.69    0.19
  -2   2  10    1.49    0.16
   2   2 -10    1.41    0.18
  -2   2  10    2.03    0.21
  -1  -2  10    8.87    0.58
   1  -2 -10    9.23    0.63
  -1  -2  10    8.38    0.65
  -1  -2  10    7.41    0.55
   1   2 -10    8.38    0.58
  -1   2  10    8.85    0.56
  -1   2  10    8.35    0.65
   1   2 -10    7.88    0.62
  -1   2  10    8.29    0.63
   0  -2 -10    0.08    0.09
   0  -2 -10    0.11    0.06
   0  -2  10   -0.02    0.06
   0  -2  10    0.10    0.09
   0  -2  10    0.02    0.06
   0   2 -10    0.07    0.07
   0   2 -10    0.08    0.08
   0   2  10    0.18    0.09
   0   2  10    0.02    0.09
   1  -2  10    2.16    0.26
  -1  -2 -10    2.70    0.22
   1  -2  10    1.82    0.20
  -1  -2 -10    2.13    0.23
  -1   2 -10    2.20    0.22
  -1   2 -10    2.05    0.20
   1   2  10    2.34    0.26
   1   2  10    2.32    0.23
  -1   2 -10    2.37    0.22
  -2  -2 -10    0.08    0.09
  -2  -2 -10    0.18    0.08
   2  -2  10    0.00    0.10
   2  -2  10    0.03    0.08
  -2   2 -10    0.07    0.08
   2   2  10    0.04    0.10
  -2   2 -10    0.07    0.08
  -2   2 -10    0.05    0.08
  -3  -2 -10    5.71    0.39
   3  -2  10    5.12    0.44
  -3  -2 -10    4.67    0.40
  -3   2 -10    4.77    0.40
   3   2  10    4.69    0.44
  -3   2 -10    5.02    0.38
  -3   2 -10    5.01    0.39
   4  -2  10    0.14    0.13
  -4  -2 -10    0.26    0.09
  -4  -2 -10    0.09    0.10
  -4  -2 -10    0.14    0.09
   4   2  10    0.12    0.13
  -4   2 -10   -0.01    0.09
  -4   2 -10    0.10    0.09
  -4   2 -10    0.11    0.09
  -5  -2 -10    1.41    0.20
  -5  -2 -10    0.92    0.15
  -5  -2 -10    1.37    0.17
   5  -2  10    1.07    0.18
  -5   2 -10    1.37    0.20
  -5   2 -10    1.11    0.18
   5   2  10    0.98    0.17
  -5   2 -10    1.14    0.16
  -6  -2 -10    0.18    0.10
  -6  -2 -10    0.20    0.10
  -6  -2 -10    0.19    0.12
   6  -2  10    0.04    0.15
  -6   2 -10    0.00    0.09
  -6   2 -10   -0.01    0.11
  -6   2 -10    0.00    0.10
   6   2  10    0.10    0.14
   7  -2  10    2.63    0.34
  -7  -2 -10    3.16    0.30
  -7  -2 -10    3.27    0.29
  -7  -2 -10    2.68    0.28
  -7   2 -10    2.89    0.29
   7   2  10    2.66    0.33
  -7   2 -10    3.03    0.28
  -7   2 -10    3.14    0.29
   8  -2  10    0.26    0.17
  -8  -2 -10    0.05    0.10
  -8  -2 -10   -0.03    0.13
  -8   2 -10   -0.01    0.11
   8   2  10    0.15    0.15
  -8   2 -10    0.20    0.13
   9  -2  10    0.79    0.18
  -9  -2 -10    0.96    0.15
  -9   2 -10    1.40    0.19
   9   2  10    0.46    0.17
  -9   2 -10    0.91    0.16
 -14  -3  10    0.29    0.09
 -14  -3  10    0.14    0.10
 -14   3  10   -0.18    0.10
 -14   3  10   -0.04    0.07
 -13  -3  10    0.33    0.12
  13  -3 -10    0.64    0.14
 -13  -3  10    0.50    0.10
 -13   3  10    0.67    0.12
 -13   3  10    0.42    0.10
  12  -3 -10    0.08    0.12
 -12  -3  10    0.01    0.10
 -12  -3  10   -0.14    0.08
 -12  -3  10   -0.03    0.08
 -12   3  10   -0.07    0.10
 -12   3  10   -0.09    0.07
 -11  -3  10    3.04    0.32
  11  -3 -10    3.64    0.28
 -11  -3  10    3.43    0.27
  11  -3 -10    3.25    0.33
 -11  -3  10    3.39    0.29
 -11   3  10    3.33    0.27
 -11   3  10    3.59    0.32
  10  -3 -10    0.09    0.09
 -10  -3  10   -0.07    0.10
 -10  -3  10    0.06    0.07
  10  -3 -10   -0.10    0.12
 -10  -3  10    0.06    0.09
 -10   3  10   -0.01    0.10
 -10   3  10    0.04    0.07
  -9  -3  10    6.25    0.53
   9  -3 -10    6.71    0.55
  -9  -3  10    7.10    0.49
   9  -3 -10    7.08    0.47
  -9  -3  10    6.73    0.46
  -9   3  10    6.97    0.47
  -9   3  10    6.72    0.53
  -8  -3  10    0.28    0.09
   8  -3 -10    0.23    0.09
  -8  -3  10    0.26    0.11
   8  -3 -10    0.31    0.14
  -8  -3  10    0.29    0.07
  -8   3  10    0.24    0.10
  -8   3  10    0.38    0.09
   8   3 -10    0.28    0.11
  -7  -3  10   11.40    0.80
  -7  -3  10   12.98    0.84
  -7  -3  10   12.30    0.91
   7  -3 -10   13.29    0.80
   7  -3 -10   12.96    0.92
  -7   3  10   11.68    0.81
   7   3 -10   12.25    0.90
  -7   3  10   12.12    0.91
   6  -3 -10    0.43    0.09
  -6  -3  10    0.41    0.11
   6  -3 -10    0.41    0.15
  -6  -3  10    0.42    0.07
  -6  -3  10    0.44    0.10
  -6   3  10    0.36    0.10
  -6   3  10    0.47    0.09
   6   3 -10    0.32    0.11
  -5  -3  10    0.03    0.09
   5  -3 -10    0.15    0.12
   5  -3 -10    0.11    0.07
  -5  -3  10    0.05    0.08
  -5   3  10    0.11    0.07
  -5   3  10    0.07    0.09
   5   3 -10   -0.07    0.09
  -5   3  10   -0.05    0.09
  -4  -3  10    0.01    0.07
  -4  -3  10    0.02    0.04
   4  -3 -10    0.03    0.11
  -4  -3  10   -0.04    0.09
   4  -3 -10    0.07    0.07
  -4  -3  10    0.08    0.08
  -4   3  10    0.01    0.08
   4   3 -10    0.19    0.09
  -4   3  10    0.11    0.09
   4   3 -10    0.03    0.06
  -4   3  10   -0.02    0.06
  -3  -3  10    0.22    0.08
  -3  -3  10    0.21    0.08
  -3  -3  10    0.21    0.10
   3  -3 -10    0.23    0.12
  -3  -3  10    0.25    0.05
  -3   3  10    0.36    0.09
  -3   3  10    0.29    0.09
   3   3 -10    0.22    0.09
  -3   3  10    0.31    0.08
   3   3 -10    0.16    0.07
   2  -3 -10    2.44    0.25
  -2  -3  10    2.54    0.24
  -2  -3  10    2.14    0.22
  -2  -3  10    2.61    0.26
   2   3 -10    2.34    0.22
  -2   3  10    2.17    0.25
   2   3 -10    1.95    0.21
  -2   3  10    2.54    0.23
  -2   3  10    2.51    0.20
  -1  -3  10   20.11    1.48
   1  -3 -10   20.61    1.42
  -1  -3  10   20.39    1.31
  -1   3  10   19.54    1.42
  -1   3  10   20.58    1.27
  -1   3  10   19.45    1.48
   1   3 -10   18.38    1.31
   1   3 -10   19.67    1.40
   0  -3  10    0.19    0.10
   0  -3 -10    0.24    0.07
   0  -3  10    0.27    0.07
   0  -3 -10    0.19    0.10
   0   3 -10    0.22    0.08
   0   3  10    0.24    0.09
   0   3 -10    0.21    0.07
   0   3  10    0.20    0.10
   0   3 -10    0.18    0.07
   0   3  10    0.14    0.10
   1  -3  10    4.63    0.41
  -1  -3 -10    4.23    0.35
  -1  -3 -10    4.38    0.37
  -1   3 -10    4.94    0.36
  -1   3 -10    4.50    0.35
   1   3  10    4.18    0.40
   1   3  10    4.99    0.36
  -1   3 -10    4.91    0.35
   2  -3  10    0.22    0.11
  -2  -3 -10    0.16    0.08
  -2  -3 -10    0.08    0.09
  -2   3 -10    0.09    0.08
   2   3  10    0.12    0.11
  -2   3 -10    0.08    0.08
  -2   3 -10    0.14    0.08
   2   3  10    0.06    0.11
   3  -3  10    6.68    0.57
  -3  -3 -10    7.32    0.51
  -3  -3 -10    6.22    0.53
  -3   3 -10    7.26    0.51
   3   3  10    7.10    0.58
  -3   3 -10    6.99    0.51
  -3   3 -10    7.11    0.53
  -4  -3 -10    0.91    0.14
   4  -3  10    0.70    0.15
  -4  -3 -10    0.69    0.13
  -4   3 -10    0.69    0.13
  -4   3 -10    0.86    0.13
   4   3  10    0.68    0.15
  -4   3 -10    0.71    0.13
   5  -3  10    1.12    0.19
  -5  -3 -10    1.11    0.18
   5   3  10    1.15    0.19
  -5   3 -10    1.41    0.18
  -5   3 -10    1.13    0.16
  -5   3 -10    1.14    0.17
  -6  -3 -10    0.08    0.10
   6  -3  10   -0.10    0.14
  -6  -3 -10   -0.09    0.09
  -6  -3 -10    0.22    0.12
   6   3  10   -0.16    0.14
  -6   3 -10   -0.12    0.10
  -6   3 -10   -0.01    0.10
  -6   3 -10   -0.03    0.08
  -7  -3 -10    1.51    0.21
   7  -3  10    0.96    0.19
  -7  -3 -10    1.10    0.18
  -7   3 -10    0.83    0.15
   7   3  10    0.63    0.19
  -7   3 -10    0.81    0.16
  -7   3 -10    1.20    0.16
   8  -3  10   -0.07    0.15
  -8  -3 -10    0.29    0.13
  -8   3 -10   -0.05    0.11
   8   3  10   -0.22    0.15
  -8   3 -10    0.17    0.12
  -9  -3 -10    0.27    0.13
   9  -3  10    0.06    0.16
  -9   3 -10    0.24    0.12
 -14   4  10    0.17    0.09
 -14   4  10    0.06    0.12
 -13  -4  10   -0.11    0.10
  13  -4 -10    0.15    0.12
 -13   4  10   -0.08    0.11
 -13   4  10    0.12    0.08
 -12  -4  10    0.24    0.09
  12  -4 -10    0.29    0.13
 -12  -4  10    0.27    0.11
 -12  -4  10    0.16    0.09
  12  -4 -10    0.27    0.10
 -12   4  10    0.19    0.09
 -12   4  10    0.25    0.11
  11  -4 -10    0.04    0.13
 -11  -4  10    0.01    0.10
 -11  -4  10    0.07    0.08
 -11  -4  10   -0.02    0.07
  11  -4 -10    0.14    0.09
 -11   4  10    0.09    0.08
 -11   4  10    0.11    0.10
  10  -4 -10    5.17    0.39
 -10  -4  10    5.06    0.45
 -10  -4  10    5.62    0.41
 -10  -4  10    5.94    0.39
  10  -4 -10    5.01    0.46
 -10   4  10    5.66    0.44
 -10   4  10    5.27    0.39
  -9  -4  10    0.18    0.07
  -9  -4  10    0.28    0.09
   9  -4 -10    0.18    0.09
   9  -4 -10    0.28    0.13
  -9  -4  10    0.07    0.10
  -9   4  10    0.23    0.10
  -9   4  10    0.25    0.08
   8  -4 -10    7.69    0.48
  -8  -4  10    7.33    0.51
   8  -4 -10    6.96    0.56
  -8  -4  10    6.96    0.55
  -8   4  10    6.33    0.54
  -8   4  10    6.70    0.48
   7  -4 -10    0.82    0.17
   7  -4 -10    0.81    0.11
  -7  -4  10    0.79    0.12
  -7  -4  10    0.85    0.14
  -7   4  10    0.75    0.11
  -7   4  10    0.73    0.12
  -6  -4  10    7.34    0.60
   6  -4 -10    8.12    0.53
   6  -4 -10    8.29    0.63
  -6  -4  10    7.86    0.56
  -6   4  10    7.50    0.53
  -6   4  10    8.26    0.60
   5  -4 -10    0.11    0.13
  -5  -4  10    0.10    0.08
  -5  -4  10    0.09    0.10
   5  -4 -10    0.13    0.07
  -5   4  10    0.09    0.07
  -5   4  10    0.05    0.09
  -5   4  10   -0.08    0.09
   5   4 -10    0.15    0.07
  -4  -4  10    1.91    0.19
  -4  -4  10    1.46    0.20
   4  -4 -10    1.42    0.23
  -4  -4  10    1.62    0.19
   4  -4 -10    1.73    0.16
  -4   4  10    1.46    0.22
  -4   4  10    1.23    0.16
   4   4 -10    1.50    0.17
  -4   4  10    1.54    0.19
  -3  -4  10    0.22    0.08
   3  -4 -10    0.18    0.12
  -3  -4  10    0.20    0.10
   3  -4 -10    0.26    0.07
  -3  -4  10    0.11    0.07
  -3   4  10    0.13    0.09
   3   4 -10    0.00    0.07
  -3   4  10    0.24    0.08
  -3   4  10    0.14    0.09
  -2  -4  10   22.50    1.67
   2  -4 -10   23.99    1.41
  -2  -4  10   22.07    1.62
   2  -4 -10   23.07    1.60
  -2  -4  10   24.27    1.48
  -2   4  10   22.86    1.43
  -2   4  10   22.76    1.68
   2   4 -10   21.01    1.48
  -2   4  10   21.50    1.60
   2   4 -10   20.62    1.58
  -1  -4  10    1.54    0.17
   1  -4 -10    1.66    0.21
   1  -4 -10    1.45    0.16
  -1  -4  10    1.19    0.16
  -1   4  10    1.29    0.22
   1   4 -10    1.91    0.18
  -1   4  10    1.80    0.17
   1   4 -10    1.48    0.18
  -1   4  10    1.58    0.19
   0  -4  10    1.16    0.15
   0  -4 -10    1.17    0.15
   0  -4 -10    1.12    0.14
   0  -4  10    1.14    0.15
   0   4 -10    1.29    0.15
   0   4  10    1.04    0.14
   0   4 -10    1.10    0.14
   0   4 -10    1.07    0.15
   0   4  10    1.15    0.16
   0   4  10    1.09    0.15
  -1  -4 -10    0.65    0.12
   1  -4  10    0.55    0.13
  -1  -4 -10    0.62    0.09
   1  -4  10    0.64    0.09
  -1  -4 -10    0.67    0.10
  -1   4 -10    0.67    0.10
  -1   4 -10    0.61    0.10
   1   4  10    0.73    0.13
   1   4  10    0.70    0.12
  -1   4 -10    0.70    0.10
  -2  -4 -10    0.25    0.10
  -2  -4 -10    0.31    0.09
   2  -4  10    0.34    0.11
  -2   4 -10    0.27    0.09
  -2   4 -10    0.28    0.09
   2   4  10    0.26    0.11
   2   4  10    0.28    0.11
  -2   4 -10    0.38    0.09
  -3  -4 -10    3.31    0.31
  -3  -4 -10    4.11    0.31
   3  -4  10    3.36    0.35
   3   4  10    3.35    0.35
  -3   4 -10    3.65    0.31
  -3   4 -10    3.63    0.30
  -3   4 -10    3.58    0.30
  -4  -4 -10    1.22    0.18
   4  -4  10    1.27    0.19
  -4   4 -10    1.57    0.19
  -4   4 -10    1.26    0.19
  -4   4 -10    1.38    0.18
   4   4  10    1.27    0.18
  -5  -4 -10    0.44    0.12
   5  -4  10    0.42    0.16
   5   4  10    0.55    0.15
  -5   4 -10    0.49    0.12
  -5   4 -10    0.52    0.12
  -5   4 -10    0.63    0.13
  -6  -4 -10    0.09    0.10
  -6  -4 -10   -0.02    0.11
   6  -4  10   -0.07    0.14
  -6   4 -10    0.27    0.10
  -6   4 -10    0.05    0.10
   6   4  10    0.23    0.15
  -6   4 -10    0.16    0.09
  -7  -4 -10    0.28    0.13
  -7  -4 -10    0.26    0.11
   7  -4  10    0.13    0.16
  -7   4 -10    0.01    0.11
   7   4  10    0.18    0.15
  -7   4 -10    0.16    0.11
  -8  -4 -10    0.47    0.15
   8  -4  10    0.56    0.18
  -8   4 -10    0.58    0.15
   8   4  10    0.61    0.17
  -8   4 -10    0.51    0.13
 -13  -5  10   -0.06    0.10
 -13   5  10    0.12    0.12
 -13   5  10    0.18    0.08
 -12  -5  10    0.22    0.11
  12  -5 -10    0.06    0.10
  12  -5 -10   -0.08    0.12
 -12  -5  10    0.26    0.09
 -12   5  10    0.07    0.08
 -12   5  10    0.39    0.11
  11  -5 -10   -0.06    0.12
  11  -5 -10    0.09    0.09
 -11  -5  10    0.04    0.08
 -11  -5  10    0.00    0.10
 -11   5  10   -0.04    0.07
 -11   5  10   -0.04    0.10
  10  -5 -10    0.10    0.12
 -10  -5  10    0.10    0.09
 -10  -5  10    0.11    0.10
  10  -5 -10    0.21    0.09
 -10   5  10    0.25    0.10
 -10   5  10    0.00    0.07
   9  -5 -10    0.24    0.10
  -9  -5  10    0.22    0.11
   9  -5 -10    0.22    0.14
  -9  -5  10    0.27    0.10
  -9   5  10    0.26    0.08
  -9   5  10    0.25    0.10
  -8  -5  10    0.25    0.09
  -8  -5  10    0.08    0.11
   8  -5 -10    0.13    0.09
   8  -5 -10    0.28    0.14
  -8   5  10    0.23    0.10
  -8   5  10    0.36    0.09
   7  -5 -10    0.44    0.16
  -7  -5  10    0.54    0.11
  -7  -5  10    0.53    0.12
   7  -5 -10    0.50    0.10
  -7   5  10    0.46    0.11
  -7   5  10    0.51    0.10
  -6  -5  10    0.31    0.11
   6  -5 -10    0.32    0.08
   6  -5 -10    0.24    0.14
  -6  -5  10    0.22    0.09
   6   5 -10    0.35    0.09
  -6   5  10    0.15    0.09
  -6   5  10    0.23    0.08
   5  -5 -10    0.05    0.07
  -5  -5  10   -0.02    0.08
   5  -5 -10   -0.04    0.13
  -5  -5  10    0.03    0.10
  -5   5  10   -0.09    0.08
   5   5 -10   -0.01    0.08
  -5   5  10    0.03    0.07
  -4  -5  10    2.16    0.23
   4  -5 -10    2.37    0.20
   4  -5 -10    2.04    0.26
  -4  -5  10    1.71    0.21
  -4   5  10    1.67    0.25
  -4   5  10    2.01    0.19
   4   5 -10    2.21    0.20
  -4   5  10    2.30    0.22
  -3  -5  10   -0.02    0.10
  -3  -5  10   -0.04    0.07
   3  -5 -10    0.06    0.12
   3  -5 -10    0.05    0.07
  -3   5  10    0.09    0.07
   3   5 -10   -0.06    0.07
  -3   5  10   -0.12    0.08
  -3   5  10    0.12    0.09
  -2  -5  10    5.46    0.44
  -2  -5  10    4.99    0.39
   2  -5 -10    5.22    0.37
   2  -5 -10    4.96    0.43
  -2   5  10    5.35    0.45
  -2   5  10    5.45    0.42
   2   5 -10    5.40    0.39
  -2   5  10    5.61    0.38
   1  -5 -10    0.99    0.15
  -1  -5  10    0.84    0.11
   1  -5 -10    0.88    0.11
  -1  -5  10    0.59    0.11
  -1   5  10    1.01    0.14
   1   5 -10    0.88    0.12
   1   5 -10    0.80    0.11
  -1   5  10    0.81    0.13
   0  -5 -10    0.94    0.11
   0  -5 -10    1.01    0.14
   0  -5  10    1.13    0.14
   0  -5  10    0.71    0.13
   0   5 -10    1.09    0.15
   0   5  10    0.97    0.12
   0   5 -10    0.89    0.14
   0   5  10    0.90    0.14
   1  -5  10    0.07    0.06
  -1  -5 -10   -0.02    0.07
   1  -5  10    0.01    0.10
  -1  -5 -10   -0.04    0.09
  -1   5 -10    0.02    0.07
   1   5  10    0.00    0.10
  -1   5 -10    0.06    0.07
   1   5  10   -0.03    0.09
   2  -5  10    0.56    0.12
  -2  -5 -10    0.56    0.12
   2   5  10    0.71    0.13
  -2   5 -10    0.60    0.11
  -2   5 -10    0.57    0.11
   2   5  10    0.51    0.13
   3  -5  10    1.15    0.18
  -3  -5 -10    1.20    0.19
  -3   5 -10    1.57    0.18
  -3   5 -10    1.34    0.18
   3   5  10    1.09    0.17
  -3   5 -10    1.43    0.17
  -4  -5 -10    0.59    0.13
   4  -5  10    0.62    0.15
   4   5  10    0.50    0.15
  -4   5 -10    0.71    0.12
  -4   5 -10    0.75    0.12
  -4   5 -10    0.65    0.12
  -5  -5 -10   -0.03    0.10
   5  -5  10   -0.13    0.13
  -5   5 -10   -0.10    0.09
  -5   5 -10   -0.01    0.09
   5   5  10   -0.06    0.14
  -5   5 -10    0.14    0.08
   6  -5  10    0.77    0.18
  -6  -5 -10    0.94    0.15
   6   5  10    0.57    0.18
  -6   5 -10    1.00    0.15
  -6   5 -10    0.99    0.15
   7  -5  10    0.14    0.15
  -7  -5 -10    0.21    0.10
   7   5  10   -0.11    0.15
  -7   5 -10    0.27    0.11
  -7   5 -10    0.08    0.11
   8  -5  10    1.62    0.28
  -8   5 -10    1.82    0.22
  -8   5 -10    2.16    0.23
   8   5  10    1.29    0.24
 -13  -6  10    0.01    0.10
 -13   6  10    0.25    0.08
  12  -6 -10    0.42    0.12
 -12  -6  10    0.66    0.13
 -12  -6  10    0.79    0.11
  12  -6 -10    0.35    0.15
 -12   6  10    0.62    0.11
 -12   6  10    0.60    0.14
  11  -6 -10   -0.13    0.11
  11  -6 -10    0.14    0.09
 -11  -6  10    0.07    0.09
 -11  -6  10    0.18    0.10
 -11   6  10    0.00    0.08
 -11   6  10    0.17    0.10
  10  -6 -10    1.42    0.24
 -10  -6  10    1.65    0.20
 -10  -6  10    1.85    0.22
  10  -6 -10    1.80    0.19
 -10   6  10    1.48    0.17
 -10   6  10    1.80    0.22
  -9  -6  10   -0.07    0.09
   9  -6 -10    0.06    0.13
  -9  -6  10   -0.03    0.11
   9  -6 -10    0.12    0.09
  -9   6  10    0.19    0.09
  -9   6  10    0.11    0.08
  -8  -6  10    0.89    0.13
   8  -6 -10    0.78    0.13
  -8  -6  10    0.79    0.14
   8  -6 -10    0.90    0.17
  -8   6  10    0.79    0.13
  -8   6  10    0.93    0.12
  -7  -6  10    0.21    0.10
   7  -6 -10    0.28    0.09
  -7  -6  10    0.21    0.12
   7  -6 -10    0.27    0.15
  -7   6  10    0.09    0.09
  -7   6  10    0.30    0.08
   7   6 -10    0.40    0.11
  -6  -6  10    2.25    0.23
  -6  -6  10    2.04    0.25
   6  -6 -10    2.52    0.21
   6  -6 -10    2.01    0.27
  -6   6  10    2.29    0.23
   6   6 -10    2.54    0.24
  -6   6  10    2.20    0.21
   5  -6 -10    0.07    0.13
   5  -6 -10    0.02    0.08
  -5  -6  10    0.07    0.08
  -5  -6  10    0.07    0.10
   5   6 -10   -0.05    0.09
  -5   6  10    0.02    0.07
   4  -6 -10    2.95    0.31
   4  -6 -10    3.37    0.25
  -4  -6  10    3.03    0.29
  -4  -6  10    3.35    0.27
  -4   6  10    2.92    0.25
   4   6 -10    3.04    0.27
  -4   6  10    2.79    0.32
   3  -6 -10   -0.04    0.07
  -3  -6  10   -0.01    0.10
   3  -6 -10    0.05    0.12
  -3  -6  10   -0.05    0.08
  -3   6  10   -0.04    0.07
  -3   6  10   -0.01    0.10
   3   6 -10   -0.09    0.08
   2  -6 -10    3.99    0.38
   2  -6 -10    4.50    0.33
  -2  -6  10    4.00    0.34
  -2  -6  10    4.96    0.39
   2   6 -10    4.53    0.35
  -2   6  10    4.61    0.40
  -2   6  10    4.61    0.33
   1  -6 -10    3.52    0.28
  -1  -6  10    3.43    0.30
   1  -6 -10    3.29    0.32
  -1  -6  10    4.06    0.36
  -1   6  10    3.82    0.35
   1   6 -10    3.42    0.29
  -1   6  10    3.89    0.29
   1   6 -10    3.96    0.30
   0  -6 -10    2.00    0.23
   0  -6 -10    2.13    0.20
   0  -6  10    2.29    0.21
   0   6  10    2.27    0.27
   0   6 -10    2.23    0.22
   0   6 -10    2.25    0.21
   0   6  10    2.30    0.21
  -1  -6 -10    0.29    0.11
   1  -6  10    0.46    0.09
  -1   6 -10    0.41    0.10
  -1   6 -10    0.35    0.09
   1   6  10    0.36    0.12
   1   6  10    0.39    0.11
   2  -6  10    0.91    0.14
  -2  -6 -10    1.01    0.15
  -2   6 -10    0.99    0.15
   2   6  10    0.87    0.15
   2   6  10    1.08    0.15
  -2   6 -10    0.85    0.12
  -3  -6 -10    0.40    0.11
   3  -6  10    0.19    0.13
   3   6  10    0.28    0.12
  -3   6 -10    0.39    0.10
  -3   6 -10    0.42    0.11
   3   6  10    0.40    0.13
   4  -6  10    0.34    0.13
  -4  -6 -10    0.29    0.12
   4   6  10    0.46    0.14
  -4   6 -10    0.52    0.11
  -4   6 -10    0.30    0.10
   5  -6  10    1.08    0.18
  -5  -6 -10    1.28    0.18
  -5   6 -10    1.45    0.20
   5   6  10    0.98    0.19
  -5   6 -10    1.23    0.18
  -6  -6 -10    1.11    0.17
   6  -6  10    0.88    0.18
   6   6  10    0.83    0.20
  -6   6 -10    1.06    0.16
  -6   6 -10    1.07    0.16
  -7  -6 -10    0.62    0.12
   7  -6  10    0.41    0.16
   7   6  10    0.17    0.17
  -7   6 -10    0.66    0.13
  -7   6 -10    0.53    0.13
   8  -6  10    0.42    0.16
  -8   6 -10    0.57    0.13
   8   6  10   -0.24    0.16
  -8   6 -10    0.23    0.13
 -13   7  10    0.19    0.07
  12  -7 -10    0.04    0.09
 -12   7  10    0.05    0.07
 -11  -7  10    3.54    0.29
 -11  -7  10    3.70    0.33
  11  -7 -10    3.62    0.29
  11  -7 -10    3.33    0.35
 -11   7  10    3.42    0.28
  10  -7 -10    0.25    0.14
 -10  -7  10    0.30    0.11
 -10  -7  10    0.43    0.11
  10  -7 -10    0.27    0.10
 -10   7  10    0.29    0.09
   9  -7 -10    5.03    0.44
   9  -7 -10    5.47    0.38
  -9  -7  10    5.00    0.43
  -9  -7  10    4.98    0.39
  -9   7  10    4.93    0.37
  -8  -7  10    0.17    0.10
   8  -7 -10    0.12    0.15
   8  -7 -10   -0.11    0.09
  -8  -7  10    0.04    0.10
  -8   7  10    0.08    0.07
  -7  -7  10    1.59    0.21
   7  -7 -10    1.66    0.19
  -7  -7  10    1.78    0.22
   7  -7 -10    1.68    0.25
   7   7 -10    1.98    0.22
  -7   7  10    1.78    0.18
  -6  -7  10    0.03    0.10
   6  -7 -10   -0.03    0.14
   6  -7 -10   -0.09    0.08
  -6  -7  10   -0.12    0.09
  -6   7  10    0.03    0.07
   6   7 -10    0.06    0.10
   5  -7 -10    1.76    0.26
  -5  -7  10    2.28    0.23
  -5  -7  10    2.06    0.24
   5  -7 -10    2.02    0.21
  -5   7  10    2.14    0.20
   5   7 -10    2.33    0.24
  -4  -7  10    0.01    0.09
   4  -7 -10   -0.03    0.08
   4  -7 -10    0.13    0.14
  -4  -7  10    0.25    0.11
  -4   7  10    0.15    0.08
   4   7 -10    0.18    0.10
   3  -7 -10    3.09    0.32
  -3  -7  10    3.54    0.32
   3  -7 -10    3.60    0.28
  -3  -7  10    3.79    0.30
  -3   7  10    3.12    0.35
   3   7 -10    3.45    0.30
  -3   7  10    3.59    0.27
   2  -7 -10    0.73    0.15
  -2  -7  10    0.74    0.14
  -2  -7  10    0.72    0.12
   2  -7 -10    0.60    0.12
  -2   7  10    0.74    0.11
   2   7 -10    0.65    0.12
  -2   7  10    0.61    0.14
   1  -7 -10   14.82    0.85
   1  -7 -10   11.19    0.96
  -1  -7  10   13.74    0.89
  -1  -7  10   12.82    0.98
  -1   7  10   13.37    0.86
  -1   7  10   12.93    1.01
   1   7 -10   13.34    0.90
   0  -7 -10    0.29    0.11
   0  -7  10    0.25    0.09
   0  -7 -10    0.25    0.09
   0   7 -10    0.27    0.10
   0   7 -10    0.25    0.09
   0   7  10    0.20    0.11
   0   7  10    0.35    0.10
   1  -7  10    2.65    0.23
  -1  -7 -10    2.09    0.24
   1   7  10    2.42    0.28
   1   7  10    2.41    0.23
  -1   7 -10    2.66    0.24
  -1   7 -10    2.35    0.23
  -2  -7 -10   -0.07    0.10
   2   7  10   -0.05    0.11
   2   7  10   -0.02    0.10
  -2   7 -10    0.03    0.08
  -2   7 -10    0.09    0.09
  -3  -7 -10    3.38    0.30
  -3   7 -10    3.54    0.29
   3   7  10    3.21    0.31
   3   7  10    3.25    0.33
  -3   7 -10    3.19    0.29
  -4  -7 -10   -0.07    0.10
  -4   7 -10    0.07    0.09
   4   7  10    0.02    0.13
   4   7  10   -0.17    0.11
  -4   7 -10    0.08    0.10
  -5  -7 -10    1.91    0.21
  -5   7 -10    1.98    0.22
   5   7  10    1.57    0.26
  -5   7 -10    1.89    0.23
   6  -7  10    0.36    0.14
  -6  -7 -10    0.52    0.12
  -6   7 -10    0.46    0.12
   6   7  10    0.10    0.14
  -6   7 -10    0.32    0.12
   7  -7  10    0.59    0.16
  -7   7 -10    0.50    0.12
   7   7  10    0.30    0.15
  -7   7 -10    0.59    0.14
  12  -8 -10    0.09    0.10
 -12   8  10    0.01    0.07
  11  -8 -10   -0.04    0.15
 -11  -8  10    0.17    0.09
  11  -8 -10    0.08    0.10
 -11   8  10    0.00    0.07
 -10  -8  10    3.12    0.27
  10  -8 -10    2.75    0.31
  10  -8 -10    3.06    0.26
 -10   8  10    2.75    0.24
  -9  -8  10   -0.04    0.10
   9  -8 -10   -0.08    0.15
   9  -8 -10    0.08    0.10
  -9  -8  10    0.22    0.10
  -9   8  10    0.10    0.08
   8  -8 -10    1.39    0.22
  -8  -8  10    1.79    0.22
   8  -8 -10    1.48    0.19
  -8  -8  10    2.03    0.22
  -8   8  10    1.45    0.18
   8   8 -10    1.77    0.23
   7  -8 -10    0.08    0.09
  -7  -8  10   -0.18    0.10
   7  -8 -10   -0.01    0.14
   7   8 -10    0.06    0.11
  -7   8  10    0.00    0.07
  -6  -8  10    0.43    0.11
   6  -8 -10    0.40    0.10
   6  -8 -10    0.12    0.15
  -6  -8  10    0.25    0.11
   6   8 -10    0.40    0.12
  -6   8  10    0.25    0.09
  -5  -8  10    0.17    0.11
  -5  -8  10    0.13    0.09
   5  -8 -10    0.14    0.14
   5  -8 -10    0.09    0.09
  -5   8  10    0.00    0.08
   5   8 -10   -0.02    0.11
  -4  -8  10    0.97    0.15
   4  -8 -10    1.11    0.14
  -4  -8  10    1.18    0.18
   4  -8 -10    0.92    0.17
  -4   8  10    1.02    0.15
   4   8 -10    1.06    0.16
  -3  -8  10    0.74    0.13
  -3  -8  10    0.59    0.12
   3  -8 -10    0.67    0.12
   3  -8 -10    0.48    0.15
  -3   8  10    0.56    0.13
  -3   8  10    0.71    0.11
   3   8 -10    0.44    0.13
  -2  -8  10   11.71    0.77
   2  -8 -10   12.22    0.74
  -2  -8  10   11.48    0.84
   2  -8 -10    9.47    0.82
   2   8 -10   11.22    0.78
  -2   8  10   11.54    0.88
  -2   8  10   10.68    0.74
   1  -8 -10    1.86    0.24
  -1  -8  10    2.56    0.27
  -1  -8  10    2.56    0.24
   1  -8 -10    1.44    0.21
  -1   8  10    2.10    0.20
  -1   8  10    1.97    0.28
   0  -8 -10    0.56    0.13
   0  -8  10    0.54    0.11
   0   8 -10    0.44    0.11
   0   8 -10    0.63    0.12
   0   8  10    0.60    0.11
   0   8  10    0.62    0.13
   1  -8  10    0.43    0.11
  -1  -8 -10    0.38    0.12
  -1   8 -10    0.51    0.11
  -1   8 -10    0.43    0.11
   1   8  10    0.38    0.12
   1   8  10    0.36    0.11
  -2  -8 -10    0.13    0.11
  -2   8 -10    0.22    0.10
  -2   8 -10    0.25    0.10
   2   8  10    0.24    0.12
   2   8  10    0.15    0.11
  -3  -8 -10    2.67    0.26
   3   8  10    2.36    0.26
  -3   8 -10    2.48    0.24
   3   8  10    2.71    0.30
  -3   8 -10    2.58    0.25
  -4  -8 -10    0.26    0.11
   4   8  10    0.02    0.13
   4   8  10    0.21    0.14
  -4   8 -10    0.35    0.12
  -4   8 -10    0.38    0.11
  -5  -8 -10    0.81    0.14
   5   8  10    0.59    0.16
   5   8  10    0.75    0.17
  -5   8 -10    1.03    0.16
  -6  -8 -10    0.08    0.12
  -6   8 -10    0.08    0.11
  -6   8 -10    0.03    0.10
  -7   8 -10    0.41    0.13
  -7   8 -10    0.56    0.14
 -11  -9  10    0.01    0.09
  11  -9 -10    0.17    0.10
 -11   9  10   -0.10    0.07
 -10  -9  10    0.25    0.09
  10  -9 -10   -0.01    0.09
  10  -9 -10   -0.35    0.15
 -10   9  10    0.02    0.08
   9  -9 -10    1.04    0.16
   9  -9 -10    1.00    0.22
  -9  -9  10    1.54    0.20
  -9   9  10    1.11    0.16
   8  -9 -10    0.01    0.10
   8  -9 -10    0.06    0.15
  -8  -9  10    0.06    0.10
   8   9 -10   -0.08    0.11
  -8   9  10    0.06    0.08
   7  -9 -10    0.87    0.14
  -7  -9  10    0.77    0.14
   7  -9 -10    0.60    0.19
   7   9 -10    0.86    0.16
  -7   9  10    0.70    0.11
   6  -9 -10    0.31    0.16
   6  -9 -10    0.10    0.10
  -6  -9  10    0.01    0.10
  -6   9  10    0.17    0.09
   6   9 -10    0.29    0.12
   5  -9 -10    0.91    0.19
   5  -9 -10    1.09    0.15
  -5  -9  10    1.01    0.15
  -5  -9  10    1.03    0.15
  -5   9  10    1.15    0.15
   5   9 -10    1.10    0.17
   4  -9 -10    0.49    0.12
   4  -9 -10    0.26    0.16
  -4  -9  10    0.45    0.11
  -4  -9  10    0.28    0.12
   4   9 -10    0.33    0.13
  -4   9  10    0.57    0.10
  -3  -9  10    2.59    0.26
   3  -9 -10    2.30    0.27
   3  -9 -10    2.93    0.24
  -3  -9  10    2.41    0.25
  -3   9  10    2.40    0.22
   3   9 -10    2.38    0.27
  -2  -9  10    2.22    0.25
   2  -9 -10    2.22    0.26
   2  -9 -10    2.78    0.24
  -2  -9  10    2.09    0.26
  -2   9  10    2.42    0.22
  -2   9  10    3.17    0.31
   2   9 -10    2.53    0.26
   1  -9 -10    0.21    0.09
  -1  -9  10    0.14    0.11
   1  -9 -10    0.11    0.12
  -1  -9  10   -0.01    0.13
  -1   9  10    0.14    0.09
  -1   9  10    0.25    0.12
   1   9 -10    0.21    0.10
   0  -9  10    1.26    0.18
   0  -9  10    1.12    0.16
   0  -9 -10    1.44    0.19
   0   9  10    1.35    0.18
   0   9 -10    1.38    0.19
   0   9 -10    1.18    0.18
   0   9  10    1.36    0.19
   1  -9  10    0.12    0.10
  -1  -9 -10    0.35    0.11
   1   9  10    0.00    0.10
   1   9  10    0.19    0.12
  -1   9 -10    0.15    0.10
  -1   9 -10    0.14    0.10
  -2  -9 -10    0.54    0.14
  -2   9 -10    0.66    0.12
   2   9  10    0.65    0.13
   2   9  10    0.56    0.14
  -2   9 -10    0.72    0.13
  -3  -9 -10    1.02    0.16
   3   9  10    0.93    0.17
   3   9  10    1.04    0.16
  -3   9 -10    0.89    0.15
  -3   9 -10    1.20    0.17
  -4  -9 -10    0.56    0.12
  -4   9 -10    0.29    0.12
  -4   9 -10    0.36    0.12
   4   9  10    0.22    0.14
  -5  -9 -10   -0.02    0.11
  -5   9 -10    0.29    0.11
   5   9  10   -0.19    0.13
  -5   9 -10    0.13    0.10
  -6   9 -10    0.37    0.12
   6   9  10   -0.02    0.15
  -6   9 -10    0.16    0.12
  11 -10 -10    0.23    0.09
 -11  10  10   -0.11    0.07
  10 -10 -10    1.84    0.20
 -10  10  10    1.58    0.17
   9 -10 -10    0.14    0.15
  -9 -10  10   -0.08    0.10
   9 -10 -10   -0.08    0.10
   9  10 -10   -0.20    0.11
  -9  10  10   -0.04    0.08
   8 -10 -10    3.09    0.36
   8 -10 -10    3.65    0.31
  -8 -10  10    3.94    0.33
  -8  10  10    3.61    0.29
   8  10 -10    4.19    0.34
   7 -10 -10    0.05    0.11
  -7 -10  10   -0.03    0.11
   7 -10 -10   -0.04    0.15
  -7  10  10    0.06    0.09
   7  10 -10    0.00    0.11
   6 -10 -10    3.00    0.34
   6 -10 -10    3.57    0.30
  -6 -10  10    3.14    0.31
  -6  10  10    3.47    0.28
   6  10 -10    4.02    0.33
   5 -10 -10    0.21    0.16
  -5 -10  10    0.06    0.11
   5 -10 -10    0.34    0.11
  -5  10  10    0.35    0.09
   5  10 -10    0.45    0.14
   4 -10 -10    0.59    0.17
  -4 -10  10    0.65    0.14
   4 -10 -10    0.96    0.14
   4  10 -10    0.92    0.16
  -4  10  10    0.79    0.12
   3 -10 -10    0.38    0.14
  -3 -10  10   -0.08    0.10
   3 -10 -10    0.19    0.11
  -3  10  10    0.20    0.09
   3  10 -10   -0.14    0.11
  -2 -10  10    4.53    0.38
   2 -10 -10    4.89    0.36
   2 -10 -10    4.48    0.39
   2  10 -10    4.88    0.39
  -2  10  10    5.10    0.36
  -1 -10  10    0.16    0.11
   1 -10 -10    0.35    0.11
   1 -10 -10    0.41    0.13
  -1  10  10    0.39    0.11
   1  10 -10    0.22    0.11
  -1  10  10    0.40    0.13
   0 -10  10    3.19    0.34
   0 -10 -10    3.49    0.32
   0 -10  10    3.75    0.31
   0  10 -10    3.56    0.32
   0  10 -10    3.86    0.32
   0  10  10    3.59    0.30
   0  10  10    4.09    0.39
  -1 -10 -10    0.01    0.11
   1 -10  10    0.07    0.10
   1 -10  10   -0.13    0.14
  -1  10 -10   -0.02    0.09
   1  10  10   -0.02    0.10
  -1  10 -10    0.01    0.10
  -2 -10 -10    1.63    0.20
   2  10  10    1.52    0.20
  -2  10 -10    1.44    0.20
  -2  10 -10    1.46    0.21
  -3 -10 -10   -0.01    0.12
  -3  10 -10   -0.02    0.10
  -3  10 -10    0.16    0.11
   3  10  10   -0.02    0.11
  -4  10 -10    0.81    0.14
  -4  10 -10    0.82    0.15
   4  10  10    0.44    0.15
  -5  10 -10    0.36    0.13
  -5  10 -10    0.55    0.12
   5  10  10    0.29    0.14
 -10  11  10    0.07    0.07
   9 -11 -10    3.42    0.29
  -9  11  10    3.01    0.27
   9  11 -10    3.94    0.32
   8 -11 -10    0.29    0.12
   8 -11 -10    0.06    0.17
  -8 -11  10    0.53    0.12
   8  11 -10    0.10    0.12
  -8  11  10    0.32    0.09
   7 -11 -10    0.23    0.11
  -7 -11  10    0.08    0.12
   7 -11 -10   -0.22    0.17
  -7  11  10    0.19    0.08
   7  11 -10    0.36    0.12
   6 -11 -10   -0.10    0.16
   6 -11 -10    0.12    0.11
  -6 -11  10    0.06    0.11
   6  11 -10    0.36    0.12
  -6  11  10    0.17    0.09
  -5 -11  10    0.04    0.11
   5 -11 -10    0.13    0.10
   5 -11 -10   -0.02    0.15
   5  11 -10   -0.03    0.11
  -5  11  10   -0.02    0.08
   4 -11 -10    0.07    0.14
   4 -11 -10    0.02    0.10
  -4 -11  10   -0.08    0.10
   4  11 -10    0.03    0.12
  -4  11  10   -0.15    0.08
   3 -11 -10    0.98    0.17
  -3 -11  10    1.13    0.16
   3 -11 -10    1.23    0.15
   3  11 -10    0.99    0.16
  -3  11  10    0.88    0.13
   2 -11 -10    0.08    0.12
   2 -11 -10    0.23    0.10
  -2 -11  10    0.21    0.11
   2 -11 -10    0.03    0.09
   2  11 -10    0.08    0.11
  -2  11  10    0.06    0.09
   1 -11 -10    2.21    0.22
   1 -11 -10    2.29    0.23
  -1 -11  10    2.04    0.23
  -1  11  10    1.65    0.21
   1  11 -10    1.66    0.23
   0 -11  10    0.81    0.13
   0  11 -10    0.53    0.13
   0  11 -10    0.51    0.13
   0  11  10    0.41    0.11
   1 -11  10    0.38    0.11
   1  11  10    0.17    0.11
  -1  11 -10    0.37    0.12
  -1  11 -10    0.16    0.11
  -2  11 -10    0.54    0.12
   2  11  10    0.41    0.12
  -2  11 -10    0.57    0.13
  -3  11 -10    1.80    0.23
  -3  11 -10    2.00    0.23
   3  11  10    2.16    0.23
   4  11  10    0.53    0.14
  -4  11 -10    0.71    0.14
  -4  11 -10    0.73    0.15
   8 -12 -10    0.16    0.10
  -8 -12  10    0.41    0.12
   8 -12 -10    0.10    0.12
   8  12 -10    0.17    0.11
   7 -12 -10    0.15    0.10
  -7 -12  10   -0.17    0.10
   7 -12 -10    0.07    0.12
   7  12 -10    0.04    0.11
  -7  12  10   -0.03    0.08
  -6 -12  10    0.07    0.11
   6 -12 -10    0.09    0.12
   6  12 -10   -0.07    0.11
  -6  12  10   -0.03    0.08
   5 -12 -10    0.17    0.12
  -5 -12  10    0.11    0.11
   5 -12 -10    0.33    0.11
  -5  12  10    0.11    0.09
   5  12 -10    0.06    0.12
   4 -12 -10    0.22    0.10
  -4 -12  10   -0.11    0.11
   4 -12 -10    0.13    0.11
  -4  12  10    0.20    0.09
   4  12 -10    0.33    0.12
  -3 -12  10    0.38    0.12
   3 -12 -10    0.66    0.13
   3 -12 -10    0.60    0.12
   3  12 -10    0.44    0.14
  -2 -12  10    0.28    0.11
   2 -12 -10    0.48    0.11
   2  12 -10    0.24    0.12
  -2  12  10    0.34    0.10
  -1 -12  10    0.98    0.14
   1 -12 -10    0.65    0.13
  -1  12  10    0.47    0.12
   1  12 -10    0.85    0.15
   0 -12  10    0.05    0.10
   0  12  10   -0.04    0.10
   0  12 -10   -0.17    0.10
   0  12 -10   -0.14    0.10
   1  12  10    0.57    0.13
  -1  12 -10    0.75    0.14
  -1  12 -10    0.42    0.13
  -2  12 -10    0.24    0.11
   2  12  10    0.13    0.12
  -2  12 -10    0.56    0.12
  -3  12 -10    1.27    0.17
  -3  12 -10    1.42    0.20
   3  12  10    1.06    0.16
   6 -13 -10    0.20    0.11
  -6 -13  10    0.00    0.10
   6 -13 -10    0.54    0.13
   6  13 -10   -0.13    0.11
   5 -13 -10    2.55    0.26
   5 -13 -10    2.75    0.28
   5  13 -10    2.71    0.28
   4 -13 -10    0.25    0.11
  -4 -13  10   -0.07    0.10
   4 -13 -10    0.07    0.11
   4  13 -10   -0.05    0.11
   3 -13 -10    0.80    0.15
  -3 -13  10    1.09    0.16
   3  13 -10    1.01    0.16
  -2 -13  10    0.44    0.12
   2 -13 -10    0.24    0.11
  -2  13  10    0.38    0.11
   2  13 -10    0.30    0.12
  -1 -13  10    0.96    0.15
  -1  13  10    1.14    0.16
   1  13 -10    0.69    0.14
   0 -13  10    0.27    0.11
   0  13 -10    0.01    0.11
   0  13 -10    0.04    0.11
  -1  13 -10    0.59    0.13
  -1  13 -10    0.77    0.14
   1  13  10    0.54    0.13
 -14   0  11    0.10    0.08
 -14   0  11    0.05    0.10
  13   0 -11   -0.27    0.12
 -13   0  11    0.01    0.08
 -13   0  11    0.00    0.10
 -12   0  11    0.01    0.08
 -12   0  11   -0.13    0.09
  12   0 -11   -0.11    0.12
 -11   0  11    0.10    0.11
 -11   0  11    0.02    0.08
  11   0 -11    0.16    0.09
  11   0 -11    0.12    0.13
 -10   0  11   -0.03    0.07
 -10   0  11    0.06    0.10
  10   0 -11   -0.03    0.09
  10   0 -11   -0.14    0.12
  -9   0  11    0.62    0.10
   9   0 -11    0.58    0.11
   9   0 -11    0.63    0.15
  -9   0  11    0.58    0.12
  -9   0  11    0.50    0.12
   8   0 -11    0.03    0.13
   8   0 -11   -0.04    0.08
  -8   0  11    0.00    0.09
  -8   0  11    0.01    0.07
  -8   0  11   -0.01    0.10
  -7   0  11    1.38    0.15
   7   0 -11    0.98    0.18
  -7   0  11    0.88    0.15
  -6   0  11    0.05    0.07
  -6   0  11   -0.08    0.10
  -6   0  11    0.09    0.10
   6   0 -11    0.00    0.12
  -5   0  11    5.31    0.50
  -5   0  11    7.30    0.53
  -5   0  11    6.92    0.51
  -5   0  11    6.39    0.44
   5   0 -11    6.13    0.52
  -4   0  11   -0.01    0.10
  -4   0  11   -0.02    0.07
  -4   0  11    0.07    0.09
  -4   0  11    0.00    0.09
   4   0 -11    0.02    0.11
  -3   0  11    9.54    0.63
  -3   0  11    8.58    0.68
   3   0 -11    9.44    0.71
  -3   0  11    9.89    0.74
  -3   0  11   10.02    0.71
   2   0 -11   -0.11    0.10
  -2   0  11   -0.10    0.07
  -2   0  11   -0.09    0.09
  -2   0  11   -0.06    0.08
  -2   0  11   -0.07    0.10
  -1   0  11    1.96    0.25
   1   0 -11    2.30    0.20
  -1   0  11    2.08    0.22
  -1   0  11    2.07    0.24
   1   0 -11    2.13    0.23
  -1   0  11    2.22    0.20
   0   0 -11   -0.03    0.09
   0   0  11    0.09    0.09
   0   0 -11    0.01    0.07
   0   0  11    0.05    0.06
   0   0  11    0.00    0.08
   1   0  11    1.48    0.19
   1   0  11    1.68    0.24
  -1   0 -11    1.35    0.19
  -1   0 -11    1.78    0.19
  -2   0 -11    0.03    0.09
   2   0  11    0.10    0.11
   2   0  11    0.00    0.10
  -2   0 -11    0.05    0.09
   3   0  11   10.52    0.80
  -3   0 -11   10.53    0.74
   3   0  11    8.86    0.68
   4   0  11    0.21    0.14
  -4   0 -11    0.28    0.11
  -5   0 -11    1.66    0.22
  -5   0 -11    2.01    0.23
  -5   0 -11    2.00    0.23
   6   0  11   -0.06    0.14
  -6   0 -11   -0.02    0.09
  -6   0 -11    0.13    0.10
  -6   0 -11    0.06    0.12
  -7   0 -11    3.66    0.32
  -7   0 -11    3.23    0.31
   7   0  11    2.94    0.36
  -7   0 -11    3.96    0.32
  -8   0 -11    0.22    0.13
  -8   0 -11    0.08    0.11
   8   0  11    0.17    0.15
 -14  -1  11    0.01    0.08
 -14  -1  11    0.09    0.10
 -14   1  11    0.13    0.10
 -14   1  11    0.05    0.08
 -13  -1  11    0.55    0.12
 -13  -1  11    0.44    0.10
  13  -1 -11    0.06    0.14
 -13   1  11    0.45    0.10
  13   1 -11    0.39    0.15
 -13   1  11    0.32    0.12
 -12  -1  11    0.07    0.08
  12  -1 -11   -0.09    0.13
  12   1 -11    0.00    0.12
 -12   1  11   -0.06    0.07
 -12   1  11    0.06    0.11
 -11  -1  11    2.29    0.20
  11  -1 -11    1.88    0.25
 -11  -1  11    1.87    0.24
  11  -1 -11    2.29    0.21
 -11   1  11    1.90    0.24
  11   1 -11    1.87    0.25
 -11   1  11    2.14    0.20
  10  -1 -11   -0.06    0.09
 -10  -1  11   -0.01    0.09
 -10  -1  11    0.05    0.07
  10  -1 -11   -0.04    0.14
 -10  -1  11    0.08    0.10
 -10   1  11   -0.01    0.10
  10   1 -11   -0.01    0.13
  10   1 -11   -0.06    0.09
 -10   1  11    0.10    0.08
  -9  -1  11    4.48    0.33
  -9  -1  11    4.02    0.39
   9  -1 -11    4.43    0.42
  -9  -1  11    4.87    0.37
   9  -1 -11    4.76    0.35
   9   1 -11    4.49    0.34
  -9   1  11    4.97    0.40
  -9   1  11    4.76    0.34
   9   1 -11    4.81    0.41
  -8  -1  11    0.09    0.11
  -8  -1  11    0.11    0.09
   8  -1 -11    0.03    0.08
  -8  -1  11    0.15    0.07
   8  -1 -11    0.14    0.14
  -8   1  11    0.03    0.11
   8   1 -11   -0.07    0.13
  -8   1  11   -0.01    0.07
  -7  -1  11   12.99    0.98
  -7  -1  11   15.41    0.92
  -7  -1  11   11.65    0.86
   7  -1 -11   13.05    0.99
   7   1 -11   12.55    0.98
  -7   1  11   13.66    0.87
  -7   1  11   12.98    0.98
  -7   1  11   14.43    0.91
  -6  -1  11    1.04    0.14
  -6  -1  11    1.32    0.21
   6  -1 -11    1.07    0.18
  -6  -1  11    1.25    0.14
  -6   1  11    1.01    0.15
  -6   1  11    1.09    0.15
  -6   1  11    0.99    0.15
   6   1 -11    0.99    0.17
   5  -1 -11   19.97    1.50
  -5  -1  11   19.72    1.50
  -5  -1  11   23.71    1.40
  -5  -1  11   21.20    1.33
  -5  -1  11   21.14    1.56
   5   1 -11   20.90    1.49
  -5   1  11   19.87    1.57
  -5   1  11   20.39    1.50
  -5   1  11   21.17    1.34
  -4  -1  11    0.32    0.10
  -4  -1  11    0.26    0.11
  -4  -1  11    0.30    0.08
   4  -1 -11    0.32    0.13
  -4  -1  11    0.27    0.10
  -4   1  11    0.32    0.11
  -4   1  11    0.34    0.10
  -4   1  11    0.43    0.10
   4   1 -11    0.31    0.12
  -4   1  11    0.30    0.09
   3  -1 -11   15.43    1.05
  -3  -1  11   14.13    1.09
  -3  -1  11   13.50    1.05
  -3  -1  11   14.29    0.98
  -3  -1  11   14.30    0.93
   3   1 -11   14.19    1.04
  -3   1  11   15.83    0.98
  -3   1  11   12.40    1.04
  -3   1  11   15.48    0.93
  -3   1  11   14.50    1.09
   2  -1 -11    0.18    0.11
  -2  -1  11    0.10    0.11
  -2  -1  11    0.29    0.09
  -2  -1  11    0.09    0.10
  -2  -1  11    0.16    0.07
   2   1 -11    0.31    0.07
  -2   1  11    0.23    0.08
   2   1 -11    0.18    0.10
  -2   1  11    0.09    0.10
  -2   1  11    0.09    0.09
  -2   1  11    0.22    0.09
  -1  -1  11    2.93    0.30
   1  -1 -11    3.02    0.27
  -1  -1  11    2.63    0.23
  -1  -1  11    2.83    0.29
  -1  -1  11    2.71    0.25
  -1   1  11    2.93    0.29
  -1   1  11    2.81    0.24
   1   1 -11    2.92    0.26
   1   1 -11    3.25    0.25
  -1   1  11    2.60    0.28
   0  -1  11    0.31    0.08
   0  -1 -11    0.18    0.08
   0  -1 -11    0.21    0.10
   0  -1  11    0.19    0.08
   0  -1  11    0.22    0.11
   0   1 -11    0.31    0.08
   0   1  11    0.13    0.09
   0   1 -11    0.33    0.10
   0   1  11    0.19    0.10
  -1  -1 -11    0.55    0.12
   1  -1  11    0.40    0.13
   1  -1  11    0.31    0.10
  -1  -1 -11    0.76    0.11
  -1   1 -11    0.50    0.10
   1   1  11    0.46    0.11
   1   1  11    0.82    0.13
  -1   1 -11    0.53    0.11
   2  -1  11    0.44    0.11
  -2  -1 -11    0.75    0.12
   2  -1  11    0.73    0.14
  -2  -1 -11    0.63    0.13
  -2   1 -11    0.77    0.12
   2   1  11    0.70    0.13
  -2   1 -11    0.80    0.13
   2   1  11    0.52    0.13
  -3  -1 -11    7.31    0.50
   3  -1  11    6.31    0.54
  -3   1 -11    5.57    0.49
  -3   1 -11    6.37    0.48
   4  -1  11    2.85    0.33
  -4  -1 -11    2.69    0.27
  -4   1 -11    2.85    0.27
  -4   1 -11    3.18    0.28
  -4   1 -11    3.18    0.27
   4   1  11    2.24    0.33
  -5  -1 -11    0.87    0.15
  -5  -1 -11    1.40    0.19
   5  -1  11    0.52    0.17
   5   1  11    0.65    0.17
  -5   1 -11    0.80    0.14
  -5   1 -11    0.81    0.14
  -5   1 -11    0.85    0.15
  -6  -1 -11    0.28    0.11
   6  -1  11    0.15    0.16
  -6  -1 -11    0.26    0.11
  -6   1 -11    0.18    0.11
   6   1  11    0.07    0.16
  -6   1 -11    0.43    0.13
  -6   1 -11    0.25    0.12
  -7  -1 -11    1.10    0.18
  -7  -1 -11    1.63    0.21
   7  -1  11    0.74    0.19
  -7   1 -11    1.08    0.17
  -7   1 -11    0.89    0.16
   7   1  11    1.48    0.25
  -7   1 -11    1.33    0.20
  -8  -1 -11    0.60    0.13
   8  -1  11    0.48    0.18
  -8   1 -11    0.92    0.16
   8   1  11    0.42    0.17
 -14  -2  11    0.21    0.10
 -14  -2  11    0.28    0.09
 -14   2  11    0.16    0.09
 -13  -2  11    0.13    0.09
  13  -2 -11   -0.04    0.13
 -13  -2  11   -0.04    0.08
 -13   2  11    0.07    0.08
 -13   2  11   -0.05    0.10
 -12  -2  11    0.61    0.11
 -12  -2  11    0.60    0.13
  12  -2 -11    0.59    0.17
 -12   2  11    0.65    0.13
 -12   2  11    0.74    0.11
  11  -2 -11    0.16    0.14
  11  -2 -11   -0.05    0.09
 -11  -2  11   -0.04    0.10
 -11  -2  11    0.01    0.07
 -11  -2  11    0.00    0.09
 -11   2  11    0.01    0.07
 -11   2  11   -0.03    0.10
 -10  -2  11    5.10    0.43
 -10  -2  11    5.16    0.37
  10  -2 -11    5.24    0.45
 -10  -2  11    5.44    0.40
  10  -2 -11    5.51    0.38
  10   2 -11    4.94    0.37
  10   2 -11    5.08    0.44
 -10   2  11    5.10    0.38
 -10   2  11    5.19    0.43
  -9  -2  11    0.08    0.07
  -9  -2  11    0.05    0.10
   9  -2 -11    0.13    0.09
  -9  -2  11    0.02    0.10
   9  -2 -11    0.00    0.14
  -9   2  11    0.14    0.11
   9   2 -11    0.02    0.12
  -9   2  11    0.03    0.08
  -8  -2  11    8.03    0.63
  -8  -2  11    8.81    0.59
   8  -2 -11    8.29    0.55
   8  -2 -11    8.03    0.65
  -8  -2  11    7.50    0.55
  -8   2  11    8.03    0.63
   8   2 -11    8.33    0.64
  -8   2  11    8.70    0.56
  -7  -2  11    0.20    0.11
   7  -2 -11    0.34    0.09
  -7  -2  11    0.03    0.09
   7  -2 -11    0.35    0.16
  -7  -2  11    0.16    0.07
  -7   2  11    0.26    0.08
   7   2 -11    0.06    0.12
  -7   2  11    0.39    0.11
   6  -2 -11    8.87    0.56
   6  -2 -11    8.27    0.66
  -6  -2  11    7.63    0.56
  -6  -2  11    7.77    0.64
  -6  -2  11    9.75    0.60
  -6   2  11    8.31    0.64
  -6   2  11    8.92    0.57
   6   2 -11    8.07    0.64
  -5  -2  11    0.88    0.13
  -5  -2  11    0.72    0.09
  -5  -2  11    1.31    0.19
  -5  -2  11    0.62    0.12
   5   2 -11    0.82    0.14
  -4  -2  11    4.71    0.33
  -4  -2  11    5.11    0.37
  -4  -2  11    3.79    0.39
  -4  -2  11    4.87    0.41
   4  -2 -11    5.00    0.41
   4   2 -11    4.97    0.38
  -4   2  11    4.76    0.41
  -4   2  11    4.45    0.39
  -4   2  11    4.80    0.35
  -3  -2  11    0.32    0.09
  -3  -2  11    0.33    0.07
  -3  -2  11    0.36    0.11
   3  -2 -11    0.60    0.13
  -3  -2  11    0.37    0.10
  -3   2  11    0.50    0.09
   3   2 -11    0.33    0.10
   3   2 -11    0.40    0.07
   2  -2 -11    2.12    0.24
  -2  -2  11    1.74    0.25
  -2  -2  11    2.04    0.24
  -2  -2  11    2.12    0.21
  -2  -2  11    1.91    0.18
  -2   2  11    2.33    0.25
  -2   2  11    2.17    0.20
   2   2 -11    2.14    0.19
   2   2 -11    2.05    0.21
  -2   2  11    2.23    0.23
  -1  -2  11    0.02    0.06
  -1  -2  11    0.14    0.09
  -1  -2  11    0.11    0.12
   1  -2 -11    0.14    0.10
  -1  -2  11    0.14    0.07
  -1   2  11    0.20    0.10
   1   2 -11    0.14    0.07
  -1   2  11    0.15    0.08
   1   2 -11    0.05    0.08
  -1   2  11    0.24    0.09
   0  -2  11    1.75    0.18
   0  -2  11    1.24    0.16
   0  -2 -11    1.62    0.18
   0  -2 -11    1.64    0.20
   0  -2  11    1.70    0.24
   0   2 -11    1.60    0.19
   0   2  11    1.70    0.22
   0   2  11    1.75    0.23
   0   2  11    1.68    0.19
   0   2 -11    1.85    0.19
   1  -2  11   -0.11    0.07
  -1  -2 -11    0.03    0.07
   1  -2  11   -0.06    0.11
  -1  -2 -11   -0.11    0.09
  -1   2 -11    0.04    0.08
   1   2  11   -0.01    0.10
  -1   2 -11    0.06    0.08
   1   2  11    0.13    0.10
  -2  -2 -11    2.45    0.25
   2  -2  11    2.68    0.30
  -2  -2 -11    2.69    0.25
  -2   2 -11    2.65    0.25
   2   2  11    2.68    0.26
  -2   2 -11    2.53    0.24
   2   2  11    2.43    0.29
   3  -2  11    0.42    0.13
  -3   2 -11    0.19    0.10
  -3   2 -11    0.27    0.10
   3   2  11    0.12    0.13
  -3   2 -11    0.23    0.11
  -4  -2 -11    2.98    0.29
  -4  -2 -11    3.69    0.31
   4  -2  11    3.19    0.35
   4   2  11    3.34    0.35
  -4   2 -11    3.04    0.29
  -4   2 -11    3.24    0.30
  -4   2 -11    3.56    0.30
  -5  -2 -11    0.17    0.11
  -5  -2 -11    0.19    0.11
   5  -2  11   -0.05    0.14
  -5   2 -11    0.17    0.11
  -5   2 -11    0.27    0.12
   5   2  11    0.13    0.15
  -5   2 -11    0.25    0.11
  -6  -2 -11    0.05    0.11
  -6  -2 -11    0.23    0.11
   6  -2  11   -0.01    0.16
  -6   2 -11    0.02    0.11
   6   2  11   -0.04    0.16
  -6   2 -11    0.12    0.11
  -6   2 -11   -0.01    0.09
   7  -2  11    0.10    0.15
  -7  -2 -11    0.13    0.10
  -7  -2 -11    0.03    0.10
   7   2  11   -0.04    0.16
  -7   2 -11    0.03    0.12
  -7   2 -11    0.13    0.09
  -7   2 -11    0.01    0.11
   8  -2  11    0.37    0.18
  -8   2 -11    0.86    0.15
  -8   2 -11    0.60    0.14
   8   2  11    0.20    0.17
 -14  -3  11    0.00    0.09
 -14   3  11   -0.22    0.11
 -14   3  11   -0.04    0.08
 -13  -3  11    0.18    0.10
  13  -3 -11   -0.17    0.13
 -13  -3  11    0.14    0.08
 -13   3  11    0.02    0.10
 -13   3  11    0.11    0.08
  12  -3 -11    0.08    0.09
 -12  -3  11   -0.05    0.07
 -12  -3  11    0.07    0.09
  12  -3 -11   -0.07    0.13
 -12  -3  11   -0.11    0.10
 -12   3  11    0.02    0.10
 -12   3  11   -0.03    0.07
  11  -3 -11    0.44    0.17
  11  -3 -11    0.58    0.12
 -11  -3  11    0.56    0.10
 -11  -3  11    0.61    0.12
 -11  -3  11    0.42    0.13
 -11   3  11    0.57    0.13
 -11   3  11    0.54    0.10
  10  -3 -11    0.06    0.09
 -10  -3  11    0.19    0.07
 -10  -3  11   -0.03    0.10
  10  -3 -11   -0.03    0.14
 -10  -3  11    0.07    0.10
 -10   3  11    0.08    0.08
 -10   3  11    0.20    0.11
  -9  -3  11    4.17    0.38
   9  -3 -11    4.46    0.41
  -9  -3  11    4.45    0.32
   9  -3 -11    4.02    0.33
  -9  -3  11    4.80    0.36
  -9   3  11    4.49    0.33
  -9   3  11    4.48    0.38
  -8  -3  11    0.23    0.10
  -8  -3  11    0.24    0.12
  -8  -3  11    0.31    0.07
   8  -3 -11    0.34    0.10
   8  -3 -11    0.42    0.17
  -8   3  11    0.26    0.11
  -8   3  11    0.47    0.09
  -7  -3  11    0.52    0.13
  -7  -3  11    0.51    0.11
  -7  -3  11    0.50    0.08
   7  -3 -11    0.56    0.17
   7  -3 -11    0.57    0.10
  -7   3  11    0.60    0.12
   7   3 -11    0.55    0.13
  -7   3  11    0.56    0.10
   6  -3 -11    0.70    0.17
  -6  -3  11    0.62    0.13
  -6  -3  11    0.56    0.08
  -6  -3  11    0.62    0.11
   6  -3 -11    0.61    0.10
  -6   3  11    0.58    0.12
   6   3 -11    0.45    0.13
  -6   3  11    0.64    0.10
  -5  -3  11    0.83    0.12
   5  -3 -11    0.91    0.11
  -5  -3  11    0.83    0.12
   5  -3 -11    0.80    0.17
  -5  -3  11    0.75    0.13
  -5   3  11    0.79    0.13
  -5   3  11    0.79    0.11
  -5   3  11    0.62    0.13
   5   3 -11    0.76    0.13
   4  -3 -11    0.28    0.14
   4  -3 -11    0.32    0.08
  -4  -3  11    0.27    0.11
  -4  -3  11    0.21    0.09
  -4  -3  11    0.23    0.09
  -4   3  11    0.32    0.10
  -4   3  11    0.37    0.10
   4   3 -11    0.39    0.10
  -4   3  11    0.31    0.09
  -3  -3  11    3.05    0.30
  -3  -3  11    3.28    0.28
  -3  -3  11    3.17    0.31
   3  -3 -11    3.27    0.31
  -3   3  11    3.44    0.26
  -3   3  11    3.50    0.29
  -3   3  11    3.04    0.31
   3   3 -11    3.19    0.28
   3   3 -11    3.10    0.26
   2  -3 -11    1.37    0.22
  -2  -3  11    2.11    0.19
  -2  -3  11    1.22    0.21
  -2  -3  11    1.68    0.24
  -2   3  11    1.68    0.21
   2   3 -11    1.65    0.18
   2   3 -11    1.79    0.17
  -2   3  11    1.58    0.23
  -2   3  11    1.95    0.18
  -1  -3  11    0.03    0.09
   1  -3 -11    0.05    0.10
  -1  -3  11   -0.05    0.11
  -1  -3  11    0.06    0.07
   1   3 -11   -0.01    0.06
  -1   3  11    0.06    0.09
   1   3 -11    0.16    0.08
  -1   3  11    0.07    0.09
  -1   3  11    0.01    0.08
   0  -3  11    1.14    0.16
   0  -3 -11    1.28    0.19
   0  -3  11    1.44    0.16
   0   3  11    1.27    0.21
   0   3 -11    1.60    0.17
   0   3  11    1.15    0.20
   0   3 -11    1.24    0.18
   0   3  11    1.60    0.18
   1  -3  11    0.34    0.12
  -1  -3 -11    0.47    0.09
  -1  -3 -11    0.35    0.11
  -1   3 -11    0.47    0.11
   1   3  11    0.40    0.12
  -1   3 -11    0.39    0.10
   1   3  11    0.36    0.11
  -2  -3 -11    2.27    0.25
  -2  -3 -11    2.90    0.25
   2  -3  11    2.38    0.30
  -2   3 -11    2.28    0.24
   2   3  11    2.70    0.29
  -2   3 -11    2.62    0.24
   2   3  11    2.67    0.27
  -3  -3 -11    1.75    0.22
  -3  -3 -11    1.71    0.21
   3  -3  11    1.98    0.27
   3   3  11    1.65    0.24
  -3   3 -11    1.94    0.21
  -3   3 -11    1.88    0.21
  -3   3 -11    1.96    0.22
   3   3  11    2.04    0.27
  -4  -3 -11    2.26    0.24
   4  -3  11    1.62    0.28
  -4  -3 -11    1.79    0.22
  -4   3 -11    2.16    0.24
   4   3  11    2.01    0.28
  -4   3 -11    2.59    0.22
  -4   3 -11    1.95    0.23
  -5  -3 -11   -0.08    0.10
  -5  -3 -11    0.04    0.11
   5  -3  11   -0.17    0.14
  -5   3 -11   -0.03    0.09
  -5   3 -11    0.04    0.11
  -5   3 -11    0.09    0.10
   5   3  11    0.05    0.14
   6  -3  11    0.05    0.15
  -6  -3 -11    0.23    0.11
  -6   3 -11    0.18    0.11
   6   3  11    0.24    0.16
  -6   3 -11    0.18    0.10
  -6   3 -11    0.08    0.12
  -7  -3 -11    0.27    0.11
   7  -3  11    0.04    0.15
  -7   3 -11    0.28    0.12
  -7   3 -11    0.19    0.13
   7   3  11    0.36    0.16
   8  -3  11    1.61    0.25
  -8   3 -11    2.51    0.26
   8   3  11    2.41    0.29
  -8   3 -11    2.38    0.25
 -13  -4  11    0.09    0.09
 -13   4  11    0.05    0.08
 -13   4  11    0.28    0.11
 -12  -4  11    0.38    0.11
 -12  -4  11    0.48    0.13
  12  -4 -11    0.59    0.12
  12  -4 -11    0.48    0.16
 -12   4  11    0.50    0.13
 -12   4  11    0.62    0.11
 -11  -4  11    0.01    0.09
  11  -4 -11   -0.14    0.14
 -11  -4  11   -0.10    0.10
  11  -4 -11    0.02    0.09
 -11   4  11    0.02    0.10
 -11   4  11    0.07    0.08
  10  -4 -11    5.44    0.39
 -10  -4  11    5.22    0.44
 -10  -4  11    5.21    0.40
  10  -4 -11    4.97    0.46
 -10   4  11    5.58    0.44
 -10   4  11    5.15    0.38
  -9  -4  11    0.17    0.11
   9  -4 -11    0.29    0.16
   9  -4 -11    0.35    0.10
  -9  -4  11    0.25    0.10
  -9   4  11    0.28    0.09
  -9   4  11    0.27    0.11
   8  -4 -11    4.92    0.38
   8  -4 -11    5.17    0.46
  -8  -4  11    4.98    0.43
  -8  -4  11    5.48    0.40
  -8   4  11    5.28    0.43
  -8   4  11    5.12    0.38
  -7  -4  11    0.05    0.11
   7  -4 -11    0.16    0.08
  -7  -4  11    0.10    0.09
   7  -4 -11    0.07    0.15
  -7   4  11   -0.01    0.09
  -7   4  11    0.17    0.08
   6  -4 -11    0.68    0.11
  -6  -4  11    0.58    0.13
  -6  -4  11    0.65    0.11
   6  -4 -11    0.58    0.17
  -6   4  11    0.63    0.10
  -6   4  11    0.50    0.12
  -5  -4  11    0.28    0.09
   5  -4 -11    0.34    0.15
   5  -4 -11    0.34    0.09
  -5  -4  11    0.31    0.12
  -5   4  11    0.34    0.10
  -5   4  11    0.27    0.11
  -5   4  11    0.29    0.09
  -4  -4  11    2.91    0.29
  -4  -4  11    3.18    0.27
   4  -4 -11    3.17    0.25
   4  -4 -11    2.93    0.32
   4   4 -11    2.89    0.25
  -4   4  11    3.03    0.31
  -4   4  11    2.99    0.25
  -4   4  11    3.28    0.28
   3  -4 -11    3.02    0.23
  -3  -4  11    2.24    0.27
  -3  -4  11    2.87    0.28
  -3  -4  11    2.71    0.25
   3  -4 -11    2.50    0.29
   3   4 -11    2.81    0.24
  -3   4  11    2.84    0.26
  -3   4  11    2.70    0.29
  -3   4  11    3.00    0.24
   2  -4 -11    3.21    0.24
  -2  -4  11    2.91    0.26
  -2  -4  11    2.89    0.31
   2  -4 -11    2.92    0.29
  -2  -4  11    2.53    0.28
   2   4 -11    3.14    0.25
  -2   4  11    3.03    0.30
  -2   4  11    3.32    0.25
  -2   4  11    2.86    0.27
  -1  -4  11    0.17    0.08
  -1  -4  11    0.22    0.13
   1  -4 -11    0.13    0.08
   1  -4 -11    0.11    0.11
  -1  -4  11    0.12    0.09
   1   4 -11    0.18    0.09
   1   4 -11    0.18    0.08
  -1   4  11    0.16    0.10
  -1   4  11    0.09    0.09
  -1   4  11    0.13    0.08
   0  -4 -11    2.11    0.24
   0  -4 -11    2.29    0.19
   0  -4  11    1.91    0.27
   0  -4  11    2.23    0.21
   0   4  11    2.44    0.22
   0   4  11    2.10    0.24
   0   4  11    2.46    0.26
   0   4 -11    2.43    0.22
   0   4 -11    2.44    0.22
   1  -4  11    0.11    0.11
  -1  -4 -11    0.24    0.08
  -1  -4 -11    0.25    0.11
   1   4  11    0.20    0.11
  -1   4 -11    0.21    0.09
   1   4  11    0.21    0.10
  -1   4 -11    0.27    0.08
   1   4  11    0.17    0.11
   2  -4  11    2.74    0.33
  -2  -4 -11    2.66    0.28
  -2   4 -11    2.97    0.27
   2   4  11    3.07    0.29
  -2   4 -11    3.40    0.27
   2   4  11    2.97    0.32
  -2   4 -11    3.16    0.27
  -3  -4 -11    3.65    0.36
   3  -4  11    4.19    0.41
  -3   4 -11    4.72    0.36
  -3   4 -11    4.91    0.36
   3   4  11    4.14    0.36
   3   4  11    4.24    0.40
  -3   4 -11    4.57    0.35
   4  -4  11    0.22    0.14
  -4  -4 -11    0.38    0.12
  -4   4 -11    0.43    0.12
   4   4  11    0.39    0.15
  -4   4 -11    0.34    0.11
  -4   4 -11    0.52    0.12
  -5  -4 -11    0.47    0.12
   5  -4  11    0.20    0.15
  -5   4 -11    0.49    0.13
  -5   4 -11    0.48    0.12
   5   4  11    0.32    0.16
   6  -4  11    0.23    0.16
  -6  -4 -11    0.58    0.12
  -6   4 -11    0.23    0.13
   6   4  11    0.17    0.16
  -6   4 -11    0.36    0.12
  -6   4 -11    0.41    0.11
   7  -4  11    1.14    0.20
  -7   4 -11    1.22    0.18
   7   4  11    0.78    0.20
  -7   4 -11    1.46    0.20
   8   4  11    0.09    0.17
 -13  -5  11    0.24    0.10
 -13   5  11   -0.12    0.11
 -13   5  11    0.05    0.08
  12  -5 -11    0.07    0.09
  12  -5 -11   -0.17    0.14
 -12  -5  11    0.32    0.09
 -12  -5  11    0.03    0.10
 -12   5  11    0.01    0.07
 -12   5  11    0.10    0.10
 -11  -5  11    0.31    0.09
  11  -5 -11    0.11    0.14
  11  -5 -11    0.32    0.10
 -11  -5  11    0.13    0.11
 -11   5  11    0.13    0.11
 -11   5  11    0.21    0.08
  10  -5 -11    0.09    0.14
 -10  -5  11    0.07    0.09
  10  -5 -11    0.13    0.09
 -10  -5  11    0.02    0.11
 -10   5  11    0.06    0.08
 -10   5  11    0.17    0.10
  -9  -5  11    7.68    0.62
   9  -5 -11    7.62    0.63
  -9  -5  11    8.37    0.57
   9  -5 -11    7.76    0.54
  -9   5  11    8.36    0.61
  -9   5  11    7.56    0.54
   8  -5 -11    0.11    0.09
  -8  -5  11    0.00    0.09
   8  -5 -11   -0.08    0.15
  -8  -5  11    0.08    0.11
  -8   5  11    0.14    0.10
  -8   5  11    0.11    0.08
  -7  -5  11   13.33    0.88
   7  -5 -11   12.55    0.97
   7  -5 -11   14.04    0.84
  -7  -5  11   11.78    0.95
  -7   5  11   13.72    0.95
  -7   5  11   11.69    0.84
   6  -5 -11    0.06    0.15
  -6  -5  11    0.02    0.11
  -6  -5  11    0.08    0.09
   6  -5 -11    0.15    0.09
  -6   5  11    0.09    0.08
  -6   5  11    0.18    0.09
  -5  -5  11    4.64    0.39
   5  -5 -11    4.19    0.41
   5  -5 -11    4.78    0.34
  -5  -5  11    4.52    0.36
  -5   5  11    4.49    0.34
  -5   5  11    4.85    0.38
   5   5 -11    4.48    0.35
  -4  -5  11    0.01    0.08
  -4  -5  11    0.06    0.11
   4  -5 -11    0.12    0.14
   4  -5 -11    0.09    0.08
  -4   5  11    0.03    0.07
  -4   5  11    0.07    0.09
  -4   5  11   -0.02    0.10
   4   5 -11   -0.13    0.07
  -3  -5  11    8.78    0.65
   3  -5 -11    7.53    0.65
  -3  -5  11    8.58    0.60
   3  -5 -11    9.02    0.57
  -3   5  11    8.60    0.64
  -3   5  11    8.26    0.67
  -3   5  11    8.36    0.57
   3   5 -11    8.29    0.59
  -2  -5  11    0.02    0.08
  -2  -5  11   -0.08    0.12
   2  -5 -11   -0.09    0.08
   2  -5 -11    0.03    0.12
  -2   5  11   -0.02    0.09
  -2   5  11   -0.03    0.07
   2   5 -11    0.02    0.08
  -1  -5  11    2.42    0.27
  -1  -5  11    2.22    0.21
   1  -5 -11    1.78    0.23
   1  -5 -11    2.13    0.19
   1   5 -11    1.89    0.20
  -1   5  11    1.92    0.25
  -1   5  11    1.86    0.20
   0  -5  11    0.04    0.08
   0  -5 -11    0.06    0.08
   0  -5  11   -0.14    0.10
   0  -5 -11    0.04    0.10
   0   5  11   -0.01    0.10
   0   5  11   -0.06    0.08
   0   5 -11    0.06    0.08
   1  -5  11    0.22    0.12
  -1  -5 -11    0.29    0.11
  -1   5 -11    0.20    0.09
  -1   5 -11    0.16    0.09
   1   5  11    0.26    0.11
   1   5  11    0.31    0.11
   2  -5  11    0.38    0.13
  -2  -5 -11    0.60    0.13
   2   5  11    0.56    0.13
  -2   5 -11    0.50    0.11
   2   5  11    0.52    0.13
  -2   5 -11    0.43    0.11
  -3  -5 -11    3.71    0.34
   3  -5  11    3.72    0.38
   3   5  11    4.06    0.34
  -3   5 -11    3.96    0.33
   3   5  11    4.13    0.37
  -3   5 -11    4.05    0.33
   4  -5  11   -0.11    0.12
  -4  -5 -11   -0.03    0.10
   4   5  11    0.05    0.13
   4   5  11   -0.15    0.13
  -4   5 -11   -0.14    0.10
  -4   5 -11    0.00    0.10
   5  -5  11    0.05    0.14
  -5   5 -11    0.38    0.12
  -5   5 -11    0.30    0.12
   5   5  11    0.34    0.16
   6  -5  11    0.00    0.14
  -6  -5 -11    0.36    0.11
  -6   5 -11    0.22    0.11
  -6   5 -11    0.55    0.11
   6   5  11   -0.07    0.16
   7  -5  11    0.48    0.17
  -7   5 -11    0.47    0.14
   7   5  11    0.44    0.18
  -7   5 -11    0.74    0.14
 -13  -6  11   -0.01    0.10
 -13   6  11   -0.02    0.07
 -13   6  11   -0.20    0.10
 -12  -6  11    0.37    0.11
 -12  -6  11    0.32    0.10
  12  -6 -11    0.25    0.11
 -12   6  11    0.30    0.09
 -12   6  11    0.33    0.12
 -11  -6  11   -0.06    0.10
  11  -6 -11   -0.12    0.15
 -11  -6  11   -0.03    0.09
  11  -6 -11    0.07    0.09
 -11   6  11    0.07    0.07
 -11   6  11    0.08    0.10
 -10  -6  11    1.41    0.21
 -10  -6  11    1.17    0.18
  10  -6 -11    1.27    0.21
  10  -6 -11    1.39    0.18
 -10   6  11    1.12    0.16
 -10   6  11    1.49    0.21
   9  -6 -11    0.05    0.10
   9  -6 -11   -0.01    0.15
  -9  -6  11    0.18    0.12
  -9  -6  11    0.05    0.10
  -9   6  11    0.11    0.08
  -9   6  11    0.13    0.09
   8  -6 -11    7.19    0.51
  -8  -6  11    7.56    0.58
  -8  -6  11    7.16    0.54
   8  -6 -11    7.14    0.60
  -8   6  11    7.45    0.51
  -8   6  11    7.58    0.57
  -7  -6  11    0.85    0.14
   7  -6 -11    1.23    0.17
  -7  -6  11    1.41    0.21
   7  -6 -11    0.98    0.19
  -7   6  11    1.06    0.16
  -6  -6  11    4.18    0.34
  -6  -6  11    4.15    0.37
   6  -6 -11    3.80    0.39
   6  -6 -11    4.10    0.32
   6   6 -11    4.78    0.34
  -6   6  11    3.95    0.32
  -5  -6  11    0.48    0.11
  -5  -6  11    0.63    0.13
   5  -6 -11    0.52    0.17
   5  -6 -11    0.68    0.11
   5   6 -11    0.65    0.12
  -5   6  11    0.61    0.10
   4  -6 -11    0.70    0.16
  -4  -6  11    0.79    0.14
   4  -6 -11    0.70    0.11
  -4  -6  11    0.61    0.12
   4   6 -11    0.69    0.12
  -4   6  11    0.82    0.14
  -4   6  11    0.73    0.11
  -3  -6  11    0.14    0.12
  -3  -6  11    0.14    0.09
   3  -6 -11    0.13    0.13
   3  -6 -11    0.20    0.09
  -3   6  11    0.14    0.08
   3   6 -11    0.02    0.08
  -3   6  11    0.17    0.11
  -2  -6  11    3.94    0.33
   2  -6 -11    4.33    0.31
  -2  -6  11    4.01    0.37
  -2   6  11    3.95    0.38
  -2   6  11    3.95    0.31
   2   6 -11    4.18    0.33
   1  -6 -11    1.19    0.16
  -1  -6  11    1.35    0.18
   1  -6 -11    1.28    0.20
  -1  -6  11    1.52    0.24
  -1   6  11    1.29    0.22
   1   6 -11    1.39    0.18
  -1   6  11    1.52    0.17
   0  -6  11    1.08    0.15
   0  -6 -11    0.93    0.12
   0  -6 -11    0.82    0.14
   0   6  11    0.98    0.13
   0   6  11    0.63    0.14
   0   6 -11    0.69    0.12
   0   6 -11    0.79    0.12
  -1  -6 -11    0.44    0.13
  -1   6 -11    0.56    0.11
   1   6  11    0.65    0.12
   1   6  11    0.59    0.13
  -1   6 -11    0.52    0.10
  -2  -6 -11    0.25    0.12
   2   6  11    0.20    0.12
   2   6  11    0.15    0.11
  -2   6 -11    0.18    0.10
  -2   6 -11    0.15    0.10
  -3  -6 -11    0.98    0.15
   3  -6  11    0.65    0.15
  -3   6 -11    0.99    0.15
   3   6  11    0.81    0.15
   3   6  11    0.94    0.16
  -4  -6 -11    1.31    0.19
   4  -6  11    1.11    0.18
   4   6  11    1.05    0.18
  -4   6 -11    1.43    0.20
  -4   6 -11    1.52    0.19
   4   6  11    1.14    0.18
   5  -6  11    0.65    0.17
  -5  -6 -11    1.01    0.15
  -5   6 -11    1.41    0.19
   5   6  11    0.83    0.18
  -5   6 -11    0.90    0.15
   5   6  11    0.77    0.17
  -6   6 -11    0.08    0.10
  -6   6 -11    0.09    0.11
   6   6  11   -0.16    0.13
   7  -6  11    0.19    0.15
   7   6  11    0.44    0.15
  -7   6 -11    0.57    0.14
  -7   6 -11    0.30    0.14
 -12  -7  11    0.17    0.09
  12  -7 -11   -0.11    0.09
 -12  -7  11    0.01    0.10
 -12   7  11   -0.04    0.07
  11  -7 -11    0.12    0.10
 -11  -7  11    0.20    0.10
  11  -7 -11    0.10    0.15
 -11  -7  11    0.17    0.09
 -11   7  11    0.16    0.08
 -10  -7  11    0.07    0.09
  10  -7 -11    0.10    0.09
  10  -7 -11   -0.05    0.16
 -10  -7  11    0.35    0.11
 -10   7  11    0.12    0.08
  -9  -7  11    0.66    0.13
  -9  -7  11    0.76    0.13
   9  -7 -11    0.64    0.12
   9  -7 -11    0.47    0.19
  -9   7  11    0.56    0.11
   8  -7 -11    0.72    0.18
  -8  -7  11    0.67    0.13
   8  -7 -11    0.54    0.12
  -8  -7  11    0.46    0.14
  -8   7  11    0.64    0.11
   7  -7 -11    0.54    0.11
  -7  -7  11    0.33    0.12
  -7  -7  11    0.53    0.13
   7  -7 -11    0.24    0.17
  -7   7  11    0.43    0.10
   6  -7 -11    0.24    0.16
  -6  -7  11    0.12    0.10
  -6  -7  11    0.37    0.12
   6  -7 -11    0.32    0.10
  -6   7  11    0.29    0.09
   6   7 -11    0.38    0.12
  -5  -7  11    0.20    0.10
   5  -7 -11    0.14    0.15
   5  -7 -11    0.19    0.09
  -5  -7  11    0.15    0.12
  -5   7  11    0.19    0.08
   5   7 -11    0.27    0.11
  -4  -7  11    0.45    0.13
   4  -7 -11    0.48    0.11
  -4  -7  11    0.40    0.11
   4  -7 -11    0.38    0.16
  -4   7  11    0.40    0.10
   4   7 -11    0.55    0.12
  -3  -7  11    0.72    0.13
   3  -7 -11    0.83    0.12
  -3  -7  11    0.87    0.15
   3  -7 -11    0.65    0.15
  -3   7  11    0.73    0.11
   3   7 -11    0.84    0.13
  -3   7  11    0.73    0.15
   2  -7 -11    3.66    0.31
  -2  -7  11    4.20    0.33
   2  -7 -11    3.48    0.35
  -2  -7  11    4.15    0.37
  -2   7  11    3.69    0.38
   2   7 -11    4.28    0.33
  -2   7  11    4.16    0.31
   1  -7 -11    0.81    0.15
  -1  -7  11    0.79    0.13
  -1  -7  11    0.87    0.16
   1  -7 -11    0.87    0.13
  -1   7  11    0.70    0.14
  -1   7  11    0.80    0.12
   1   7 -11    0.81    0.13
   0  -7 -11    0.84    0.14
   0  -7  11    0.69    0.12
   0   7 -11    0.73    0.13
   0   7 -11    0.73    0.12
   0   7  11    0.69    0.12
   0   7  11    0.59    0.14
  -1  -7 -11    0.45    0.13
  -1   7 -11    0.30    0.11
  -1   7 -11    0.32    0.11
   1   7  11    0.43    0.11
   1   7  11    0.37    0.13
  -2  -7 -11    1.54    0.22
  -2   7 -11    2.13    0.21
  -2   7 -11    1.85    0.21
   2   7  11    2.03    0.26
   2   7  11    1.91    0.22
  -3  -7 -11    0.02    0.11
  -3   7 -11    0.02    0.10
   3   7  11   -0.14    0.12
  -3   7 -11    0.08    0.10
   3   7  11    0.13    0.12
  -4  -7 -11    2.14    0.23
   4   7  11    1.92    0.27
  -4   7 -11    2.59    0.24
   4   7  11    2.19    0.27
  -4   7 -11    2.36    0.25
  -5  -7 -11    0.00    0.10
  -5   7 -11   -0.07    0.10
  -5   7 -11    0.08    0.11
   5   7  11   -0.16    0.14
  -6   7 -11   -0.18    0.10
   6   7  11   -0.10    0.13
  -6   7 -11   -0.13    0.10
  12  -8 -11    0.06    0.10
 -12   8  11    0.17    0.08
 -11  -8  11   -0.05    0.08
  11  -8 -11   -0.04    0.10
 -11   8  11    0.05    0.07
 -10  -8  11    3.05    0.27
  10  -8 -11    2.55    0.33
  10  -8 -11    3.04    0.27
 -10   8  11    3.05    0.25
  -9  -8  11    0.40    0.11
   9  -8 -11   -0.04    0.16
  -9  -8  11   -0.12    0.11
   9  -8 -11    0.13    0.10
  -9   8  11    0.17    0.08
   8  -8 -11    6.05    0.55
   8  -8 -11    7.12    0.47
  -8  -8  11    7.10    0.50
  -8  -8  11    6.36    0.52
  -8   8  11    6.18    0.46
   7  -8 -11    0.20    0.17
  -7  -8  11    0.04    0.12
  -7  -8  11    0.20    0.13
   7  -8 -11    0.21    0.11
   7   8 -11    0.25    0.12
  -7   8  11    0.43    0.10
   6  -8 -11    3.39    0.36
  -6  -8  11    3.87    0.34
   6  -8 -11    3.67    0.30
  -6  -8  11    3.18    0.31
  -6   8  11    3.58    0.29
   6   8 -11    4.19    0.33
   5  -8 -11    0.17    0.16
  -5  -8  11    0.08    0.10
  -5  -8  11    0.02    0.12
   5  -8 -11    0.10    0.10
  -5   8  11    0.18    0.09
   5   8 -11    0.36    0.12
  -4  -8  11    4.36    0.39
   4  -8 -11    4.89    0.34
   4  -8 -11    3.82    0.39
  -4  -8  11    4.49    0.36
  -4   8  11    4.41    0.34
   4   8 -11    4.62    0.37
   3  -8 -11    1.15    0.15
   3  -8 -11    0.90    0.17
  -3  -8  11    1.04    0.15
  -3  -8  11    1.15    0.16
   3   8 -11    1.05    0.16
  -3   8  11    0.97    0.16
  -3   8  11    1.29    0.16
  -2  -8  11    4.95    0.40
   2  -8 -11    5.74    0.39
   2  -8 -11    4.67    0.43
  -2  -8  11    5.06    0.44
  -2   8  11    5.15    0.46
   2   8 -11    5.53    0.41
  -2   8  11    5.13    0.38
   1  -8 -11    0.10    0.09
   1  -8 -11    0.04    0.12
  -1  -8  11   -0.08    0.15
  -1  -8  11    0.23    0.09
   1   8 -11    0.08    0.10
   1   8 -11    0.07    0.09
  -1   8  11    0.04    0.12
  -1   8  11    0.09    0.09
   0  -8 -11    1.15    0.17
   0  -8  11    1.19    0.19
   0  -8  11    1.18    0.15
   0   8  11    1.24    0.18
   0   8  11    1.15    0.15
   0   8 -11    1.24    0.18
   0   8 -11    1.29    0.19
  -1  -8 -11    0.21    0.10
  -1   8 -11    0.04    0.09
   1   8  11   -0.02    0.11
   1   8  11    0.03    0.10
  -1   8 -11   -0.03    0.09
  -2  -8 -11    2.40    0.26
  -2   8 -11    2.41    0.25
   2   8  11    2.78    0.30
   2   8  11    2.51    0.25
  -2   8 -11    2.62    0.24
  -3  -8 -11    0.94    0.15
  -3   8 -11    0.79    0.14
  -3   8 -11    0.88    0.15
   3   8  11    0.89    0.16
   3   8  11    0.86    0.16
  -4  -8 -11    1.48    0.18
  -4   8 -11    0.93    0.16
   4   8  11    1.14    0.18
   4   8  11    0.96    0.17
   5   8  11   -0.04    0.14
   5   8  11    0.12    0.14
  -5   8 -11    0.16    0.12
  -5   8 -11    0.31    0.13
  -6   8 -11    0.09    0.11
  -6   8 -11   -0.14    0.11
   6   8  11   -0.29    0.14
  11  -9 -11    0.10    0.10
 -11  -9  11    0.05    0.10
 -11   9  11    0.13    0.08
  10  -9 -11   -0.04    0.10
 -10  -9  11   -0.07    0.09
 -10   9  11   -0.07    0.07
  -9  -9  11    7.81    0.54
   9  -9 -11    6.77    0.60
   9  -9 -11    7.51    0.52
  -9   9  11    7.05    0.51
   8  -9 -11   -0.14    0.17
  -8  -9  11    0.05    0.11
   8  -9 -11    0.18    0.11
  -8   9  11    0.24    0.09
   7  -9 -11    8.71    0.78
   7  -9 -11   10.20    0.69
  -7  -9  11   10.14    0.72
  -7   9  11   10.01    0.68
   7   9 -11   11.66    0.73
   6  -9 -11    0.17    0.17
  -6  -9  11    0.47    0.13
   6  -9 -11    0.31    0.12
  -6  -9  11    0.24    0.12
  -6   9  11    0.35    0.10
   6   9 -11    0.38    0.13
  -5  -9  11    2.10    0.26
  -5  -9  11    2.36    0.25
   5  -9 -11    2.50    0.23
   5  -9 -11    2.01    0.27
  -5   9  11    2.15    0.22
   5   9 -11    2.82    0.27
  -4  -9  11    0.19    0.11
  -4  -9  11    0.09    0.12
   4  -9 -11    0.21    0.16
   4  -9 -11    0.24    0.11
  -4   9  11    0.22    0.10
   4   9 -11    0.07    0.12
  -3  -9  11    5.71    0.44
  -3  -9  11    5.51    0.47
   3  -9 -11    5.94    0.42
   3  -9 -11    5.26    0.46
  -3   9  11    5.41    0.41
   3   9 -11    6.28    0.45
   2  -9 -11    0.19    0.10
   2  -9 -11    0.26    0.13
  -2  -9  11    0.06    0.14
  -2  -9  11    0.29    0.11
  -2   9  11    0.13    0.09
  -2   9  11    0.15    0.13
   2   9 -11    0.30    0.11
   1  -9 -11    3.60    0.35
  -1  -9  11    3.30    0.37
  -1  -9  11    4.66    0.34
  -1   9  11    4.20    0.32
   1   9 -11    4.10    0.35
  -1   9  11    4.45    0.41
   1   9 -11    4.30    0.34
   0  -9  11    0.46    0.15
   0  -9 -11    0.23    0.13
   0  -9  11    0.52    0.11
   0   9  11    0.28    0.14
   0   9 -11    0.33    0.11
   0   9 -11    0.46    0.12
   0   9  11    0.17    0.11
   1  -9  11    0.84    0.19
  -1  -9 -11    1.02    0.15
   1   9  11    0.90    0.14
  -1   9 -11    0.86    0.15
  -1   9 -11    0.86    0.15
   1   9  11    1.07    0.17
  -2  -9 -11    0.33    0.12
   2   9  11    0.31    0.12
  -2   9 -11    0.31    0.12
  -2   9 -11    0.48    0.12
   2   9  11    0.13    0.13
  -3  -9 -11    1.41    0.20
   3   9  11    1.21    0.20
  -3   9 -11    1.58    0.20
  -3   9 -11    1.44    0.20
   3   9  11    1.26    0.18
  -4  -9 -11    0.58    0.12
   4   9  11   -0.07    0.13
  -4   9 -11    0.24    0.12
  -4   9 -11    0.36    0.12
  -5   9 -11    0.49    0.13
   5   9  11    0.26    0.14
  -5   9 -11    0.36    0.13
 -10 -10  11    0.45    0.11
  10 -10 -11    0.22    0.11
 -10  10  11    0.20    0.09
   9 -10 -11    0.10    0.10
  -9 -10  11    0.33    0.10
  -9  10  11    0.03    0.08
   8 -10 -11    1.08    0.16
  -8 -10  11    0.95    0.16
   8 -10 -11    0.94    0.19
  -8  10  11    0.90    0.13
   8  10 -11    1.42    0.21
   7 -10 -11    0.79    0.22
   7 -10 -11    1.37    0.19
  -7 -10  11    1.13    0.17
   7  10 -11    1.30    0.18
  -7  10  11    1.14    0.16
   6 -10 -11    0.25    0.11
  -6 -10  11    0.01    0.12
   6 -10 -11   -0.02    0.16
   6  10 -11   -0.02    0.11
  -6  10  11    0.05    0.09
   5 -10 -11    0.39    0.11
  -5 -10  11    0.17    0.12
   5 -10 -11    0.16    0.16
  -5  10  11    0.23    0.10
   5  10 -11    0.30    0.12
   4 -10 -11    0.08    0.10
  -4 -10  11    0.05    0.10
   4 -10 -11    0.03    0.14
  -4  10  11   -0.13    0.09
   4  10 -11    0.01    0.12
   3 -10 -11    0.69    0.12
   3 -10 -11    0.44    0.16
  -3 -10  11    0.42    0.12
  -3  10  11    0.46    0.11
   3  10 -11    0.55    0.13
   2 -10 -11    0.48    0.11
  -2 -10  11    0.31    0.11
   2 -10 -11    0.24    0.14
  -2  10  11    0.14    0.10
   2  10 -11    0.33    0.12
   1 -10 -11    1.70    0.19
  -1 -10  11    1.59    0.21
   1 -10 -11    1.71    0.21
  -1 -10  11    1.04    0.19
   1  10 -11    1.46    0.21
  -1  10  11    1.63    0.19
  -1  10  11    1.98    0.28
   0 -10  11   -0.12    0.10
   0 -10 -11    0.22    0.12
   0  10  11    0.08    0.13
   0  10 -11   -0.02    0.10
   0  10  11   -0.04    0.09
   0  10 -11   -0.06    0.10
  -1 -10 -11    0.62    0.15
   1 -10  11    0.65    0.17
   1  10  11    0.63    0.13
  -1  10 -11    0.88    0.14
  -1  10 -11    0.83    0.15
  -2  10 -11   -0.02    0.11
   2  10  11    0.07    0.11
  -2  10 -11    0.17    0.11
  -3 -10 -11    0.69    0.15
  -3  10 -11    0.54    0.14
   3  10  11    0.78    0.14
  -3  10 -11    0.85    0.15
  -4  10 -11    0.45    0.14
   4  10  11    0.12    0.12
  -4  10 -11    0.38    0.12
   9 -11 -11    0.39    0.12
  -9 -11  11    0.68    0.13
  -9  11  11    0.25    0.09
   8 -11 -11    0.17    0.11
  -8 -11  11    0.21    0.12
   8  11 -11    0.22    0.11
  -8  11  11    0.38    0.10
   7 -11 -11    0.17    0.19
  -7 -11  11    0.56    0.14
   7 -11 -11    0.51    0.12
   7  11 -11    0.27    0.14
  -7  11  11    0.42    0.10
  -6 -11  11    0.06    0.11
   6 -11 -11   -0.04    0.17
   6 -11 -11    0.20    0.11
   6  11 -11    0.16    0.12
  -6  11  11    0.23    0.09
   5 -11 -11    0.38    0.12
   5 -11 -11   -0.10    0.16
  -5 -11  11    0.38    0.12
   5  11 -11    0.60    0.14
  -5  11  11    0.23    0.10
  -4 -11  11    0.09    0.11
   4 -11 -11    0.13    0.11
  -4  11  11    0.03    0.09
   4  11 -11    0.07    0.12
  -3 -11  11    0.17    0.12
   3 -11 -11    0.30    0.12
   3 -11 -11    0.63    0.13
  -3  11  11    0.25    0.10
   3  11 -11    0.26    0.12
  -2 -11  11    0.63    0.14
   2 -11 -11    0.77    0.13
   2 -11 -11    0.89    0.15
   2  11 -11    0.70    0.14
  -2  11  11    0.73    0.12
   1 -11 -11    0.88    0.15
  -1 -11  11    0.98    0.15
   1  11 -11    0.67    0.14
   1  11 -11    0.55    0.13
  -1  11  11    0.43    0.12
   0 -11  11    0.07    0.11
   0  11  11    0.18    0.11
   0  11 -11    0.13    0.11
   0  11 -11    0.04    0.10
   1  11  11    0.66    0.14
  -1  11 -11    1.06    0.16
  -1  11 -11    1.20    0.17
  -2  11 -11    0.60    0.14
   2  11  11    0.44    0.13
  -2  11 -11    0.63    0.14
  -3  11 -11    0.09    0.12
   3  11  11    0.12    0.11
  -3  11 -11    0.12    0.11
   8  12 -11    3.78    0.35
  -7 -12  11    0.26    0.11
   7 -12 -11    0.21    0.11
   7  12 -11   -0.12    0.11
  -7  12  11    0.09    0.09
   6 -12 -11    3.96    0.32
  -6 -12  11    3.71    0.35
   6  12 -11    4.42    0.35
  -6  12  11    3.50    0.30
   5 -12 -11    0.07    0.11
   5 -12 -11   -0.03    0.11
  -5 -12  11    0.12    0.10
   5  12 -11    0.14    0.11
  -4 -12  11    0.93    0.16
   4 -12 -11    0.87    0.15
   4 -12 -11    1.38    0.19
  -4  12  11    0.80    0.12
   4  12 -11    0.83    0.16
   3 -12 -11    0.18    0.11
   3 -12 -11    0.14    0.10
  -3 -12  11   -0.01    0.11
   3  12 -11   -0.09    0.11
  -3  12  11   -0.05    0.09
  -2 -12  11    1.95    0.24
   2 -12 -11    2.19    0.22
  -2  12  11    2.18    0.22
   2  12 -11    1.79    0.24
  -1 -12  11   -0.15    0.10
   1  12 -11   -0.05    0.11
   1  12 -11   -0.07    0.11
  -1  12  11   -0.10    0.10
   0 -12  11    0.83    0.15
   0  12 -11    0.68    0.15
   0  12 -11    0.84    0.15
   0  12  11    0.67    0.13
   1  12  11    0.15    0.11
  -1  12 -11    0.06    0.11
  -1  12 -11    0.09    0.11
   2  12  11    1.25    0.17
  -4 -13  11    0.08    0.10
   4 -13 -11    0.22    0.11
  -4  13  11   -0.22    0.09
   4  13 -11   -0.13    0.11
  -3 -13  11    0.37    0.12
   3 -13 -11    0.65    0.14
   3  13 -11    0.35    0.13
  -3  13  11    0.38    0.11
  -2 -13  11    0.10    0.12
   2 -13 -11    0.18    0.12
  -2  13  11    0.22    0.10
   2  13 -11    0.08    0.11
  -1 -13  11    0.22    0.12
  -1  13  11    0.24    0.10
   1  13 -11    0.11    0.12
 -13   0  12    0.13    0.08
 -13   0  12    0.17    0.10
  12   0 -12    3.83    0.38
 -12   0  12    3.99    0.31
 -12   0  12    4.22    0.36
  11   0 -12   -0.08    0.13
 -11   0  12    0.01    0.07
  11   0 -12    0.07    0.10
 -11   0  12    0.04    0.10
 -10   0  12    5.55    0.47
 -10   0  12    5.63    0.41
  10   0 -12    5.81    0.50
  10   0 -12    6.12    0.42
   9   0 -12    0.01    0.09
   9   0 -12   -0.06    0.15
  -9   0  12    0.02    0.10
  -9   0  12    0.13    0.08
  -9   0  12    0.13    0.10
  -8   0  12   22.13    1.46
  -8   0  12   21.80    1.65
   8   0 -12   21.25    1.64
  -8   0  12   26.16    1.53
   7   0 -12    0.47    0.16
  -6   0  12   14.61    0.98
  -6   0  12   14.25    1.11
  -6   0  12   17.69    1.04
   6   0 -12   14.43    1.11
  -5   0  12    0.13    0.11
  -5   0  12    0.19    0.08
   5   0 -12    0.11    0.12
  -5   0  12    0.14    0.10
  -5   0  12   -0.03    0.11
  -4   0  12   39.25    2.28
  -4   0  12   33.40    2.18
  -4   0  12   30.58    2.46
   4   0 -12   34.35    2.44
  -4   0  12   35.09    2.56
  -3   0  12    0.24    0.09
   3   0 -12    0.41    0.12
  -3   0  12    0.16    0.11
  -3   0  12    0.47    0.12
  -3   0  12    0.34    0.11
   2   0 -12   21.67    1.47
  -2   0  12   19.52    1.48
  -2   0  12   21.37    1.32
  -2   0  12   19.55    1.54
   1   0 -12    0.05    0.10
  -1   0  12   -0.12    0.11
  -1   0  12    0.12    0.08
  -1   0  12   -0.01    0.10
  -1   0  12   -0.03    0.08
   0   0 -12    3.17    0.31
   0   0  12    3.21    0.28
   0   0 -12    3.70    0.29
   0   0  12    3.70    0.34
   1   0  12   -0.08    0.09
  -1   0 -12   -0.03    0.09
   1   0  12   -0.07    0.11
  -1   0 -12    0.01    0.08
   2   0  12   10.30    0.79
  -2   0 -12    9.33    0.73
  -2   0 -12   10.90    0.70
   2   0  12    8.98    0.67
   3   0  12    0.09    0.12
  -4   0 -12    5.09    0.44
   4   0  12    5.14    0.49
  -4   0 -12    5.81    0.42
  -5   0 -12    0.01    0.10
  -5   0 -12    0.10    0.10
   5   0  12   -0.09    0.15
  -6   0 -12    0.77    0.14
  -6   0 -12    0.61    0.13
   6   0  12    0.25    0.17
   7   0  12   -0.25    0.15
  -7   0 -12   -0.04    0.10
 -13  -1  12    0.47    0.12
 -13  -1  12    0.42    0.10
 -13   1  12    0.49    0.10
 -13   1  12    0.46    0.11
 -12  -1  12    0.15    0.10
 -12  -1  12    0.10    0.08
  12  -1 -12   -0.10    0.13
 -12   1  12    0.17    0.10
 -12   1  12    0.11    0.09
  12   1 -12   -0.29    0.13
  11  -1 -12    0.94    0.13
 -11  -1  12    0.74    0.15
 -11  -1  12    1.05    0.15
  11  -1 -12    0.76    0.19
 -11   1  12    0.86    0.12
  11   1 -12    0.89    0.18
 -11   1  12    0.92    0.15
 -10  -1  12    0.10    0.10
  10  -1 -12    0.18    0.15
  10  -1 -12    0.41    0.11
 -10  -1  12    0.08    0.11
 -10  -1  12    0.04    0.07
  10   1 -12    0.11    0.09
 -10   1  12    0.38    0.11
 -10   1  12    0.34    0.09
  10   1 -12   -0.08    0.15
  -9  -1  12    3.14    0.26
  -9  -1  12    2.57    0.22
   9  -1 -12    2.47    0.32
  -9  -1  12    2.77    0.28
   9  -1 -12    2.52    0.24
   9   1 -12    2.34    0.30
   9   1 -12    2.56    0.24
  -9   1  12    2.55    0.23
  -9   1  12    2.41    0.27
  -8  -1  12    0.77    0.16
  -8  -1  12    1.45    0.21
  -8  -1  12    1.20    0.15
   8   1 -12    0.91    0.19
  -7  -1  12   10.16    0.70
  -7  -1  12    9.39    0.79
   7  -1 -12   10.24    0.81
  -7  -1  12   12.50    0.75
  -7   1  12   10.31    0.79
  -7   1  12   10.79    0.70
   7   1 -12   10.71    0.80
   6  -1 -12    3.07    0.29
  -6  -1  12    1.98    0.19
  -6  -1  12    1.75    0.25
  -5  -1  12    2.71    0.22
  -5  -1  12    3.05    0.27
   5  -1 -12    2.59    0.30
  -5  -1  12    2.45    0.27
  -5  -1  12    2.73    0.29
  -5   1  12    2.53    0.23
   5   1 -12    2.58    0.28
  -5   1  12    2.82    0.29
  -5   1  12    2.65    0.28
  -5   1  12    2.50    0.27
  -4  -1  12    6.31    0.42
  -4  -1  12    6.70    0.51
  -4  -1  12    5.23    0.47
  -4  -1  12    6.16    0.49
   4   1 -12    6.13    0.48
  -3  -1  12    5.76    0.48
   3  -1 -12    5.31    0.48
  -3  -1  12    5.88    0.50
  -3  -1  12    5.88    0.42
  -3  -1  12    7.06    0.46
   3   1 -12    6.27    0.47
  -3   1  12    5.42    0.50
  -3   1  12    5.98    0.43
  -3   1  12    6.75    0.46
  -2  -1  12    3.13    0.32
  -2  -1  12    4.14    0.28
  -2  -1  12    3.49    0.34
  -2  -1  12    3.27    0.34
   2   1 -12    3.86    0.32
  -1  -1  12    1.32    0.22
  -1  -1  12    1.39    0.18
  -1  -1  12    1.67    0.18
   1  -1 -12    1.27    0.19
  -1  -1  12    1.21    0.17
  -1   1  12    1.28    0.22
  -1   1  12    1.34    0.18
   1   1 -12    1.28    0.18
  -1   1  12    1.22    0.17
   0  -1 -12    1.45    0.19
   0  -1  12    0.85    0.12
   0  -1  12    0.83    0.15
   0   1 -12    1.20    0.17
   0   1  12    0.90    0.16
   0   1 -12    1.02    0.15
   0   1  12    1.30    0.17
   0   1  12    1.50    0.22
  -1  -1 -12    0.16    0.11
  -1  -1 -12    0.15    0.09
   1  -1  12    0.12    0.12
   1  -1  12    0.08    0.09
   1   1  12    0.05    0.10
   1   1  12    0.24    0.12
  -1   1 -12    0.12    0.10
  -1   1 -12    0.11    0.10
   2  -1  12    4.12    0.43
  -2   1 -12    4.20    0.38
  -2   1 -12    4.97    0.38
   2   1  12    5.46    0.37
  -3  -1 -12    3.65    0.33
  -3  -1 -12    3.65    0.33
   3   1  12    3.99    0.38
   3   1  12    3.65    0.33
  -4  -1 -12    3.71    0.30
   4  -1  12    2.47    0.35
  -4   1 -12    3.43    0.30
  -4   1 -12    2.93    0.29
   4   1  12    3.50    0.35
   4   1  12    2.58    0.30
  -5  -1 -12   -0.02    0.10
   5  -1  12   -0.16    0.15
  -5  -1 -12    0.23    0.10
   5   1  12    0.07    0.15
  -5   1 -12   -0.01    0.10
  -5   1 -12    0.11    0.10
   6  -1  12    0.12    0.17
  -6  -1 -12    0.47    0.13
  -6  -1 -12    0.58    0.13
  -6   1 -12    0.34    0.12
   6   1  12    0.53    0.16
  -6   1 -12    0.27    0.11
  -7  -1 -12    0.16    0.11
  -7   1 -12    0.32    0.10
   7   1  12    0.41    0.16
 -13  -2  12    0.14    0.08
 -13  -2  12    0.09    0.10
 -13   2  12    0.09    0.07
 -13   2  12   -0.12    0.09
 -12  -2  12   -0.01    0.07
  12  -2 -12   -0.18    0.14
 -12  -2  12    0.10    0.10
 -12   2  12    0.02    0.08
 -12   2  12    0.15    0.10
  11  -2 -12    0.19    0.10
 -11  -2  12    0.13    0.09
 -11  -2  12    0.09    0.07
 -11  -2  12    0.09    0.10
  11  -2 -12   -0.14    0.14
 -11   2  12    0.12    0.10
 -11   2  12    0.04    0.08
 -10  -2  12    0.03    0.10
  10  -2 -12    0.07    0.10
  10  -2 -12   -0.13    0.15
 -10  -2  12    0.03    0.07
 -10  -2  12   -0.02    0.11
  10   2 -12   -0.02    0.09
 -10   2  12   -0.06    0.08
 -10   2  12    0.08    0.10
  -9  -2  12    0.57    0.12
   9  -2 -12    0.40    0.19
   9  -2 -12    0.56    0.12
  -9  -2  12    0.55    0.09
  -9  -2  12    0.52    0.13
   9   2 -12    0.54    0.16
  -9   2  12    0.39    0.12
  -9   2  12    0.77    0.11
   8  -2 -12    2.29    0.22
   8  -2 -12    2.19    0.30
  -8  -2  12    1.94    0.19
  -8  -2  12    2.88    0.26
  -8  -2  12    2.41    0.25
  -8   2  12    2.16    0.26
   8   2 -12    1.82    0.27
  -8   2  12    2.05    0.21
   7  -2 -12    3.75    0.39
   7  -2 -12    4.40    0.32
  -7  -2  12    4.01    0.37
  -7  -2  12    3.34    0.34
  -7  -2  12    4.00    0.30
  -7   2  12    4.77    0.37
  -7   2  12    4.38    0.32
   7   2 -12    3.69    0.37
  -6  -2  12    0.11    0.10
   6  -2 -12    0.21    0.08
   6  -2 -12    0.21    0.15
  -6  -2  12    0.10    0.07
  -6  -2  12    0.27    0.12
   6   2 -12    0.10    0.12
  -6   2  12    0.13    0.11
  -6   2  12    0.14    0.09
  -5  -2  12    0.57    0.09
   5  -2 -12    0.53    0.16
  -5  -2  12    0.58    0.13
  -5  -2  12    0.57    0.12
  -5  -2  12    0.68    0.12
  -5   2  12    0.58    0.10
   5   2 -12    0.41    0.12
  -5   2  12    0.56    0.13
  -5   2  12    0.59    0.12
  -4  -2  12    0.09    0.09
   4  -2 -12    0.24    0.14
  -4   2  12    0.38    0.11
  -4   2  12    0.23    0.09
   3  -2 -12    3.27    0.31
  -3  -2  12    2.81    0.30
  -3  -2  12    2.67    0.27
  -3  -2  12    2.57    0.30
  -3   2  12    3.83    0.31
   3   2 -12    2.91    0.28
  -3   2  12    3.23    0.29
  -3   2  12    3.39    0.26
  -2  -2  12    0.70    0.12
   2  -2 -12    0.78    0.15
   2   2 -12    1.15    0.16
  -2   2  12    0.72    0.12
  -2   2  12    1.25    0.20
  -2   2  12    0.58    0.13
  -1  -2  12    1.82    0.26
  -1  -2  12    2.19    0.22
   1  -2 -12    2.16    0.24
  -1  -2  12    2.03    0.27
  -1   2  12    2.29    0.26
   1   2 -12    2.25    0.21
  -1   2  12    2.02    0.24
  -1   2  12    2.39    0.22
   1   2 -12    2.22    0.23
   0  -2  12    0.08    0.11
   0  -2 -12   -0.03    0.10
   0   2  12    0.06    0.09
   0   2  12   -0.06    0.10
   0   2 -12    0.05    0.09
   0   2  12    0.03    0.11
   0   2 -12    0.05    0.08
   1  -2  12    0.18    0.13
  -1  -2 -12    0.31    0.09
  -1  -2 -12    0.29    0.11
   1   2  12    0.31    0.12
   1   2  12    0.26    0.11
  -1   2 -12    0.31    0.10
  -1   2 -12    0.36    0.11
  -2  -2 -12    0.30    0.11
   2  -2  12    0.32    0.14
   2   2  12    0.28    0.12
  -2   2 -12    0.28    0.11
  -2   2 -12    0.24    0.10
  -3  -2 -12   10.55    0.69
  -3  -2 -12    9.04    0.72
   3  -2  12    9.04    0.77
   3   2  12    9.21    0.77
  -3   2 -12    9.54    0.72
  -3   2 -12   10.64    0.69
   3   2  12    9.41    0.67
  -4  -2 -12    0.25    0.11
   4  -2  12   -0.02    0.15
  -4   2 -12    0.15    0.11
  -4   2 -12    0.14    0.09
   4   2  12   -0.03    0.13
   4   2  12    0.19    0.15
   5  -2  12   -0.04    0.15
  -5  -2 -12    0.43    0.12
  -5  -2 -12    0.10    0.11
   5   2  12    0.06    0.16
  -5   2 -12    0.27    0.11
  -5   2 -12    0.30    0.10
   5   2  12   -0.16    0.14
   6  -2  12   -0.14    0.14
  -6  -2 -12   -0.06    0.10
  -6  -2 -12    0.25    0.11
   6   2  12    0.02    0.15
  -6   2 -12    0.00    0.09
  -6   2 -12   -0.06    0.10
   7  -2  12    1.35    0.22
   7   2  12    1.22    0.20
  -7   2 -12    1.52    0.19
 -13  -3  12    1.92    0.23
 -13   3  12    2.01    0.20
 -13   3  12    1.81    0.23
 -12  -3  12    0.09    0.10
 -12  -3  12    0.11    0.08
  12  -3 -12    0.16    0.09
  12  -3 -12   -0.20    0.14
 -12   3  12    0.04    0.08
 -12   3  12    0.25    0.10
  11  -3 -12    4.02    0.31
 -11  -3  12    3.77    0.35
 -11  -3  12    3.85    0.32
  11  -3 -12    3.76    0.38
 -11   3  12    3.89    0.35
 -11   3  12    4.06    0.31
  10  -3 -12   -0.04    0.16
  10  -3 -12    0.03    0.10
 -10  -3  12    0.20    0.10
 -10  -3  12   -0.13    0.11
 -10   3  12    0.04    0.08
 -10   3  12    0.01    0.10
   9  -3 -12    4.67    0.34
   9  -3 -12    4.18    0.42
  -9  -3  12    4.53    0.36
  -9  -3  12    3.93    0.38
  -9   3  12    3.94    0.33
  -9   3  12    4.83    0.38
   8  -3 -12    0.19    0.17
  -8  -3  12    0.11    0.12
  -8  -3  12    0.03    0.10
   8  -3 -12    0.13    0.09
  -8   3  12    0.11    0.11
  -8   3  12    0.09    0.08
  -7  -3  12   14.35    1.11
  -7  -3  12   16.86    1.02
   7  -3 -12   15.12    0.97
   7  -3 -12   13.45    1.11
  -7   3  12   14.69    0.98
  -7   3  12   15.54    1.10
  -6  -3  12    0.11    0.09
   6  -3 -12    0.11    0.16
  -6  -3  12    0.04    0.12
   6  -3 -12    0.20    0.08
  -6   3  12    0.08    0.08
  -6   3  12    0.12    0.11
   5  -3 -12    6.05    0.40
  -5  -3  12    6.11    0.43
   5  -3 -12    5.25    0.48
  -5  -3  12    5.62    0.47
  -5  -3  12    5.23    0.46
  -5   3  12    6.10    0.41
   5   3 -12    5.43    0.44
  -5   3  12    5.79    0.48
  -5   3  12    5.04    0.45
  -4  -3  12    1.38    0.18
  -4  -3  12    1.34    0.21
   4  -3 -12    1.56    0.21
   4  -3 -12    1.51    0.16
  -4  -3  12    1.18    0.16
   4   3 -12    1.52    0.18
  -4   3  12    1.41    0.23
  -4   3  12    1.23    0.20
  -4   3  12    1.46    0.18
  -3  -3  12    4.52    0.40
  -3  -3  12    4.82    0.36
   3  -3 -12    4.55    0.41
  -3  -3  12    4.76    0.40
  -3   3  12    4.54    0.41
  -3   3  12    5.14    0.35
   3   3 -12    4.41    0.37
  -3   3  12    4.59    0.39
  -2  -3  12    0.08    0.08
   2  -3 -12   -0.02    0.12
  -2  -3  12   -0.01    0.12
  -2  -3  12    0.02    0.10
   2   3 -12    0.16    0.07
   2   3 -12    0.01    0.09
  -2   3  12    0.05    0.10
  -2   3  12    0.12    0.11
  -2   3  12    0.20    0.09
  -1  -3  12    3.82    0.36
  -1  -3  12    3.68    0.30
  -1  -3  12    3.53    0.35
   1  -3 -12    3.49    0.33
  -1   3  12    4.19    0.30
   1   3 -12    3.79    0.32
  -1   3  12    3.47    0.33
   1   3 -12    4.07    0.30
  -1   3  12    3.75    0.35
   0  -3 -12    0.05    0.10
   0  -3  12    0.02    0.11
   0   3  12   -0.01    0.11
   0   3 -12    0.23    0.09
   0   3  12    0.10    0.11
   0   3  12    0.22    0.10
   0   3 -12    0.17    0.09
  -1  -3 -12    0.69    0.13
   1  -3  12    0.56    0.14
  -1   3 -12    0.73    0.13
   1   3  12    0.55    0.14
   1   3  12    0.73    0.13
   1   3  12    0.70    0.14
  -1   3 -12    0.59    0.12
  -2  -3 -12    1.30    0.19
  -2  -3 -12    1.07    0.17
   2  -3  12    1.01    0.18
  -2   3 -12    1.24    0.18
   2   3  12    0.93    0.16
  -2   3 -12    1.37    0.20
   2   3  12    1.07    0.16
   3  -3  12    4.50    0.47
  -3  -3 -12    4.37    0.41
  -3  -3 -12    5.73    0.41
  -3   3 -12    5.16    0.41
  -3   3 -12    5.28    0.42
   3   3  12    5.90    0.46
   3   3  12    4.82    0.41
  -4  -3 -12    1.08    0.17
  -4  -3 -12    0.57    0.14
   4  -3  12    0.79    0.18
   4   3  12    0.85    0.18
   4   3  12    0.90    0.17
  -4   3 -12    1.24    0.19
  -4   3 -12    1.44    0.19
  -5  -3 -12    0.35    0.12
   5  -3  12    0.16    0.16
   5   3  12    0.01    0.15
  -5   3 -12    0.32    0.11
   5   3  12    0.29    0.16
  -5   3 -12    0.50    0.13
   6  -3  12    0.19    0.14
  -6   3 -12    0.27    0.11
  -6   3 -12    0.23    0.11
   6   3  12   -0.06    0.15
   7  -3  12    0.54    0.16
  -7   3 -12    0.46    0.13
   7   3  12    0.28    0.17
 -13  -4  12    0.03    0.10
 -13   4  12    0.13    0.11
 -13   4  12   -0.01    0.08
 -12  -4  12    1.81    0.21
  12  -4 -12    2.24    0.21
  12  -4 -12    1.71    0.27
 -12  -4  12    2.12    0.24
 -12   4  12    2.00    0.24
 -12   4  12    1.88    0.19
 -11  -4  12    0.23    0.11
  11  -4 -12    0.12    0.10
  11  -4 -12    0.18    0.16
 -11  -4  12    0.19    0.10
 -11   4  12    0.31    0.09
 -11   4  12    0.35    0.12
 -10  -4  12    1.22    0.17
 -10  -4  12    0.56    0.14
  10  -4 -12    0.78    0.21
  10  -4 -12    0.95    0.14
 -10   4  12    0.83    0.14
 -10   4  12    0.76    0.12
  -9  -4  12    0.06    0.10
   9  -4 -12    0.12    0.10
  -9  -4  12   -0.05    0.12
   9  -4 -12    0.11    0.18
  -9   4  12    0.15    0.09
  -9   4  12   -0.04    0.10
  -8  -4  12   12.11    0.91
   8  -4 -12   12.45    0.80
   8  -4 -12   10.34    0.92
  -8  -4  12   12.88    0.84
  -8   4  12   12.32    0.81
  -8   4  12   12.73    0.90
  -7  -4  12    0.25    0.10
  -7  -4  12    0.45    0.13
   7  -4 -12    0.23    0.18
   7  -4 -12    0.26    0.10
  -7   4  12    0.20    0.09
  -7   4  12    0.43    0.11
  -6  -4  12    6.49    0.52
   6  -4 -12    5.23    0.54
  -6  -4  12    6.88    0.48
   6  -4 -12    7.32    0.45
  -6   4  12    6.03    0.45
  -6   4  12    6.33    0.51
   5  -4 -12    0.83    0.19
   5  -4 -12    0.70    0.11
  -5  -4  12    0.68    0.14
  -5  -4  12    0.68    0.12
  -5   4  12    0.76    0.14
  -5   4  12    0.84    0.13
  -5   4  12    0.70    0.11
  -4  -4  12    4.67    0.37
   4  -4 -12    5.03    0.35
  -4  -4  12    4.63    0.40
   4  -4 -12    4.40    0.42
  -4   4  12    4.58    0.35
  -4   4  12    4.76    0.39
  -4   4  12    4.77    0.42
  -3  -4  12    0.64    0.14
   3  -4 -12    0.56    0.10
  -3  -4  12    0.57    0.11
   3  -4 -12    0.61    0.15
  -3   4  12    0.47    0.12
  -3   4  12    0.59    0.12
   3   4 -12    0.54    0.10
  -3   4  12    0.83    0.12
   2  -4 -12    2.64    0.29
   2  -4 -12    3.09    0.24
  -2  -4  12    2.82    0.25
  -2  -4  12    2.77    0.31
  -2  -4  12    2.88    0.29
  -2   4  12    3.03    0.25
   2   4 -12    2.82    0.25
  -2   4  12    2.67    0.28
  -2   4  12    2.72    0.30
   1  -4 -12    0.92    0.12
  -1  -4  12    0.88    0.17
  -1  -4  12    0.87    0.12
   1  -4 -12    0.91    0.15
  -1  -4  12    0.63    0.13
  -1   4  12    0.97    0.14
  -1   4  12    1.18    0.16
   1   4 -12    0.99    0.12
  -1   4  12    0.90    0.14
   0  -4 -12    0.73    0.11
   0  -4 -12    0.64    0.13
   0  -4  12    0.60    0.13
   0   4  12    0.56    0.13
   0   4  12    0.73    0.12
   0   4  12    0.78    0.14
   0   4 -12    0.62    0.11
   1  -4  12    0.32    0.13
  -1  -4 -12    0.52    0.12
   1   4  12    0.39    0.13
  -1   4 -12    0.55    0.12
  -1   4 -12    0.67    0.11
   1   4  12    0.56    0.12
   2  -4  12    3.39    0.35
  -2  -4 -12    2.91    0.30
   2   4  12    3.04    0.33
  -2   4 -12    3.14    0.30
   2   4  12    3.15    0.29
  -2   4 -12    3.63    0.30
  -3  -4 -12    0.82    0.15
   3  -4  12    0.75    0.16
  -3   4 -12    0.90    0.14
   3   4  12    0.83    0.16
   3   4  12    0.71    0.16
  -3   4 -12    0.75    0.14
  -4  -4 -12    2.21    0.24
   4  -4  12    1.71    0.30
   4   4  12    1.94    0.28
   4   4  12    2.37    0.28
  -4   4 -12    2.57    0.25
  -4   4 -12    2.54    0.24
   5  -4  12    0.38    0.15
  -5  -4 -12    0.47    0.13
   5   4  12    0.27    0.16
  -5   4 -12    0.70    0.14
  -5   4 -12    0.68    0.13
   5   4  12    0.36    0.16
   6  -4  12    0.10    0.14
   6   4  12   -0.29    0.14
  -6   4 -12   -0.01    0.11
   6   4  12   -0.34    0.14
 -13   5  12    0.32    0.12
 -13   5  12    0.10    0.08
  12  -5 -12    0.04    0.09
 -12  -5  12    0.00    0.10
 -12  -5  12    0.11    0.09
 -12   5  12    0.04    0.10
 -12   5  12    0.02    0.07
 -11  -5  12    0.30    0.12
 -11  -5  12    0.30    0.11
  11  -5 -12    0.47    0.12
  11  -5 -12    0.18    0.18
 -11   5  12    0.33    0.09
 -11   5  12    0.53    0.12
 -10  -5  12   -0.08    0.09
 -10  -5  12   -0.17    0.11
  10  -5 -12   -0.20    0.16
  10  -5 -12   -0.13    0.09
 -10   5  12    0.04    0.09
 -10   5  12   -0.05    0.08
   9  -5 -12   -0.08    0.09
  -9  -5  12    0.01    0.09
  -9  -5  12   -0.06    0.11
   9  -5 -12   -0.10    0.17
  -9   5  12   -0.04    0.08
  -9   5  12    0.01    0.10
   8  -5 -12    1.69    0.28
  -8  -5  12    1.59    0.21
  -8  -5  12    1.95    0.25
   8  -5 -12    1.69    0.21
  -8   5  12    1.90    0.19
  -8   5  12    1.75    0.24
  -7  -5  12    4.81    0.37
   7  -5 -12    3.93    0.42
  -7  -5  12    4.54    0.40
   7  -5 -12    4.55    0.35
  -7   5  12    4.59    0.39
  -7   5  12    4.21    0.34
   6  -5 -12    1.70    0.19
  -6  -5  12    1.68    0.21
  -6  -5  12    1.95    0.25
   6  -5 -12    1.47    0.23
  -6   5  12    1.59    0.23
  -6   5  12    1.67    0.19
   5  -5 -12    0.20    0.16
  -5  -5  12    0.04    0.09
   5  -5 -12   -0.04    0.08
  -5  -5  12   -0.11    0.12
  -5   5  12   -0.19    0.10
  -5   5  12   -0.11    0.08
  -4  -5  12    0.66    0.15
  -4  -5  12    0.71    0.12
   4  -5 -12    0.75    0.17
   4  -5 -12    0.88    0.12
  -4   5  12    0.84    0.14
   4   5 -12    0.80    0.12
  -4   5  12    1.13    0.18
  -4   5  12    0.82    0.12
  -3  -5  12    0.13    0.09
  -3  -5  12    0.13    0.12
   3  -5 -12    0.16    0.09
   3  -5 -12    0.10    0.14
  -3   5  12    0.00    0.08
  -3   5  12    0.10    0.11
   3   5 -12    0.07    0.08
   2  -5 -12    1.80    0.19
  -2  -5  12    1.85    0.26
  -2  -5  12    1.95    0.21
   2  -5 -12    1.59    0.24
   2   5 -12    2.09    0.21
  -2   5  12    1.95    0.25
  -2   5  12    2.02    0.20
  -1  -5  12    0.03    0.08
   1  -5 -12    0.04    0.12
  -1  -5  12    0.05    0.13
   1  -5 -12   -0.09    0.08
   1   5 -12   -0.02    0.08
  -1   5  12   -0.02    0.10
  -1   5  12    0.02    0.09
   0  -5 -12    1.20    0.15
   0  -5 -12    1.11    0.16
   0   5  12    1.37    0.18
   0   5  12    1.09    0.16
   0   5 -12    1.23    0.17
  -1  -5 -12    0.20    0.11
   1  -5  12    0.08    0.12
   1   5  12    0.25    0.11
   1   5  12    0.19    0.12
  -1   5 -12    0.16    0.10
  -2  -5 -12    3.02    0.31
   2  -5  12    3.09    0.35
   2   5  12    3.62    0.30
   2   5  12    3.40    0.33
  -2   5 -12    3.61    0.30
  -3  -5 -12    0.04    0.11
   3  -5  12    0.12    0.13
   3   5  12    0.00    0.12
  -3   5 -12    0.10    0.11
   3   5  12    0.09    0.12
  -4  -5 -12    3.27    0.30
   4  -5  12    2.53    0.36
   4   5  12    3.27    0.34
  -4   5 -12    3.95    0.31
   4   5  12    3.72    0.33
  -5  -5 -12    0.11    0.11
   5  -5  12   -0.04    0.15
   5   5  12    0.03    0.14
   5   5  12    0.06    0.13
  -5   5 -12    0.31    0.12
   6  -5  12    0.09    0.13
  -6   5 -12    0.05    0.11
   6   5  12   -0.06    0.13
   6   5  12   -0.05    0.13
 -12  -6  12    0.46    0.11
  12  -6 -12    0.45    0.11
 -12  -6  12    0.19    0.11
 -12   6  12    0.21    0.09
  11  -6 -12   -0.33    0.16
 -11  -6  12    0.04    0.09
 -11  -6  12   -0.06    0.10
  11  -6 -12    0.06    0.10
 -11   6  12    0.00    0.07
  10  -6 -12    0.08    0.09
 -10  -6  12   -0.04    0.12
 -10  -6  12    0.13    0.10
  10  -6 -12   -0.28    0.17
 -10   6  12    0.09    0.08
  -9  -6  12    0.15    0.10
   9  -6 -12    0.09    0.17
   9  -6 -12   -0.08    0.10
  -9  -6  12    0.06    0.12
  -9   6  12    0.06    0.08
   8  -6 -12    6.35    0.57
  -8  -6  12    7.24    0.55
  -8  -6  12    7.19    0.51
   8  -6 -12    6.37    0.48
  -8   6  12    6.93    0.48
   7  -6 -12    2.19    0.31
   7  -6 -12    2.44    0.24
  -7  -6  12    2.66    0.29
  -7  -6  12    2.37    0.25
  -7   6  12    2.35    0.23
  -6  -6  12    2.44    0.24
   6  -6 -12    2.61    0.23
   6  -6 -12    1.82    0.29
  -6  -6  12    2.20    0.28
  -6   6  12    2.22    0.22
   5  -6 -12    0.88    0.13
  -5  -6  12    0.71    0.16
   5  -6 -12    0.77    0.19
  -5  -6  12    0.67    0.13
  -5   6  12    0.85    0.12
   5   6 -12    0.77    0.12
  -4  -6  12    0.24    0.13
  -4  -6  12    0.28    0.10
   4  -6 -12    0.24    0.15
   4  -6 -12    0.31    0.10
  -4   6  12    0.27    0.10
   4   6 -12    0.24    0.10
  -4   6  12    0.25    0.13
   3  -6 -12    0.79    0.17
   3  -6 -12    0.97    0.13
  -3  -6  12    0.91    0.13
  -3  -6  12    0.84    0.16
  -3   6  12    0.91    0.15
   3   6 -12    0.80    0.13
  -3   6  12    0.87    0.12
  -2  -6  12    3.07    0.27
   2  -6 -12    3.20    0.26
   2  -6 -12    2.82    0.29
  -2  -6  12    2.85    0.31
  -2   6  12    3.25    0.26
  -2   6  12    2.76    0.31
   2   6 -12    3.06    0.27
   1  -6 -12    0.76    0.12
  -1  -6  12    0.77    0.16
   1  -6 -12    0.64    0.15
  -1  -6  12    0.70    0.12
  -1   6  12    0.66    0.12
  -1   6  12    0.65    0.14
   1   6 -12    0.71    0.12
   0  -6 -12    1.33    0.20
   0  -6  12    1.50    0.21
   0   6  12    1.40    0.18
   0   6  12    1.38    0.23
   0   6 -12    1.29    0.19
  -1  -6 -12    0.19    0.11
   1   6  12    0.03    0.12
  -1   6 -12   -0.07    0.09
   1   6  12    0.06    0.10
  -2  -6 -12    1.07    0.17
   2   6  12    1.02    0.15
  -2   6 -12    0.99    0.15
   2   6  12    0.98    0.17
  -3  -6 -12    2.11    0.23
   3   6  12    1.63    0.26
  -3   6 -12    2.24    0.24
   3   6  12    2.19    0.25
  -4  -6 -12    0.50    0.12
  -4   6 -12    0.47    0.13
   4   6  12    0.30    0.14
   4   6  12    0.09    0.13
  -5   6 -12   -0.03    0.11
   5   6  12   -0.30    0.13
   5   6  12   -0.21    0.13
  -6   6 -12    0.03    0.12
  -6   6 -12    0.13    0.11
   6   6  12   -0.10    0.12
  12  -7 -12   -0.13    0.10
 -12  -7  12    0.12    0.10
 -12  -7  12    0.10    0.10
 -12   7  12    0.00    0.07
  11  -7 -12    0.56    0.12
 -11  -7  12    0.33    0.11
 -11  -7  12    0.22    0.12
 -11   7  12    0.38    0.09
 -10  -7  12   -0.01    0.11
  10  -7 -12    0.08    0.10
  10  -7 -12   -0.03    0.17
 -10  -7  12    0.01    0.09
 -10   7  12    0.08    0.08
  -9  -7  12    1.70    0.23
   9  -7 -12    1.79    0.21
  -9  -7  12    1.89    0.21
   9  -7 -12    1.51    0.27
  -9   7  12    1.62    0.19
   8  -7 -12    0.21    0.11
  -8  -7  12    0.45    0.12
  -8  -7  12    0.52    0.14
   8  -7 -12    0.12    0.19
  -8   7  12    0.34    0.10
  -7  -7  12   17.76    1.18
   7  -7 -12   15.77    1.28
  -7  -7  12   19.12    1.28
   7  -7 -12   19.42    1.13
  -7   7  12   14.92    1.13
  -6  -7  12    0.02    0.13
   6  -7 -12   -0.03    0.17
  -6  -7  12    0.04    0.10
   6  -7 -12    0.15    0.10
  -6   7  12   -0.07    0.08
  -5  -7  12    5.79    0.48
  -5  -7  12    5.93    0.45
   5  -7 -12    6.24    0.42
   5  -7 -12    4.66    0.48
   5   7 -12    6.21    0.44
  -5   7  12    5.69    0.42
  -4  -7  12   -0.16    0.10
  -4  -7  12   -0.09    0.13
   4  -7 -12    0.04    0.10
   4  -7 -12    0.10    0.16
  -4   7  12    0.20    0.11
   4   7 -12   -0.07    0.10
  -4   7  12   -0.03    0.09
  -3  -7  12    3.18    0.34
   3  -7 -12    2.90    0.32
  -3  -7  12    3.39    0.30
   3  -7 -12    3.81    0.28
   3   7 -12    3.38    0.29
  -3   7  12    3.41    0.34
  -3   7  12    3.32    0.28
  -2  -7  12   -0.06    0.14
  -2  -7  12    0.12    0.09
   2  -7 -12    0.13    0.13
   2  -7 -12    0.04    0.09
  -2   7  12   -0.02    0.12
  -2   7  12   -0.02    0.09
   2   7 -12    0.03    0.10
  -1  -7  12    3.26    0.28
   1  -7 -12    2.90    0.30
   1  -7 -12    3.38    0.27
  -1  -7  12    3.38    0.34
   1   7 -12    3.20    0.29
  -1   7  12    3.14    0.27
  -1   7  12    3.04    0.33
   0  -7  12    0.05    0.15
   0  -7 -12    0.03    0.12
   0   7  12    0.04    0.11
   0   7  12    0.00    0.10
   0   7 -12    0.06    0.10
  -1  -7 -12    1.38    0.19
  -1   7 -12    1.13    0.16
   1   7  12    1.11    0.15
   1   7  12    1.26    0.18
  -2  -7 -12    0.09    0.12
  -2   7 -12    0.18    0.11
   2   7  12    0.06    0.11
   2   7  12    0.05    0.13
  -3  -7 -12    3.50    0.32
   3   7  12    3.49    0.32
   3   7  12    3.39    0.36
  -3   7 -12    3.72    0.32
  -4  -7 -12    0.33    0.11
   4   7  12    0.09    0.13
  -4   7 -12    0.15    0.12
  -4   7 -12    0.17    0.11
   4   7  12   -0.10    0.14
  -5   7 -12    0.10    0.11
  -5   7 -12   -0.19    0.11
   5   7  12   -0.18    0.12
 -11  -8  12   -0.09    0.09
  11  -8 -12   -0.03    0.10
 -11   8  12    0.08    0.07
  10  -8 -12    0.01    0.10
 -10  -8  12   -0.07    0.09
 -10   8  12    0.05    0.08
   9  -8 -12   -0.39    0.17
   9  -8 -12   -0.01    0.10
  -9  -8  12    0.07    0.11
  -9  -8  12   -0.01    0.12
  -9   8  12    0.00    0.08
   8  -8 -12    4.72    0.36
  -8  -8  12    4.97    0.38
  -8  -8  12    4.77    0.41
   8  -8 -12    4.24    0.43
  -8   8  12    4.37    0.35
   7  -8 -12    0.50    0.19
  -7  -8  12    0.41    0.14
   7  -8 -12    0.30    0.12
  -7  -8  12    0.74    0.15
  -7   8  12    0.49    0.11
  -6  -8  12    4.65    0.37
   6  -8 -12    4.48    0.35
   6  -8 -12    3.96    0.42
  -6  -8  12    4.36    0.40
  -6   8  12    4.35    0.34
   6   8 -12    4.87    0.38
   5  -8 -12    0.62    0.20
   5  -8 -12    0.93    0.14
  -5  -8  12    0.78    0.15
  -5  -8  12    0.66    0.16
  -5   8  12    0.60    0.13
   5   8 -12    1.09    0.15
  -4  -8  12    0.54    0.16
   4  -8 -12    0.85    0.14
   4  -8 -12    0.70    0.16
  -4  -8  12    0.86    0.14
   4   8 -12    0.85    0.15
  -4   8  12    0.64    0.13
   3  -8 -12    0.72    0.13
  -3  -8  12    0.85    0.16
  -3  -8  12    0.86    0.14
   3  -8 -12    0.71    0.16
   3   8 -12    0.90    0.15
  -3   8  12    0.87    0.16
  -3   8  12    0.80    0.13
  -2  -8  12    0.67    0.12
   2  -8 -12    0.51    0.15
   2  -8 -12    0.60    0.13
  -2  -8  12    0.38    0.16
  -2   8  12    0.65    0.15
  -2   8  12    0.47    0.12
   2   8 -12    0.49    0.13
  -1  -8  12    1.38    0.18
   1  -8 -12    1.10    0.16
  -1  -8  12    0.97    0.18
  -1   8  12    1.06    0.18
  -1   8  12    0.83    0.14
   1   8 -12    1.18    0.16
   0  -8  12    0.35    0.16
   0  -8 -12    0.93    0.15
   0   8 -12    0.49    0.12
   0   8  12    0.37    0.12
   0   8  12    0.54    0.14
   1  -8  12    0.49    0.18
  -1  -8 -12    0.63    0.14
  -1   8 -12    0.67    0.13
   1   8  12    0.59    0.13
   1   8  12    0.57    0.15
  -2  -8 -12    0.93    0.15
   2   8  12    0.86    0.17
   2   8  12    0.77    0.14
  -2   8 -12    0.54    0.14
  -3  -8 -12    1.73    0.22
   3   8  12    1.91    0.23
   3   8  12    1.72    0.27
  -3   8 -12    2.24    0.24
   4   8  12    1.54    0.26
  -4   8 -12    1.82    0.22
  -4   8 -12    1.81    0.23
   5   8  12    0.43    0.13
  -5   8 -12   -0.10    0.11
 -10  -9  12   -0.09    0.09
  10  -9 -12   -0.08    0.10
 -10   9  12    0.08    0.08
  -9  -9  12    0.83    0.13
   9  -9 -12    0.56    0.13
  -9   9  12    0.68    0.11
  -8  -9  12    0.57    0.14
   8  -9 -12    0.57    0.13
   8  -9 -12    0.55    0.20
  -8   9  12    0.58    0.11
   7  -9 -12   -0.25    0.17
   7  -9 -12    0.15    0.10
  -7  -9  12    0.09    0.11
  -7   9  12    0.03    0.09
   6  -9 -12    1.08    0.19
  -6  -9  12    1.09    0.17
   6  -9 -12    1.17    0.16
  -6  -9  12    1.23    0.17
  -6   9  12    0.86    0.14
   6   9 -12    0.99    0.16
  -5  -9  12   -0.11    0.14
   5  -9 -12    0.59    0.12
   5  -9 -12    0.26    0.17
  -5  -9  12    0.33    0.12
   5   9 -12    0.34    0.13
  -5   9  12    0.26    0.10
   4  -9 -12    0.33    0.11
  -4  -9  12   -0.12    0.13
  -4  -9  12    0.25    0.11
   4  -9 -12    0.12    0.16
   4   9 -12    0.26    0.12
  -4   9  12    0.27    0.10
   3  -9 -12    0.48    0.17
  -3  -9  12    0.68    0.16
  -3  -9  12    0.70    0.13
   3  -9 -12    0.82    0.13
  -3   9  12    0.46    0.11
   3   9 -12    0.41    0.13
   2  -9 -12    0.70    0.15
  -2  -9  12    0.73    0.14
   2  -9 -12    0.82    0.13
  -2  -9  12    0.58    0.17
   2   9 -12    0.76    0.15
  -2   9  12    0.93    0.17
  -2   9  12    0.75    0.13
  -1  -9  12    0.56    0.16
  -1  -9  12    0.59    0.13
   1  -9 -12    0.57    0.13
   1   9 -12    0.58    0.14
  -1   9  12    0.64    0.15
  -1   9  12    0.45    0.12
   0  -9  12    0.90    0.19
   0  -9 -12    1.00    0.16
   0   9 -12    1.14    0.16
   0   9  12    0.86    0.14
   0   9  12    1.11    0.18
   1  -9  12   -0.01    0.15
  -1  -9 -12    0.07    0.12
  -1   9 -12    0.02    0.11
   1   9  12   -0.11    0.10
   1   9  12    0.27    0.13
   2   9  12    1.16    0.19
   2   9  12    1.17    0.16
  -2   9 -12    1.21    0.17
   3   9  12   -0.22    0.13
  -3   9 -12    0.12    0.11
   3   9  12    0.09    0.11
  -4   9 -12    2.74    0.26
   4   9  12    2.13    0.25
  -4   9 -12    2.18    0.26
   9 -10 -12   -0.10    0.10
  -9 -10  12    0.21    0.10
  -9  10  12    0.10    0.08
  -8 -10  12    3.38    0.30
   8 -10 -12    3.09    0.28
  -8  10  12    2.90    0.26
   7 -10 -12    0.24    0.11
   7 -10 -12    0.19    0.17
  -7 -10  12   -0.01    0.11
  -7  10  12    0.28    0.09
   6 -10 -12    4.31    0.42
  -6 -10  12    4.68    0.39
   6 -10 -12    4.73    0.36
   6  10 -12    4.80    0.39
  -6  10  12    4.62    0.36
   5 -10 -12    0.13    0.16
  -5 -10  12   -0.05    0.10
   5 -10 -12    0.30    0.11
  -5  10  12    0.25    0.09
   5  10 -12   -0.06    0.11
  -4 -10  12    1.68    0.23
   4 -10 -12    2.22    0.22
   4 -10 -12    2.19    0.24
  -4  10  12    1.81    0.20
   4  10 -12    1.91    0.24
   3 -10 -12    0.16    0.10
  -3 -10  12   -0.12    0.11
   3 -10 -12    0.23    0.14
   3  10 -12   -0.10    0.11
  -3  10  12   -0.03    0.09
  -2 -10  12    2.26    0.26
  -2 -10  12    2.24    0.24
   2 -10 -12    2.06    0.24
   2  10 -12    1.99    0.25
  -2  10  12    2.00    0.22
   1 -10 -12    0.09    0.12
  -1 -10  12   -0.19    0.10
  -1  10  12   -0.01    0.10
  -1  10  12    0.40    0.14
   1  10 -12    0.12    0.12
   0 -10  12    1.98    0.26
   0  10  12    2.59    0.31
   0  10 -12    1.81    0.24
   0  10  12    2.04    0.22
  -1 -10 -12   -0.20    0.13
  -1  10 -12   -0.17    0.10
   2 -10  12    0.49    0.17
   2  10  12    0.34    0.12
  -2  10 -12    0.45    0.13
  -3  10 -12    0.49    0.13
   3  10  12    0.31    0.12
  -8 -11  12    0.24    0.11
   8 -11 -12    0.01    0.10
  -8  11  12    0.04    0.09
  -7 -11  12    5.97    0.48
   7 -11 -12    5.72    0.45
   7  11 -12    6.77    0.48
  -7  11  12    6.17    0.44
  -6 -11  12    0.38    0.13
   6 -11 -12    0.41    0.13
  -6  11  12    0.43    0.10
   6  11 -12    0.20    0.12
  -5 -11  12    0.87    0.15
   5 -11 -12    0.97    0.16
  -5  11  12    0.77    0.13
   5  11 -12    0.82    0.16
  -4 -11  12    0.22    0.12
   4 -11 -12    0.54    0.17
   4 -11 -12    0.48    0.13
   4  11 -12    0.19    0.13
  -4  11  12    0.18    0.11
   3 -11 -12    0.94    0.16
   3 -11 -12    0.94    0.15
  -3 -11  12    0.74    0.15
   3  11 -12    0.79    0.15
  -3  11  12    0.78    0.13
  -2 -11  12    0.27    0.12
  -2  11  12    0.46    0.11
   2  11 -12    0.23    0.13
  -1 -11  12    0.48    0.13
  -1  11  12    0.29    0.12
   1  11 -12    0.55    0.14
   0  11  12    0.43    0.12
   0  11 -12    0.42    0.13
   1  11  12    0.42    0.12
  -1  11 -12    0.45    0.14
   6  12 -12    0.19    0.12
  -6  12  12    0.13    0.09
  -5 -12  12    0.25    0.11
   5 -12 -12    0.19    0.11
   5 -12 -12    0.36    0.13
   5  12 -12    0.17    0.12
  -5  12  12    0.00    0.10
   4 -12 -12    0.34    0.11
  -4 -12  12   -0.13    0.10
   4 -12 -12   -0.05    0.11
   4  12 -12   -0.07    0.11
  -4  12  12    0.07    0.09
  -3 -12  12    0.32    0.13
   3  12 -12    0.29    0.13
  -3  12  12    0.26    0.11
  -2 -12  12   -0.03    0.11
   2  12 -12   -0.21    0.11
  -2  12  12   -0.08    0.09
  -1 -12  12    0.99    0.16
   1  12 -12    0.83    0.15
  -1  12  12    1.25    0.17
 -13   0  13    0.22    0.10
 -13   0  13    0.27    0.09
 -12   0  13    0.05    0.10
 -12   0  13    0.04    0.07
  11   0 -13    0.09    0.10
  11   0 -13   -0.28    0.16
 -11   0  13    0.04    0.10
 -11   0  13    0.13    0.08
  10   0 -13    0.07    0.09
  10   0 -13    0.07    0.15
 -10   0  13   -0.02    0.07
 -10   0  13    0.00    0.11
  -9   0  13    0.81    0.15
  -9   0  13    1.13    0.15
   9   0 -13    0.51    0.19
   9   0 -13    0.71    0.13
   8   0 -13    0.17    0.10
  -8   0  13    0.25    0.08
   8   0 -13    0.31    0.16
  -8   0  13    0.14    0.11
  -8   0  13    0.33    0.12
  -7   0  13    3.88    0.33
   7   0 -13    3.39    0.37
  -7   0  13    3.66    0.35
  -7   0  13    3.65    0.29
   6   0 -13    0.13    0.14
  -6   0  13    0.03    0.08
  -6   0  13    0.00    0.12
  -6   0  13    0.06    0.10
  -5   0  13    5.36    0.46
  -5   0  13    5.67    0.40
  -5   0  13    5.98    0.44
   5   0 -13    5.18    0.46
  -5   0  13    5.50    0.48
  -4   0  13   -0.12    0.08
  -4   0  13   -0.20    0.10
   4   0 -13    0.00    0.11
  -4   0  13   -0.07    0.11
  -4   0  13    0.11    0.10
  -3   0  13    3.39    0.36
   3   0 -13    3.58    0.35
  -3   0  13    4.45    0.32
  -3   0  13    4.22    0.38
  -3   0  13    4.74    0.35
  -2   0  13    0.12    0.12
  -2   0  13    0.08    0.09
   2   0 -13    0.14    0.11
  -2   0  13    0.13    0.11
  -2   0  13    0.19    0.09
   1   0 -13   10.61    0.81
  -1   0  13   10.85    0.83
  -1   0  13   11.46    0.74
  -1   0  13   11.21    0.86
   0   0 -13    0.24    0.11
   0   0  13    0.29    0.12
   0   0  13    0.18    0.10
   0   0  13    0.27    0.14
  -1   0 -13    3.63    0.28
   1   0  13    2.96    0.26
   1   0  13    2.70    0.33
  -1   0 -13    2.72    0.28
   2   0  13    0.09    0.10
   2   0  13    0.28    0.14
  -2   0 -13    0.20    0.10
  -2   0 -13    0.13    0.11
  -3   0 -13    5.20    0.37
   3   0  13    3.65    0.35
   3   0  13    4.28    0.42
  -3   0 -13    4.36    0.37
  -4   0 -13    0.01    0.10
   4   0  13    0.06    0.15
  -4   0 -13    0.20    0.11
  -5   0 -13    0.30    0.11
  -5   0 -13    0.27    0.11
   5   0  13    0.20    0.16
   6   0  13    0.00    0.15
  -6   0 -13   -0.05    0.10
 -13  -1  13    1.39    0.21
 -13  -1  13    1.67    0.18
 -13   1  13    1.83    0.21
 -13   1  13    1.77    0.19
 -12  -1  13    0.14    0.10
 -12  -1  13    0.15    0.08
 -12   1  13    0.02    0.10
 -12   1  13    0.00    0.08
 -11  -1  13    0.64    0.11
  11  -1 -13    0.76    0.13
  11  -1 -13    0.28    0.19
 -11  -1  13    0.66    0.14
  11   1 -13    0.54    0.13
 -11   1  13    0.43    0.13
 -11   1  13    0.59    0.11
 -10  -1  13    0.28    0.10
 -10  -1  13    0.11    0.11
  10  -1 -13    0.17    0.16
  10  -1 -13    0.13    0.10
 -10  -1  13    0.14    0.08
 -10   1  13    0.10    0.11
  10   1 -13    0.14    0.09
  10   1 -13   -0.19    0.16
 -10   1  13    0.19    0.09
   9  -1 -13    5.72    0.52
  -9  -1  13    5.50    0.50
  -9  -1  13    5.76    0.43
   9  -1 -13    6.37    0.44
  -9  -1  13    6.56    0.47
   9   1 -13    6.30    0.44
   9   1 -13    6.25    0.52
  -9   1  13    6.40    0.44
  -9   1  13    5.86    0.50
   8  -1 -13    0.90    0.21
   8  -1 -13    0.85    0.14
  -8   1  13    1.59    0.22
  -8   1  13    1.23    0.17
  -7  -1  13    7.40    0.67
  -7  -1  13    9.79    0.63
   7  -1 -13    8.78    0.59
  -7  -1  13    8.42    0.58
   7  -1 -13    7.49    0.69
  -7   1  13    9.34    0.60
   7   1 -13    9.90    0.69
  -7   1  13    8.42    0.67
   6  -1 -13    0.42    0.17
  -6  -1  13    0.63    0.13
  -6  -1  13    0.45    0.13
  -6   1  13    0.35    0.10
   6   1 -13    0.49    0.15
  -6   1  13    0.20    0.13
  -5  -1  13    7.75    0.62
  -5  -1  13    7.62    0.52
   5  -1 -13    7.62    0.61
  -5  -1  13    8.06    0.57
  -5  -1  13    7.26    0.60
   5   1 -13    7.53    0.60
  -5   1  13    7.50    0.60
  -5   1  13    7.79    0.63
  -5   1  13    7.89    0.53
  -4  -1  13   -0.03    0.07
  -4  -1  13    0.06    0.09
   4  -1 -13   -0.05    0.13
  -4  -1  13   -0.11    0.11
  -4  -1  13   -0.06    0.10
  -4   1  13   -0.05    0.09
  -4   1  13   -0.15    0.10
  -4   1  13   -0.06    0.11
   4   1 -13   -0.10    0.11
  -3  -1  13    4.93    0.44
  -3  -1  13    5.11    0.40
  -3  -1  13    4.98    0.37
  -3  -1  13    4.94    0.43
   3  -1 -13    5.33    0.43
   3   1 -13    4.86    0.41
  -3   1  13    5.36    0.44
  -3   1  13    4.62    0.42
  -3   1  13    5.28    0.38
  -2  -1  13    1.82    0.24
  -2  -1  13    2.28    0.23
  -2  -1  13    1.98    0.19
   2  -1 -13    1.33    0.22
  -2  -1  13    2.01    0.26
  -2   1  13    1.38    0.23
  -2   1  13    1.54    0.24
   2   1 -13    2.01    0.21
  -2   1  13    1.36    0.19
  -1  -1  13    8.70    0.74
  -1  -1  13    9.40    0.76
   1  -1 -13    9.97    0.72
  -1  -1  13    8.63    0.64
  -1   1  13   11.15    0.77
  -1   1  13   10.69    0.66
   1   1 -13    8.48    0.72
  -1   1  13   10.21    0.74
   0  -1  13    3.39    0.32
   0  -1  13    3.46    0.32
   0  -1 -13    2.38    0.27
   0   1  13    2.37    0.30
   0   1  13    2.76    0.25
   0   1  13    2.21    0.30
   0   1 -13    3.05    0.27
  -1  -1 -13    2.28    0.24
   1  -1  13    1.72    0.27
   1   1  13    2.16    0.22
  -1   1 -13    1.98    0.22
  -1   1 -13    2.04    0.23
   1   1  13    1.88    0.28
   1   1  13    2.20    0.28
  -2  -1 -13    2.52    0.25
   2  -1  13    2.54    0.30
  -2  -1 -13    2.09    0.25
   2   1  13    1.58    0.24
  -2   1 -13    2.38    0.24
   2   1  13    2.16    0.29
  -2   1 -13    3.12    0.25
   3  -1  13    0.90    0.19
  -3   1 -13    1.36    0.19
  -3   1 -13    1.10    0.16
   3   1  13    1.58    0.21
  -4  -1 -13    0.50    0.13
  -4  -1 -13    0.76    0.13
   4  -1  13    0.32    0.17
  -4   1 -13    0.32    0.12
   4   1  13    0.31    0.15
  -4   1 -13    0.52    0.12
   4   1  13    0.07    0.12
   5  -1  13   -0.11    0.14
  -5  -1 -13   -0.09    0.10
  -5  -1 -13    0.20    0.10
  -5   1 -13    0.08    0.09
   5   1  13   -0.11    0.15
  -5   1 -13   -0.03    0.09
   6  -1  13    0.33    0.16
  -6  -1 -13    0.65    0.13
   6   1  13    0.08    0.16
  -6   1 -13    0.66    0.14
 -13  -2  13    0.06    0.10
 -13   2  13    0.18    0.10
 -13   2  13    0.31    0.09
  12  -2 -13    3.43    0.29
 -12  -2  13    3.48    0.33
  12  -2 -13    3.02    0.36
 -12   2  13    3.98    0.29
 -12   2  13    3.66    0.33
 -11  -2  13    0.08    0.10
 -11  -2  13    0.17    0.07
  11  -2 -13   -0.01    0.09
 -11  -2  13    0.11    0.09
 -11   2  13    0.11    0.10
 -11   2  13    0.02    0.08
 -10  -2  13    3.45    0.29
  10  -2 -13    3.60    0.39
 -10  -2  13    3.83    0.35
  10  -2 -13    4.29    0.32
 -10  -2  13    4.09    0.33
 -10   2  13    4.30    0.31
  10   2 -13    3.64    0.31
 -10   2  13    3.59    0.35
  -9  -2  13   -0.05    0.11
  -9  -2  13    0.09    0.07
   9  -2 -13    0.08    0.19
  -9  -2  13    0.28    0.12
   9  -2 -13    0.43    0.11
  -9   2  13    0.16    0.09
   8  -2 -13   18.95    1.16
  -8  -2  13   18.93    1.22
   8  -2 -13   17.78    1.33
  -8  -2  13   17.43    1.32
  -8   2  13   18.49    1.17
  -8   2  13   16.55    1.31
   7  -2 -13    0.48    0.19
  -7  -2  13    0.36    0.12
  -7  -2  13    0.54    0.14
  -7   2  13    0.42    0.10
   7   2 -13    0.39    0.14
   6  -2 -13    8.19    0.69
  -6  -2  13    8.73    0.67
  -6  -2  13    9.25    0.62
   6  -2 -13    8.94    0.58
  -6   2  13    7.42    0.66
   6   2 -13    8.31    0.66
  -6   2  13    9.63    0.59
  -5  -2  13    0.41    0.11
   5  -2 -13    0.27    0.16
  -5  -2  13    0.28    0.11
  -5  -2  13    0.32    0.13
  -5   2  13    0.54    0.13
  -5   2  13    0.36    0.12
   5   2 -13    0.47    0.12
  -5   2  13    0.42    0.10
  -4  -2  13    0.19    0.12
  -4  -2  13    0.28    0.10
   4  -2 -13    0.20    0.14
  -4  -2  13    0.17    0.11
  -4   2  13    0.10    0.10
  -4   2  13    0.16    0.11
  -4   2  13    0.23    0.12
   4   2 -13    0.37    0.11
  -3  -2  13    0.24    0.11
   3  -2 -13    0.46    0.14
  -3  -2  13    0.28    0.10
  -3  -2  13    0.28    0.13
  -3   2  13    0.50    0.11
  -3   2  13    0.36    0.11
   3   2 -13    0.43    0.11
  -3   2  13    0.53    0.12
  -2  -2  13    3.70    0.36
   2  -2 -13    3.61    0.35
  -2  -2  13    4.21    0.38
  -2  -2  13    4.16    0.33
  -2   2  13    4.28    0.32
  -2   2  13    4.25    0.36
   2   2 -13    3.79    0.34
  -2   2  13    4.16    0.38
  -1  -2  13    0.70    0.14
  -1  -2  13    0.84    0.16
   1   2 -13    1.10    0.17
   0  -2  13    5.95    0.49
   0  -2 -13    5.47    0.46
   0  -2  13    5.45    0.49
   0   2  13    5.72    0.48
   0   2  13    5.93    0.49
   0   2 -13    5.71    0.45
   0   2 -13    5.94    0.43
   0   2  13    5.55    0.42
   1  -2  13    0.28    0.14
  -1  -2 -13    0.18    0.11
  -1   2 -13    0.11    0.10
   1   2  13    0.24    0.11
  -1   2 -13    0.08    0.10
   1   2  13    0.16    0.13
   1   2  13    0.29    0.13
   2  -2  13    3.22    0.35
  -2  -2 -13    2.99    0.30
  -2   2 -13    3.46    0.30
   2   2  13    3.07    0.34
  -2   2 -13    3.56    0.30
   2   2  13    2.83    0.29
  -3  -2 -13   -0.02    0.11
   3  -2  13    0.04    0.14
  -3  -2 -13    0.08    0.10
   3   2  13    0.13    0.13
  -3   2 -13    0.10    0.10
   3   2  13   -0.07    0.12
  -3   2 -13    0.11    0.10
  -4  -2 -13    0.81    0.14
  -4  -2 -13    0.72    0.14
   4  -2  13    0.48    0.17
   4   2  13    0.52    0.17
   4   2  13    0.49    0.14
  -4   2 -13    0.65    0.13
  -4   2 -13    0.78    0.14
  -5  -2 -13   -0.10    0.10
   5  -2  13   -0.12    0.14
  -5   2 -13    0.06    0.10
   5   2  13   -0.26    0.14
  -5   2 -13   -0.10    0.09
   6  -2  13    0.32    0.15
   6   2  13   -0.25    0.14
   6   2  13    0.01    0.14
  -6   2 -13    0.11    0.11
 -13  -3  13    0.63    0.13
 -13   3  13    0.37    0.12
 -13   3  13    0.50    0.11
 -12  -3  13    0.29    0.10
  12  -3 -13    0.06    0.11
 -12  -3  13    0.12    0.10
 -12   3  13    0.28    0.11
 -12   3  13    0.21    0.09
 -11  -3  13    0.37    0.12
  11  -3 -13    0.15    0.11
  11  -3 -13   -0.16    0.18
 -11  -3  13    0.10    0.10
 -11   3  13    0.24    0.11
 -11   3  13    0.26    0.09
  10  -3 -13    0.35    0.11
 -10  -3  13    0.34    0.13
  10  -3 -13    0.43    0.20
 -10  -3  13    0.49    0.12
 -10   3  13    0.42    0.10
 -10   3  13    0.32    0.12
   9  -3 -13    0.59    0.12
   9  -3 -13    0.17    0.20
  -9  -3  13    0.38    0.13
  -9  -3  13    0.40    0.12
  -9   3  13    0.45    0.10
  -9   3  13    0.49    0.13
   8  -3 -13    1.61    0.26
  -8  -3  13    1.93    0.25
  -8  -3  13    1.31    0.19
   8  -3 -13    2.30    0.22
  -8   3  13    2.22    0.21
   7  -3 -13    1.80    0.30
  -7  -3  13    1.78    0.22
   7  -3 -13    1.74    0.20
  -7  -3  13    1.59    0.24
  -7   3  13    1.89    0.20
  -7   3  13    1.71    0.24
   6  -3 -13    1.64    0.25
   6  -3 -13    1.93    0.19
  -6  -3  13    1.59    0.22
  -6  -3  13    1.52    0.25
  -6   3  13    1.95    0.24
  -6   3  13    1.80    0.20
  -5  -3  13    1.37    0.19
   5  -3 -13    0.81    0.21
  -5  -3  13    1.14    0.17
  -5   3  13    1.10    0.15
  -5   3  13    1.04    0.16
  -5   3  13    1.14    0.17
  -4  -3  13    0.09    0.09
   4  -3 -13    0.06    0.14
   4  -3 -13    0.07    0.08
  -4  -3  13    0.02    0.11
  -4  -3  13   -0.02    0.12
  -4   3  13    0.05    0.10
  -4   3  13    0.01    0.11
  -4   3  13   -0.15    0.11
   3  -3 -13    0.02    0.13
  -3  -3  13   -0.03    0.12
  -3  -3  13    0.05    0.10
   3  -3 -13    0.17    0.09
  -3  -3  13    0.16    0.09
  -3   3  13   -0.04    0.09
   3   3 -13    0.19    0.09
  -3   3  13    0.13    0.11
  -3   3  13   -0.08    0.11
   2  -3 -13    1.61    0.24
  -2  -3  13    1.58    0.25
  -2  -3  13    1.64    0.20
  -2  -3  13    1.68    0.25
  -2   3  13    1.94    0.23
  -2   3  13    2.12    0.25
  -2   3  13    1.67    0.20
   2   3 -13    2.16    0.21
  -1  -3  13    1.22    0.18
  -1  -3  13    1.24    0.17
  -1  -3  13    1.51    0.25
   1  -3 -13    1.20    0.20
  -1   3  13    1.30    0.21
   1   3 -13    1.49    0.19
  -1   3  13    1.49    0.23
   1   3 -13    1.20    0.18
  -1   3  13    1.58    0.19
   0  -3  13    2.71    0.32
   0  -3 -13    2.53    0.27
   0  -3  13    2.50    0.30
   0   3  13    2.78    0.29
   0   3 -13    2.86    0.27
   0   3 -13    2.77    0.26
   0   3  13    3.38    0.32
   0   3  13    2.94    0.26
  -1  -3 -13    0.30    0.13
   1  -3  13    0.27    0.13
   1   3  13    0.14    0.13
  -1   3 -13    0.44    0.11
  -1   3 -13    0.33    0.11
   1   3  13    0.31    0.12
   1   3  13    0.31    0.13
   2  -3  13    3.28    0.37
  -2  -3 -13    3.40    0.32
  -2   3 -13    4.05    0.32
  -2   3 -13    3.86    0.33
   2   3  13    3.79    0.32
   2   3  13    3.43    0.36
   2   3  13    3.62    0.36
   3  -3  13    1.33    0.22
  -3  -3 -13    1.47    0.21
   3   3  13    1.41    0.20
  -3   3 -13    2.12    0.22
  -3   3 -13    1.96    0.22
   3   3  13    1.47    0.26
  -4  -3 -13    1.36    0.20
   4  -3  13    1.40    0.21
   4   3  13    1.41    0.19
  -4   3 -13    1.88    0.21
  -4   3 -13    1.84    0.22
   4   3  13    1.49    0.25
   5  -3  13    0.07    0.14
   5   3  13   -0.18    0.14
  -5   3 -13   -0.15    0.09
  -5   3 -13    0.10    0.10
   6  -3  13    0.53    0.15
  -6   3 -13    0.56    0.14
   6   3  13   -0.02    0.15
   6   3  13    0.20    0.16
 -12  -4  13    0.85    0.15
  12  -4 -13    1.31    0.17
 -12  -4  13    0.65    0.13
 -12   4  13    0.71    0.12
 -11  -4  13    0.08    0.10
  11  -4 -13   -0.08    0.09
 -11  -4  13    0.20    0.11
  11  -4 -13   -0.31    0.17
 -11   4  13    0.02    0.10
 -11   4  13    0.04    0.08
  10  -4 -13    0.75    0.13
 -10  -4  13    0.45    0.14
 -10  -4  13    0.69    0.14
  10  -4 -13    0.61    0.20
 -10   4  13    0.64    0.11
 -10   4  13    0.41    0.12
  -9  -4  13    0.08    0.10
   9  -4 -13   -0.07    0.19
   9  -4 -13   -0.05    0.10
  -9  -4  13   -0.11    0.12
  -9   4  13    0.13    0.10
  -9   4  13    0.01    0.08
  -8  -4  13    2.59    0.29
   8  -4 -13    2.31    0.34
  -8  -4  13    2.51    0.27
   8  -4 -13    2.63    0.25
  -8   4  13    3.12    0.29
  -8   4  13    2.98    0.25
  -7  -4  13    0.35    0.14
   7  -4 -13    0.33    0.11
   7  -4 -13    0.38    0.19
  -7  -4  13    0.37    0.12
  -7   4  13    0.26    0.10
  -7   4  13    0.36    0.12
  -6  -4  13    3.51    0.36
   6  -4 -13    4.04    0.30
  -6  -4  13    3.77    0.31
   6  -4 -13    3.11    0.38
  -6   4  13    3.52    0.34
  -6   4  13    3.80    0.30
   5  -4 -13    1.39    0.17
  -5  -4  13    1.35    0.19
  -5  -4  13    1.29    0.19
   5  -4 -13    1.16    0.21
  -5   4  13    1.26    0.17
  -5   4  13    1.44    0.23
  -5   4  13    1.46    0.19
   4  -4 -13    0.46    0.17
  -4  -4  13    0.27    0.14
   4  -4 -13    0.72    0.11
  -4  -4  13    0.46    0.11
  -4   4  13    0.40    0.13
  -4   4  13    0.47    0.13
  -4   4  13    0.54    0.12
  -3  -4  13    0.32    0.10
   3  -4 -13    0.37    0.10
   3  -4 -13    0.27    0.15
  -3  -4  13    0.17    0.13
  -3   4  13    0.25    0.12
  -3   4  13    0.36    0.12
  -3   4  13    0.27    0.11
  -2  -4  13    0.99    0.13
   2  -4 -13    1.35    0.16
  -2  -4  13    1.07    0.17
   2  -4 -13    0.92    0.17
  -2   4  13    1.04    0.14
  -2   4  13    1.25    0.21
  -2   4  13    1.03    0.15
   2   4 -13    0.95    0.13
  -1  -4  13    2.85    0.32
  -1  -4  13    3.17    0.27
   1  -4 -13    2.76    0.29
  -1  -4  13    3.07    0.33
   1  -4 -13    3.16    0.25
  -1   4  13    3.39    0.27
   1   4 -13    3.25    0.28
  -1   4  13    2.97    0.32
   0  -4 -13    0.61    0.11
   0  -4  13    0.43    0.13
   0  -4 -13    0.55    0.14
   0  -4  13    0.49    0.17
   0   4 -13    0.59    0.12
   0   4  13    0.55    0.12
   0   4  13    0.60    0.14
  -1  -4 -13    1.25    0.18
   1  -4  13    1.17    0.18
   1   4  13    1.45    0.20
  -1   4 -13    1.46    0.20
   1   4  13    1.17    0.18
   2  -4  13    1.12    0.19
  -2  -4 -13    1.30    0.20
  -2   4 -13    1.65    0.21
   2   4  13    1.37    0.19
   2   4  13    1.28    0.18
  -3  -4 -13    2.43    0.27
   3  -4  13    2.20    0.32
   3   4  13    2.62    0.30
   3   4  13    2.70    0.28
  -3   4 -13    3.02    0.27
   4  -4  13    0.53    0.16
  -4  -4 -13    1.18    0.17
   4   4  13    0.67    0.16
  -4   4 -13    0.99    0.16
   4   4  13    0.79    0.16
   5  -4  13    0.10    0.14
   5   4  13   -0.16    0.14
  -5   4 -13    0.17    0.11
   5   4  13   -0.05    0.12
  12  -5 -13    0.18    0.10
 -12  -5  13    0.05    0.10
 -12  -5  13    0.14    0.10
 -12   5  13   -0.07    0.10
 -12   5  13   -0.07    0.07
  11  -5 -13    0.62    0.22
 -11  -5  13    1.30    0.19
  11  -5 -13    1.35    0.18
 -11  -5  13    0.99    0.15
 -11   5  13    1.47    0.20
 -11   5  13    0.79    0.13
 -10  -5  13    0.17    0.10
  10  -5 -13    0.23    0.19
  10  -5 -13   -0.06    0.10
 -10  -5  13   -0.02    0.12
 -10   5  13   -0.10    0.08
 -10   5  13   -0.01    0.10
  -9  -5  13    1.62    0.21
   9  -5 -13    1.35    0.24
  -9  -5  13    1.49    0.23
   9  -5 -13    1.46    0.20
  -9   5  13    1.71    0.19
  -9   5  13    1.53    0.22
  -8  -5  13   -0.01    0.11
   8  -5 -13    0.02    0.10
  -8  -5  13    0.08    0.12
   8  -5 -13   -0.13    0.18
  -8   5  13    0.16    0.11
  -8   5  13    0.09    0.09
   7  -5 -13    4.86    0.49
  -7  -5  13    5.65    0.47
   7  -5 -13    5.19    0.40
  -7  -5  13    5.61    0.42
  -7   5  13    5.32    0.40
  -7   5  13    5.55    0.45
   6  -5 -13    0.01    0.09
   6  -5 -13   -0.11    0.18
  -6  -5  13   -0.07    0.14
  -6  -5  13    0.02    0.10
  -6   5  13    0.05    0.09
  -6   5  13   -0.08    0.11
   5  -5 -13    6.91    0.47
  -5  -5  13    6.74    0.49
  -5  -5  13    6.54    0.54
   5  -5 -13    5.67    0.55
  -5   5  13    7.05    0.48
  -4  -5  13   -0.04    0.09
   4  -5 -13    0.01    0.09
   4  -5 -13   -0.06    0.15
  -4  -5  13   -0.19    0.13
  -4   5  13   -0.11    0.09
  -4   5  13   -0.14    0.11
  -3  -5  13    1.69    0.20
   3  -5 -13    1.80    0.19
  -3  -5  13    1.72    0.22
   3  -5 -13    1.45    0.22
   3   5 -13    1.65    0.19
  -3   5  13    1.71    0.20
  -3   5  13    1.46    0.25
   2  -5 -13   -0.10    0.13
  -2  -5  13   -0.17    0.13
   2  -5 -13   -0.02    0.09
  -2  -5  13    0.02    0.08
  -2   5  13   -0.01    0.10
  -2   5  13    0.01    0.10
   2   5 -13   -0.08    0.08
   1  -5 -13    4.88    0.46
   1  -5 -13    6.69    0.42
  -1  -5  13    5.81    0.43
  -1  -5  13    6.01    0.50
  -1   5  13    6.06    0.43
  -1   5  13    5.53    0.49
   1   5 -13    5.50    0.43
   0  -5 -13    0.05    0.12
   0  -5  13    0.01    0.15
   0   5  13    0.02    0.10
   0   5  13    0.01    0.11
   0   5 -13    0.04    0.10
  -1  -5 -13    1.27    0.20
  -1   5 -13    1.50    0.21
   1   5  13    1.41    0.23
   1   5  13    1.58    0.20
  -2  -5 -13    0.01    0.11
   2   5  13   -0.14    0.11
   2   5  13   -0.12    0.12
  -2   5 -13   -0.12    0.11
  -3  -5 -13    0.85    0.15
   3  -5  13    0.46    0.16
   3   5  13    0.81    0.16
  -3   5 -13    0.90    0.15
   3   5  13    0.75    0.16
   4  -5  13    0.02    0.14
  -4   5 -13    0.47    0.13
   4   5  13    0.13    0.13
   4   5  13    0.04    0.13
   5  -5  13   -0.06    0.13
  -5   5 -13   -0.10    0.11
   5   5  13   -0.20    0.12
  12  -6 -13    2.74    0.24
 -12   6  13    2.17    0.22
 -11  -6  13    0.21    0.11
  11  -6 -13    0.22    0.10
 -11  -6  13    0.20    0.09
 -11   6  13    0.04    0.08
  10  -6 -13    0.56    0.12
 -10  -6  13    0.18    0.13
 -10  -6  13    0.34    0.11
  10  -6 -13    0.09    0.20
 -10   6  13    0.38    0.10
  -9  -6  13    0.33    0.13
   9  -6 -13   -0.01    0.19
   9  -6 -13    0.06    0.11
  -9  -6  13    0.32    0.11
  -9   6  13    0.19    0.10
  -8  -6  13    3.13    0.31
   8  -6 -13    2.50    0.26
   8  -6 -13    2.56    0.34
  -8  -6  13    2.99    0.28
  -8   6  13    2.90    0.25
  -7  -6  13    0.67    0.15
  -7  -6  13    0.41    0.12
   7  -6 -13    0.22    0.11
   7  -6 -13    0.26    0.21
  -7   6  13    0.31    0.10
  -6  -6  13    6.43    0.45
   6  -6 -13    5.39    0.51
   6  -6 -13    6.01    0.43
  -6  -6  13    5.70    0.50
  -6   6  13    5.66    0.43
   5  -6 -13    0.55    0.12
  -5  -6  13    0.64    0.13
   5  -6 -13    0.46    0.18
  -5  -6  13    0.50    0.16
  -5   6  13    0.46    0.12
   4  -6 -13    2.79    0.24
  -4  -6  13    2.67    0.25
   4  -6 -13    2.24    0.29
  -4  -6  13    2.41    0.30
  -4   6  13    2.61    0.25
  -4   6  13    2.56    0.30
  -3  -6  13    0.66    0.12
  -3  -6  13    0.45    0.16
   3  -6 -13    0.44    0.17
   3  -6 -13    0.71    0.12
  -3   6  13    0.58    0.12
  -3   6  13    0.63    0.14
   3   6 -13    0.61    0.12
  -2  -6  13    0.33    0.16
   2  -6 -13    0.48    0.11
   2  -6 -13    0.30    0.15
  -2  -6  13    0.66    0.11
  -2   6  13    0.40    0.11
   2   6 -13    0.41    0.11
  -2   6  13    0.43    0.14
  -1  -6  13    1.90    0.27
   1  -6 -13    1.90    0.20
  -1  -6  13    1.75    0.20
   1  -6 -13    1.74    0.22
   1   6 -13    1.59    0.21
  -1   6  13    1.88    0.21
  -1   6  13    1.72    0.24
   0  -6 -13    1.67    0.22
   0  -6  13    1.76    0.27
   0   6  13    1.67    0.25
   0   6  13    1.78    0.21
   0   6 -13    1.75    0.21
  -1  -6 -13    0.70    0.15
   1   6  13    0.79    0.16
   1   6  13    0.86    0.14
  -1   6 -13    0.78    0.14
  -2  -6 -13    1.26    0.19
  -2   6 -13    1.12    0.17
   2   6  13    1.12    0.16
   2   6  13    0.99    0.17
  -3  -6 -13    0.34    0.13
   3   6  13    0.23    0.13
  -3   6 -13    0.40    0.13
   3   6  13    0.09    0.13
   4   6  13   -0.24    0.12
   4   6  13   -0.15    0.12
  -4   6 -13    0.22    0.12
 -11  -7  13    0.07    0.10
 -11  -7  13    0.09    0.11
  11  -7 -13    0.20    0.10
 -11   7  13   -0.05    0.07
 -10  -7  13    0.15    0.10
  10  -7 -13    0.14    0.10
 -10  -7  13   -0.08    0.12
 -10   7  13    0.18    0.09
   9  -7 -13    0.76    0.14
  -9  -7  13    0.88    0.15
  -9  -7  13    0.74    0.14
   9  -7 -13    0.64    0.22
  -9   7  13    0.63    0.12
   8  -7 -13    0.40    0.13
   8  -7 -13    0.65    0.21
  -8  -7  13    0.70    0.15
  -8  -7  13    0.54    0.13
  -8   7  13    0.58    0.12
   7  -7 -13   -0.11    0.18
   7  -7 -13   -0.12    0.10
  -7  -7  13    0.15    0.14
  -7  -7  13   -0.01    0.11
  -7   7  13    0.02    0.09
   6  -7 -13    2.06    0.30
  -6  -7  13    2.96    0.30
  -6  -7  13    2.50    0.25
   6  -7 -13    2.20    0.24
  -6   7  13    2.41    0.23
  -5  -7  13   -0.10    0.14
   5  -7 -13   -0.01    0.10
   5  -7 -13   -0.12    0.17
  -5  -7  13    0.19    0.11
  -5   7  13   -0.06    0.09
  -4  -7  13    1.60    0.22
   4  -7 -13    1.42    0.23
   4  -7 -13    1.80    0.20
  -4  -7  13    1.96    0.22
  -4   7  13    1.67    0.20
   4   7 -13    1.93    0.21
  -3  -7  13    0.36    0.11
   3  -7 -13    0.08    0.16
   3  -7 -13    0.33    0.11
  -3  -7  13    0.25    0.15
  -3   7  13    0.15    0.10
   3   7 -13    0.23    0.10
  -3   7  13    0.25    0.13
   2  -7 -13    0.80    0.16
   2  -7 -13    1.31    0.16
  -2  -7  13    0.71    0.18
  -2  -7  13    1.31    0.17
  -2   7  13    0.90    0.14
   2   7 -13    0.94    0.15
  -2   7  13    0.80    0.16
   1  -7 -13    0.13    0.13
  -1  -7  13    0.26    0.10
  -1  -7  13   -0.08    0.15
  -1   7  13    0.03    0.10
  -1   7  13    0.09    0.12
   1   7 -13   -0.06    0.10
   0  -7  13    1.47    0.22
   0  -7 -13    1.41    0.21
   0   7  13    1.62    0.20
   0   7  13    1.41    0.24
   0   7 -13    1.52    0.20
  -1  -7 -13   -0.14    0.11
   1  -7  13   -0.20    0.16
  -1   7 -13    0.05    0.10
   1   7  13   -0.21    0.11
   1   7  13   -0.09    0.10
  -2  -7 -13    2.72    0.26
  -2   7 -13    2.66    0.27
   2   7  13    2.15    0.29
   2   7  13    2.63    0.26
   3   7  13    0.10    0.14
   3   7  13    0.02    0.11
  -3   7 -13    0.39    0.13
   4   7  13    0.84    0.15
  -4   7 -13    0.74    0.14
   4   7  13    0.37    0.15
 -10  -8  13    1.89    0.21
 -10  -8  13    1.80    0.25
  10  -8 -13    1.88    0.21
 -10   8  13    1.84    0.19
  -9  -8  13    0.26    0.12
  -9  -8  13    0.00    0.10
   9  -8 -13    0.02    0.10
  -9   8  13    0.14    0.09
  -8  -8  13    3.46    0.34
   8  -8 -13    3.34    0.29
   8  -8 -13    2.81    0.37
  -8  -8  13    3.51    0.31
  -8   8  13    3.70    0.28
  -7  -8  13    0.04    0.14
  -7  -8  13    0.20    0.11
   7  -8 -13    0.18    0.10
   7  -8 -13   -0.17    0.18
  -7   8  13    0.17    0.09
  -6  -8  13    4.55    0.42
  -6  -8  13    5.10    0.39
   6  -8 -13    4.94    0.37
   6  -8 -13    4.19    0.44
  -6   8  13    4.85    0.36
   5  -8 -13    0.56    0.19
  -5  -8  13    0.72    0.14
   5  -8 -13    0.87    0.14
  -5  -8  13    0.72    0.17
  -5   8  13    0.87    0.14
   4  -8 -13    3.22    0.27
   4  -8 -13    2.71    0.30
  -4  -8  13    2.64    0.32
  -4  -8  13    3.31    0.29
   4   8 -13    3.23    0.29
  -4   8  13    2.82    0.26
  -3  -8  13    0.12    0.14
   3  -8 -13    0.42    0.14
  -3  -8  13    0.15    0.11
   3  -8 -13    0.07    0.11
  -3   8  13    0.19    0.12
   3   8 -13    0.18    0.11
  -3   8  13    0.17    0.10
  -2  -8  13    1.85    0.28
   2  -8 -13    2.04    0.25
   2  -8 -13    2.21    0.23
  -2  -8  13    2.24    0.23
  -2   8  13    2.21    0.28
   2   8 -13    2.07    0.24
  -2   8  13    2.13    0.22
  -1  -8  13    0.88    0.14
   1  -8 -13    0.98    0.16
  -1  -8  13    0.88    0.18
  -1   8  13    0.71    0.14
  -1   8  13    0.91    0.17
   1   8 -13    0.95    0.15
   0  -8 -13    1.78    0.20
   0  -8  13    1.33    0.21
   0   8  13    1.23    0.19
   0   8  13    1.18    0.16
   0   8 -13    1.11    0.17
  -1  -8 -13    0.38    0.14
   1  -8  13    0.53    0.17
   1   8  13    0.45    0.15
  -1   8 -13    0.57    0.14
   1   8  13    0.41    0.13
   2  -8  13    0.97    0.21
   2   8  13    1.10    0.19
   2   8  13    1.11    0.16
  -2   8 -13    1.53    0.21
   3   8  13    0.92    0.19
  -3   8 -13    1.51    0.21
   3   8  13    1.06    0.16
   9  -9 -13    0.69    0.13
  -9  -9  13    0.47    0.13
  -9   9  13    0.56    0.10
  -8  -9  13   -0.10    0.11
   8  -9 -13    0.16    0.10
  -8   9  13    0.06    0.08
   7  -9 -13    4.23    0.42
   7  -9 -13    4.59    0.36
  -7  -9  13    4.99    0.39
  -7   9  13    4.62    0.35
  -6  -9  13    0.53    0.14
   6  -9 -13    0.16    0.10
   6  -9 -13   -0.20    0.16
  -6  -9  13    0.28    0.12
  -6   9  13   -0.10    0.09
  -5  -9  13    5.83    0.53
   5  -9 -13    6.38    0.46
  -5  -9  13    6.57    0.49
   5  -9 -13    5.72    0.52
  -5   9  13    6.51    0.46
   5   9 -13    7.08    0.49
   4  -9 -13    0.30    0.17
   4  -9 -13    0.51    0.12
  -4  -9  13    0.42    0.12
  -4  -9  13    0.02    0.15
  -4   9  13    0.27    0.11
   4   9 -13    0.21    0.12
   3  -9 -13    2.15    0.21
  -3  -9  13    2.07    0.22
   3  -9 -13    1.43    0.24
  -3  -9  13    1.42    0.23
  -3   9  13    1.55    0.20
   3   9 -13    1.90    0.23
   2  -9 -13    0.33    0.14
  -2  -9  13    0.38    0.12
  -2  -9  13    0.11    0.14
  -2   9  13    0.08    0.11
   2   9 -13    0.28    0.13
  -2   9  13    0.57    0.15
  -1  -9  13    3.28    0.35
   1  -9 -13    3.45    0.33
  -1   9  13    3.29    0.30
  -1   9  13    4.14    0.38
   1   9 -13    3.58    0.32
   0  -9  13    0.02    0.15
   0   9  13   -0.01    0.10
   0   9  13    0.04    0.13
   0   9 -13   -0.04    0.11
   1  -9  13    0.85    0.19
   1   9  13    0.77    0.14
  -1   9 -13    0.77    0.15
   1   9  13    1.00    0.18
   2  -9  13   -0.05    0.15
  -2   9 -13    0.01    0.11
   2   9  13   -0.27    0.10
   2   9  13    0.09    0.13
  -8 -10  13    0.65    0.13
   8 -10 -13    0.31    0.12
  -8  10  13    0.37    0.10
   7 -10 -13    0.44    0.13
  -7 -10  13    0.67    0.14
  -7  10  13    0.40    0.10
   6 -10 -13    0.74    0.13
  -6 -10  13    0.56    0.14
  -6  10  13    0.49    0.11
  -5 -10  13    1.39    0.21
   5 -10 -13    1.53    0.19
  -5  10  13    1.23    0.17
   5  10 -13    1.07    0.18
   4 -10 -13    0.47    0.11
  -4 -10  13    0.37    0.12
   4 -10 -13    0.64    0.15
   4  10 -13    0.04    0.11
  -4  10  13    0.23    0.11
   3 -10 -13    0.62    0.16
   3 -10 -13    0.95    0.14
  -3 -10  13    0.85    0.14
   3  10 -13    0.51    0.14
  -3  10  13    0.57    0.12
  -2 -10  13    0.19    0.10
  -2 -10  13    0.25    0.14
  -2  10  13    0.17    0.10
   2  10 -13   -0.16    0.11
  -1 -10  13    0.99    0.19
   1  10 -13    1.50    0.22
  -1  10  13    1.07    0.16
   0  10  13    0.84    0.17
   0  10 -13    0.33    0.13
   0  10  13    0.50    0.13
   1 -10  13    0.39    0.17
  -1  10 -13    0.35    0.13
   1  10  13    0.40    0.12
  -6 -11  13    0.32    0.12
  -6  11  13    0.55    0.11
   5 -11 -13    0.18    0.12
  -5 -11  13    0.30    0.12
   5  11 -13    0.05    0.12
  -5  11  13   -0.02    0.09
  -4 -11  13    0.56    0.13
   4 -11 -13    0.41    0.13
  -4  11  13    0.61    0.12
   4  11 -13    0.34    0.13
   3 -11 -13    0.41    0.13
  -3 -11  13    0.44    0.12
  -3  11  13    0.25    0.11
   3  11 -13    0.16    0.12
  -2 -11  13    0.57    0.12
  -2  11  13    0.44    0.11
   2  11 -13    0.44    0.14
  -1  11  13    0.05    0.11
   1  11 -13    0.41    0.13
 -12   0  14    0.79    0.14
 -12   0  14    1.22    0.16
 -11   0  14    0.08    0.10
 -11   0  14   -0.07    0.07
  11   0 -14   -0.03    0.09
 -10   0  14    1.06    0.17
 -10   0  14    1.41    0.16
  10   0 -14    1.31    0.19
  10   0 -14    0.98    0.23
   9   0 -14    0.46    0.18
   9   0 -14    0.32    0.10
  -9   0  14    0.33    0.09
  -9   0  14    0.50    0.13
  -8   0  14   13.46    1.02
  -8   0  14   13.29    0.90
   8   0 -14   13.90    1.03
   8   0 -14   14.19    0.90
  -7   0  14    0.51    0.14
  -7   0  14    0.56    0.13
   7   0 -14    0.58    0.17
  -7   0  14    0.46    0.10
  -6   0  14    9.11    0.56
  -6   0  14    7.48    0.64
  -6   0  14    8.23    0.60
   6   0 -14    7.89    0.65
  -5   0  14   -0.02    0.12
  -5   0  14    0.00    0.12
   5   0 -14    0.11    0.13
  -5   0  14   -0.04    0.08
  -5   0  14    0.23    0.11
   4   0 -14    9.98    0.80
  -4   0  14    9.92    0.81
  -4   0  14   11.15    0.85
  -4   0  14   11.47    0.75
  -4   0  14   11.09    0.72
   3   0 -14   -0.16    0.11
  -3   0  14   -0.06    0.08
  -3   0  14   -0.09    0.12
  -2   0  14    4.47    0.43
  -2   0  14    5.15    0.45
  -2   0  14    5.52    0.38
   2   0 -14    4.73    0.41
  -1   0  14    1.63    0.26
   0   0 -14    6.38    0.50
   0   0  14    6.21    0.53
   0   0  14    6.14    0.45
   0   0  14    6.27    0.54
   1   0  14    0.31    0.14
   1   0  14    0.38    0.16
  -2   0 -14    2.70    0.27
   2   0  14    2.71    0.32
  -3   0 -14    0.21    0.10
  -3   0 -14   -0.13    0.10
   3   0  14    0.04    0.14
  -4   0 -14    0.20    0.10
  -5   0 -14    0.03    0.10
   5   0  14   -0.33    0.15
 -12  -1  14    0.16    0.08
 -12  -1  14    0.05    0.10
 -12   1  14    0.11    0.10
 -12   1  14    0.15    0.08
 -11  -1  14    0.21    0.11
 -11  -1  14   -0.05    0.07
  11  -1 -14    0.07    0.09
 -11   1  14   -0.05    0.07
  11   1 -14   -0.07    0.09
 -11   1  14    0.11    0.11
 -10  -1  14    0.08    0.07
 -10  -1  14   -0.01    0.12
  10  -1 -14   -0.34    0.17
  10  -1 -14    0.17    0.10
 -10   1  14    0.10    0.12
  10   1 -14    0.10    0.09
 -10   1  14    0.12    0.08
  -9  -1  14    4.08    0.39
  -9  -1  14    4.25    0.33
   9  -1 -14    4.59    0.35
   9  -1 -14    4.48    0.44
  -9  -1  14    4.64    0.37
  -9   1  14    4.56    0.34
   9   1 -14    4.55    0.43
   9   1 -14    4.45    0.34
  -9   1  14    4.33    0.39
  -8  -1  14    2.30    0.26
  -8  -1  14    2.07    0.20
  -8  -1  14    2.06    0.25
   8   1 -14    1.94    0.29
  -7  -1  14    3.68    0.38
  -7  -1  14    5.21    0.37
   7  -1 -14    4.04    0.33
  -7  -1  14    4.31    0.32
   7  -1 -14    4.06    0.41
   7   1 -14    4.39    0.40
  -7   1  14    4.57    0.33
  -7   1  14    3.85    0.38
  -6  -1  14    1.59    0.25
  -6  -1  14    1.64    0.24
  -6  -1  14    1.68    0.19
   6   1 -14    2.24    0.26
   5  -1 -14    0.26    0.16
  -5  -1  14    0.20    0.13
  -5  -1  14    0.33    0.12
  -5  -1  14    0.44    0.12
  -5   1  14    0.23    0.13
   5   1 -14    0.33    0.14
  -5   1  14    0.32    0.13
  -5   1  14    0.26    0.10
  -4  -1  14    3.30    0.33
  -4  -1  14    2.95    0.31
  -4  -1  14    2.76    0.29
   4   1 -14    2.86    0.29
  -3  -1  14    0.07    0.09
   3  -1 -14   -0.01    0.13
  -3  -1  14   -0.22    0.11
  -3  -1  14   -0.10    0.12
   3   1 -14    0.02    0.10
  -3   1  14   -0.16    0.12
  -3   1  14   -0.03    0.11
  -3   1  14   -0.01    0.09
  -2  -1  14    1.73    0.21
  -2  -1  14    1.51    0.25
  -2  -1  14    1.92    0.27
   2   1 -14    1.74    0.22
   1  -1 -14    5.36    0.48
  -1  -1  14    6.73    0.50
  -1   1  14    5.50    0.43
  -1   1  14    5.33    0.49
   1   1 -14    6.50    0.47
  -1   1  14    6.05    0.51
   0  -1  14    3.02    0.38
   0  -1  14    2.96    0.37
   0  -1 -14    4.49    0.36
   0   1  14    4.53    0.39
   0   1 -14    3.15    0.34
   0   1  14    4.60    0.33
   0   1  14    4.63    0.38
  -1  -1 -14    2.31    0.24
   1   1  14    2.09    0.29
   1   1  14    2.06    0.28
   1   1  14    2.13    0.23
  -2  -1 -14    1.56    0.21
   2  -1  14    1.09    0.20
   2   1  14    1.65    0.20
   2   1  14    1.34    0.21
  -2   1 -14    1.50    0.20
   2   1  14    1.64    0.25
  -2   1 -14    1.63    0.19
  -3  -1 -14    0.55    0.12
   3  -1  14    0.34    0.15
  -3   1 -14    0.24    0.11
   3   1  14    0.03    0.11
  -3   1 -14    0.57    0.12
   3   1  14    0.28    0.16
  -4  -1 -14    0.00    0.10
   4  -1  14   -0.28    0.14
   4   1  14   -0.02    0.13
  -4   1 -14   -0.07    0.10
  -5  -1 -14    0.22    0.10
   5  -1  14   -0.29    0.14
  -5   1 -14    0.08    0.10
   5   1  14   -0.24    0.14
  12  -2 -14    0.16    0.10
 -12  -2  14    0.12    0.11
 -12   2  14    0.13    0.09
 -12   2  14    0.17    0.10
  11  -2 -14    0.06    0.10
 -11  -2  14    0.03    0.11
 -11   2  14    0.10    0.08
 -11   2  14   -0.13    0.10
  10  -2 -14    0.00    0.10
 -10  -2  14    0.03    0.10
 -10  -2  14    0.10    0.12
 -10   2  14   -0.06    0.08
  10   2 -14    0.05    0.09
 -10   2  14    0.15    0.11
   9  -2 -14    1.36    0.26
  -9  -2  14    1.76    0.23
   9  -2 -14    1.61    0.21
  -9  -2  14    1.73    0.25
  -9   2  14    1.85    0.19
  -9   2  14    1.93    0.25
  -8  -2  14    0.37    0.13
   8  -2 -14    0.58    0.12
   8  -2 -14    0.37    0.20
  -8  -2  14    0.52    0.14
  -8   2  14    0.46    0.11
  -8   2  14    0.64    0.14
  -7  -2  14    2.01    0.24
  -7  -2  14    1.59    0.26
   7  -2 -14    2.17    0.22
   7  -2 -14    2.05    0.32
  -7   2  14    2.52    0.27
  -7   2  14    2.10    0.22
  -6  -2  14    0.76    0.17
  -6  -2  14    0.80    0.14
   6  -2 -14    0.71    0.20
   6  -2 -14    1.22    0.17
  -6   2  14    0.94    0.14
  -6   2  14    0.80    0.16
  -5  -2  14    0.16    0.13
  -5  -2  14    0.38    0.12
   5  -2 -14    0.28    0.10
  -5  -2  14    0.22    0.12
   5  -2 -14    0.17    0.16
  -5   2  14    0.29    0.11
   5   2 -14    0.35    0.12
  -5   2  14    0.28    0.13
  -5   2  14    0.30    0.13
  -4  -2  14    0.38    0.13
  -4  -2  14    0.13    0.11
   4  -2 -14    0.41    0.16
  -4  -2  14    0.37    0.12
   4   2 -14    0.24    0.11
  -4   2  14    0.29    0.13
  -4   2  14    0.38    0.13
  -4   2  14    0.30    0.11
  -3  -2  14    0.13    0.11
  -3  -2  14    0.09    0.13
  -3  -2  14    0.26    0.10
   3  -2 -14    0.07    0.14
   3   2 -14    0.37    0.11
  -3   2  14    0.12    0.12
  -3   2  14    0.02    0.12
  -3   2  14    0.18    0.10
   2  -2 -14    0.21    0.13
  -2  -2  14    0.32    0.14
  -2  -2  14    0.27    0.12
  -2  -2  14    0.22    0.10
  -2   2  14    0.56    0.13
  -2   2  14    0.29    0.13
   2   2 -14    0.49    0.11
  -2   2  14    0.27    0.11
  -1  -2  14    9.06    0.73
   1  -2 -14    8.55    0.69
  -1  -2  14    8.50    0.71
  -1   2  14   10.12    0.63
  -1   2  14    9.04    0.73
   1   2 -14    8.79    0.68
  -1   2  14    9.29    0.70
   0  -2  14    0.11    0.15
   0  -2 -14    0.33    0.12
   0  -2  14    0.06    0.13
   0   2  14    0.20    0.11
   0   2 -14    0.35    0.11
   0   2  14    0.39    0.13
   0   2  14    0.37    0.13
   1  -2  14    6.21    0.54
  -1  -2 -14    5.62    0.51
   1  -2  14    6.48    0.55
   1   2  14    6.50    0.47
   1   2  14    5.67    0.53
   1   2  14    6.33    0.54
  -1   2 -14    6.62    0.50
  -1   2 -14    7.51    0.49
  -2  -2 -14    0.40    0.12
   2  -2  14    0.25    0.14
  -2   2 -14    0.20    0.10
   2   2  14    0.20    0.14
   2   2  14    0.25    0.15
   2   2  14    0.19    0.11
  -2   2 -14    0.34    0.11
   3  -2  14    1.51    0.22
  -3  -2 -14    1.98    0.21
   3   2  14    1.64    0.26
   3   2  14    1.57    0.22
   3   2  14    1.50    0.23
  -3   2 -14    2.30    0.23
   4  -2  14   -0.23    0.14
   4   2  14   -0.16    0.13
  -4   2 -14   -0.05    0.10
  -5   2 -14    0.07    0.11
  12  -3 -14   -0.26    0.10
 -12  -3  14    0.00    0.11
 -12   3  14    0.05    0.08
 -12   3  14    0.10    0.10
  11  -3 -14    0.69    0.14
 -11  -3  14    0.94    0.15
 -11  -3  14    0.88    0.14
 -11   3  14    1.06    0.15
 -11   3  14    0.78    0.15
 -10  -3  14    0.18    0.12
 -10  -3  14    0.23    0.11
  10  -3 -14    0.21    0.10
  10  -3 -14   -0.08    0.20
  10   3 -14    0.17    0.09
 -10   3  14    0.33    0.10
 -10   3  14    0.22    0.11
  -9  -3  14   12.04    0.83
   9  -3 -14   11.15    0.92
   9  -3 -14   12.47    0.79
  -9  -3  14   11.40    0.89
  -9   3  14   12.16    0.89
  -9   3  14   11.48    0.79
  -8  -3  14    0.34    0.13
   8  -3 -14    0.37    0.21
   8  -3 -14    0.29    0.11
  -8  -3  14    0.41    0.14
  -8   3  14    0.50    0.11
  -8   3  14    0.50    0.13
  -7  -3  14    3.30    0.33
   7  -3 -14    3.16    0.28
  -7  -3  14    3.66    0.31
   7  -3 -14    2.85    0.38
  -7   3  14    3.51    0.29
  -7   3  14    3.29    0.33
  -6  -3  14   -0.22    0.13
   6  -3 -14   -0.26    0.17
  -6  -3  14    0.13    0.11
   6  -3 -14   -0.07    0.09
  -6   3  14   -0.10    0.11
  -6   3  14   -0.16    0.10
   5  -3 -14    1.24    0.17
  -5  -3  14    1.15    0.16
   5  -3 -14    1.11    0.21
  -5  -3  14    1.10    0.18
  -5   3  14    1.22    0.17
  -5   3  14    0.78    0.18
  -5   3  14    1.36    0.18
   4  -3 -14    0.26    0.10
  -4  -3  14    0.42    0.11
  -4  -3  14    0.36    0.14
   4  -3 -14    0.44    0.16
  -4   3  14    0.48    0.13
  -4   3  14    0.32    0.13
  -4   3  14    0.34    0.12
  -3  -3  14    0.56    0.11
   3  -3 -14    0.63    0.16
  -3  -3  14    0.40    0.15
   3  -3 -14    0.52    0.11
  -3  -3  14    0.41    0.12
  -3   3  14    0.50    0.12
  -3   3  14    0.50    0.14
  -3   3  14    0.28    0.13
  -2  -3  14    0.02    0.14
  -2  -3  14    0.14    0.11
   2  -3 -14    0.09    0.12
  -2  -3  14    0.23    0.10
   2  -3 -14    0.17    0.10
  -2   3  14    0.10    0.10
  -2   3  14    0.13    0.12
  -2   3  14    0.01    0.12
  -1  -3  14    4.15    0.41
   1  -3 -14    4.08    0.39
   1  -3 -14    4.76    0.34
  -1  -3  14    4.24    0.41
  -1   3  14    4.56    0.41
  -1   3  14    4.96    0.36
  -1   3  14    4.84    0.40
   0  -3 -14    0.69    0.11
   0  -3  14    0.39    0.14
   0  -3 -14    0.76    0.14
   0  -3  14    0.64    0.17
   0   3  14    0.65    0.14
   0   3 -14    0.75    0.13
   0   3  14    0.34    0.14
   0   3  14    0.50    0.13
  -1  -3 -14    4.75    0.42
   1  -3  14    4.64    0.46
   1  -3  14    4.78    0.45
   1   3  14    5.66    0.46
   1   3  14    5.07    0.39
  -1   3 -14    5.40    0.41
   2  -3  14    1.03    0.19
  -2  -3 -14    1.15    0.19
   2   3  14    1.09    0.16
  -2   3 -14    1.77    0.20
  -2   3 -14    1.41    0.20
   2   3  14    1.00    0.18
   3  -3  14    0.78    0.19
  -3  -3 -14    1.53    0.19
   3   3  14    1.08    0.17
   3   3  14    1.14    0.19
  -3   3 -14    1.67    0.21
   4  -3  14   -0.06    0.14
   4   3  14    0.26    0.14
  -4   3 -14    0.54    0.13
   4   3  14    0.01    0.13
 -12  -4  14    0.40    0.11
  12  -4 -14    0.59    0.11
 -12   4  14    0.33    0.10
 -11  -4  14    0.03    0.10
 -11  -4  14    0.12    0.11
  11  -4 -14    0.07    0.10
 -11   4  14    0.08    0.11
 -11   4  14    0.20    0.09
 -10  -4  14    1.62    0.20
  10  -4 -14    1.44    0.19
  10  -4 -14    1.06    0.27
 -10  -4  14    1.15    0.18
 -10   4  14    1.38    0.17
 -10   4  14    1.43    0.22
  -9  -4  14    0.31    0.12
   9  -4 -14    0.46    0.12
   9  -4 -14    0.60    0.21
  -9  -4  14    0.30    0.14
  -9   4  14    0.58    0.12
  -8  -4  14    7.34    0.59
   8  -4 -14    7.67    0.52
   8  -4 -14    6.69    0.63
  -8  -4  14    6.83    0.55
  -8   4  14    7.51    0.58
  -8   4  14    7.96    0.52
   7  -4 -14    0.04    0.10
  -7  -4  14    0.18    0.14
   7  -4 -14   -0.02    0.20
  -7  -4  14    0.08    0.11
  -7   4  14    0.27    0.10
  -7   4  14    0.27    0.12
  -6  -4  14    0.59    0.16
   6  -4 -14    0.66    0.13
  -6  -4  14    0.53    0.13
   6  -4 -14    0.37    0.21
  -6   4  14    0.46    0.14
  -6   4  14    0.62    0.12
  -5  -4  14    0.12    0.10
   5  -4 -14    0.03    0.17
  -5  -4  14    0.11    0.14
   5  -4 -14    0.10    0.10
  -5   4  14    0.08    0.11
  -5   4  14    0.03    0.12
  -5   4  14    0.18    0.12
   4  -4 -14    2.92    0.25
   4  -4 -14    2.49    0.31
  -4  -4  14    2.95    0.31
  -4  -4  14    3.01    0.27
  -4   4  14    3.01    0.27
  -4   4  14    3.09    0.30
  -4   4  14    2.47    0.31
  -3  -4  14    0.18    0.10
   3  -4 -14    0.22    0.10
  -3  -4  14    0.03    0.14
   3  -4 -14    0.17    0.15
  -3   4  14   -0.04    0.12
  -3   4  14    0.21    0.11
  -3   4  14   -0.02    0.12
  -2  -4  14    2.08    0.22
  -2  -4  14    1.97    0.28
   2  -4 -14    1.89    0.25
   2  -4 -14    2.53    0.21
  -2   4  14    2.33    0.23
  -2   4  14    1.86    0.26
   1  -4 -14    0.34    0.14
  -1  -4  14    0.40    0.16
   1  -4 -14    0.34    0.10
  -1   4  14    0.26    0.12
  -1   4  14    0.45    0.12
   0  -4  14    1.86    0.27
   0  -4  14    1.39    0.21
   0  -4 -14    2.05    0.22
   0   4  14    1.79    0.26
   0   4 -14    1.84    0.23
   0   4  14    1.76    0.22
  -1  -4 -14    2.08    0.25
   1  -4  14    2.46    0.31
   1  -4  14    2.04    0.28
  -1   4 -14    2.54    0.25
   1   4  14    2.31    0.24
   1   4  14    2.22    0.28
  -2  -4 -14    0.93    0.16
   2  -4  14    0.75    0.16
   2   4  14    0.85    0.15
  -2   4 -14    0.86    0.16
   2   4  14    0.84    0.17
  -3   4 -14    2.15    0.22
   3   4  14    1.35    0.19
   3   4  14    1.46    0.21
   4  -4  14   -0.32    0.14
   4   4  14   -0.16    0.13
  -4   4 -14    0.16    0.10
 -11  -5  14    0.20    0.10
 -11  -5  14    0.26    0.11
 -11   5  14    0.03    0.08
 -10  -5  14   -0.11    0.12
  10  -5 -14   -0.08    0.10
 -10  -5  14   -0.02    0.10
 -10   5  14   -0.06    0.08
  -9  -5  14    0.48    0.15
   9  -5 -14    0.20    0.11
   9  -5 -14    0.32    0.20
  -9  -5  14    0.35    0.12
  -9   5  14    0.43    0.11
  -8  -5  14    1.25    0.19
  -8  -5  14    0.82    0.16
   8  -5 -14    1.14    0.24
   8  -5 -14    1.16    0.16
  -8   5  14    1.52    0.18
  -7  -5  14   -0.03    0.14
   7  -5 -14   -0.17    0.19
  -7  -5  14   -0.06    0.10
   7  -5 -14   -0.05    0.10
  -7   5  14   -0.12    0.09
   6  -5 -14    0.62    0.13
  -6  -5  14    0.63    0.13
  -6  -5  14    0.45    0.16
   6  -5 -14    0.51    0.21
  -6   5  14    0.73    0.13
  -5  -5  14    0.03    0.14
  -5  -5  14    0.04    0.10
   5  -5 -14    0.14    0.10
   5  -5 -14   -0.03    0.17
  -5   5  14   -0.08    0.10
  -4  -5  14    1.59    0.25
   4  -5 -14    1.64    0.19
  -4  -5  14    1.51    0.20
   4  -5 -14    1.57    0.24
  -4   5  14    1.20    0.19
  -4   5  14    1.69    0.20
  -3  -5  14   -0.02    0.09
  -3  -5  14    0.03    0.14
   3  -5 -14    0.19    0.15
   3  -5 -14   -0.04    0.09
  -3   5  14   -0.12    0.11
  -3   5  14    0.02    0.10
  -2  -5  14    2.29    0.23
   2  -5 -14    2.34    0.22
   2  -5 -14    2.07    0.25
  -2  -5  14    2.08    0.29
  -2   5  14    2.12    0.27
  -2   5  14    2.44    0.23
   1  -5 -14    0.73    0.12
  -1  -5  14    0.47    0.17
   1  -5 -14    0.60    0.15
  -1   5  14    0.49    0.14
   1   5 -14    0.54    0.13
  -1   5  14    0.66    0.13
   0  -5 -14    2.66    0.27
   0  -5  14    2.82    0.32
   0   5  14    2.87    0.27
   0   5 -14    3.04    0.28
   0   5  14    2.53    0.30
   1  -5  14   -0.04    0.16
  -1  -5 -14   -0.03    0.12
   1   5  14    0.00    0.13
  -1   5 -14   -0.09    0.11
   1   5  14   -0.07    0.11
  -2  -5 -14    0.68    0.14
  -2   5 -14    0.69    0.14
   2   5  14    0.54    0.13
   2   5  14    0.54    0.15
  -3   5 -14   -0.06    0.10
   3   5  14   -0.20    0.13
   3   5  14   -0.06    0.11
  -4   5 -14   -0.04    0.10
 -11   6  14   -0.04    0.08
 -10  -6  14    0.56    0.15
 -10  -6  14    1.06    0.15
 -10   6  14    0.74    0.12
   9  -6 -14    0.99    0.16
  -9  -6  14    1.63    0.23
   9  -6 -14    0.98    0.23
  -9  -6  14    1.00    0.16
  -9   6  14    1.18    0.17
   8  -6 -14    1.09    0.23
   8  -6 -14    1.25    0.17
  -8  -6  14    1.08    0.18
  -8  -6  14    1.07    0.16
  -8   6  14    1.39    0.18
   7  -6 -14    0.12    0.10
  -7  -6  14    0.24    0.14
   7  -6 -14    0.10    0.19
  -7  -6  14    0.13    0.11
  -7   6  14    0.05    0.09
  -6  -6  14    1.17    0.16
   6  -6 -14    1.09    0.21
  -6  -6  14    1.16    0.19
   6  -6 -14    1.16    0.16
  -6   6  14    1.21    0.17
  -5  -6  14    0.40    0.16
  -5  -6  14    0.34    0.11
   5  -6 -14    0.39    0.18
   5  -6 -14    0.33    0.12
  -5   6  14    0.44    0.12
  -4  -6  14    1.13    0.19
   4  -6 -14    1.25    0.17
  -4  -6  14    1.00    0.15
   4  -6 -14    0.98    0.19
  -4   6  14    0.91    0.14
  -4   6  14    0.74    0.16
  -3  -6  14    0.85    0.17
   3  -6 -14    0.78    0.12
  -3  -6  14    0.54    0.12
   3  -6 -14    0.51    0.18
  -3   6  14    0.70    0.13
  -3   6  14    0.55    0.15
  -2  -6  14    1.18    0.19
   2  -6 -14    0.91    0.16
   2  -6 -14    1.28    0.17
  -2  -6  14    0.89    0.14
   2   6 -14    0.85    0.14
  -2   6  14    0.98    0.17
  -2   6  14    1.00    0.15
  -1  -6  14    2.30    0.29
   1  -6 -14    1.95    0.25
  -1   6  14    1.98    0.27
  -1   6  14    2.44    0.24
   1   6 -14    2.19    0.24
   0  -6  14    0.63    0.19
   0   6  14    0.54    0.14
   0   6 -14    0.74    0.14
   0   6  14    0.52    0.13
  -1  -6 -14    1.41    0.21
   1  -6  14    1.35    0.22
  -1   6 -14    1.96    0.22
   1   6  14    1.23    0.19
   1   6  14    1.46    0.20
   2   6  14    0.04    0.11
   2   6  14    0.01    0.12
  -2   6 -14    0.17    0.12
   3   6  14    0.61    0.14
  -3   6 -14    0.69    0.14
   3   6  14    0.62    0.15
 -10  -7  14    0.07    0.11
 -10  -7  14   -0.15    0.12
  10  -7 -14    0.33    0.11
 -10   7  14    0.11    0.09
  -9  -7  14    9.79    0.71
  -9  -7  14    8.72    0.65
   9  -7 -14    8.76    0.63
  -9   7  14    9.16    0.63
   8  -7 -14    0.03    0.11
  -8  -7  14    0.11    0.13
  -8  -7  14   -0.13    0.10
   8  -7 -14   -0.29    0.19
  -8   7  14    0.02    0.09
  -7  -7  14    0.53    0.13
  -7  -7  14    0.82    0.16
   7  -7 -14    0.73    0.22
   7  -7 -14    0.45    0.13
  -7   7  14    0.65    0.12
   6  -7 -14   -0.03    0.10
   6  -7 -14   -0.16    0.17
  -6  -7  14    0.03    0.11
  -6  -7  14    0.17    0.14
  -6   7  14   -0.03    0.09
   5  -7 -14    2.31    0.30
  -5  -7  14    2.59    0.31
   5  -7 -14    2.39    0.25
  -5  -7  14    2.62    0.26
  -5   7  14    2.70    0.25
  -4  -7  14   -0.24    0.14
  -4  -7  14    0.13    0.11
   4  -7 -14   -0.18    0.16
   4  -7 -14   -0.09    0.10
  -4   7  14    0.11    0.10
  -3  -7  14    2.15    0.23
   3  -7 -14    1.73    0.26
   3  -7 -14    2.32    0.22
  -3  -7  14    2.02    0.28
  -3   7  14    2.09    0.22
  -3   7  14    2.13    0.27
  -2  -7  14   -0.07    0.15
   2  -7 -14   -0.06    0.10
  -2  -7  14    0.07    0.10
   2  -7 -14    0.16    0.13
  -2   7  14    0.01    0.13
  -2   7  14   -0.16    0.09
   2   7 -14    0.01    0.11
   1  -7 -14    2.43    0.28
  -1  -7  14    2.79    0.31
   1   7 -14    2.43    0.26
  -1   7  14    2.64    0.30
  -1   7  14    2.82    0.26
   0  -7 -14    0.25    0.12
   0  -7  14   -0.27    0.15
   0   7  14   -0.16    0.10
   0   7  14   -0.10    0.11
   0   7 -14    0.08    0.10
   1  -7  14    2.25    0.28
   1   7  14    1.89    0.26
  -1   7 -14    2.20    0.24
   1   7  14    1.69    0.22
   2  -7  14   -0.31    0.16
   2   7  14   -0.25    0.13
  -2   7 -14    0.01    0.12
   2   7  14   -0.19    0.10
  -9  -8  14    0.31    0.12
   9  -8 -14    0.47    0.12
  -9  -8  14    0.53    0.13
  -9   8  14    0.48    0.10
  -8  -8  14    2.31    0.26
  -8  -8  14    2.53    0.29
   8  -8 -14    2.62    0.25
  -8   8  14    2.54    0.24
  -7  -8  14    0.34    0.15
  -7  -8  14    0.21    0.12
   7  -8 -14    0.33    0.11
  -7   8  14    0.23    0.10
   6  -8 -14   -0.10    0.17
   6  -8 -14    0.00    0.10
  -6  -8  14    0.34    0.14
  -6  -8  14   -0.03    0.11
  -6   8  14   -0.11    0.09
  -5  -8  14    0.52    0.12
   5  -8 -14    0.06    0.11
   5  -8 -14    0.62    0.17
  -5  -8  14    0.13    0.15
  -5   8  14    0.15    0.10
  -4  -8  14    1.38    0.21
   4  -8 -14    1.59    0.20
  -4  -8  14    1.73    0.21
   4  -8 -14    1.48    0.23
  -4   8  14    1.68    0.20
  -3  -8  14    0.71    0.12
  -3  -8  14    0.53    0.17
   3  -8 -14    0.51    0.13
   3  -8 -14    0.45    0.16
  -3   8  14    0.49    0.12
  -3   8  14    0.74    0.15
   3   8 -14    0.45    0.14
   2  -8 -14    1.71    0.22
  -2  -8  14    1.20    0.21
  -2  -8  14    1.97    0.20
  -2   8  14    1.49    0.20
   2   8 -14    1.46    0.21
  -2   8  14    1.68    0.25
  -1  -8  14    0.69    0.19
   1  -8 -14    0.96    0.16
  -1   8  14    0.88    0.15
  -1   8  14    1.02    0.17
   1   8 -14    0.83    0.15
   0  -8  14    0.72    0.18
   0   8 -14    0.41    0.14
   0   8  14    0.54    0.13
   0   8  14    0.47    0.16
   1  -8  14    0.80    0.20
  -1   8 -14    1.25    0.18
   1   8  14    0.95    0.16
   1   8  14    1.48    0.24
  -2   8 -14    0.55    0.15
  -8  -9  14    0.29    0.12
  -8   9  14    0.53    0.10
   7  -9 -14    0.50    0.13
  -7  -9  14    0.26    0.12
  -7  -9  14    0.16    0.15
  -7   9  14    0.52    0.11
  -6  -9  14    0.27    0.10
  -6  -9  14    0.47    0.14
   6  -9 -14    0.11    0.10
  -6   9  14   -0.18    0.09
   5  -9 -14    0.40    0.12
  -5  -9  14    0.20    0.15
  -5  -9  14    0.68    0.12
  -5   9  14    0.28    0.10
  -4  -9  14    0.85    0.14
   4  -9 -14    0.80    0.13
  -4   9  14    0.77    0.13
  -3  -9  14    0.30    0.11
  -3  -9  14   -0.34    0.14
  -3   9  14    0.03    0.10
   3   9 -14   -0.19    0.11
  -2  -9  14    1.89    0.26
  -2  -9  14    2.22    0.22
  -2   9  14    2.65    0.27
  -2   9  14    1.54    0.21
   2   9 -14    1.76    0.23
  -1  -9  14   -0.13    0.15
   1   9 -14   -0.08    0.11
  -1   9  14    0.31    0.14
  -1   9  14   -0.18    0.10
   0  -9  14    0.80    0.20
   0   9  14    1.91    0.27
   0   9 -14    1.19    0.18
   0   9  14    1.27    0.18
  -6  10  14    0.37    0.10
  -5 -10  14    0.29    0.11
   5 -10 -14    0.26    0.11
  -5  10  14    0.10    0.09
   4  10 -14    0.75    0.15
  -4  10  14    0.90    0.14
   3  10 -14   -0.13    0.12
  -3  10  14    0.07    0.10
  -2 -10  14    0.96    0.20
   2  10 -14    1.55    0.21
  -2  10  14    1.53    0.18
 -11   0  15    0.67    0.13
 -11   0  15    0.41    0.10
  11   0 -15    0.36    0.11
  10   0 -15    0.05    0.10
 -10   0  15    0.12    0.08
 -10   0  15   -0.10    0.11
   9   0 -15    2.51    0.25
  -9   0  15    2.42    0.23
   9   0 -15    2.72    0.33
  -9   0  15    2.83    0.29
   8   0 -15    0.07    0.10
  -8   0  15    0.13    0.08
  -8   0  15    0.17    0.13
   8   0 -15   -0.10    0.17
  -7   0  15    1.45    0.23
   7   0 -15    0.97    0.21
  -7   0  15    1.36    0.17
  -6   0  15   -0.08    0.08
   6   0 -15    0.43    0.14
  -6   0  15    0.07    0.13
   5   0 -15    6.37    0.54
  -5   0  15    5.72    0.54
  -5   0  15    6.97    0.47
  -5   0  15    7.40    0.57
   4   0 -15   -0.11    0.12
  -4   0  15   -0.08    0.08
  -4   0  15   -0.24    0.12
  -4   0  15   -0.21    0.12
  -3   0  15    0.61    0.17
   3   0 -15    1.45    0.20
  -3   0  15    1.05    0.17
  -2   0  15    0.23    0.14
   2   0 -15    0.42    0.12
  -2   0  15    0.07    0.12
  -1   0  15    1.87    0.26
   1   0 -15    1.71    0.22
  -1   0  15    1.47    0.25
   0   0 -15    0.32    0.11
   0   0  15    0.07    0.14
   0   0  15    0.23    0.14
   1   0  15    2.35    0.31
   1   0  15    2.54    0.32
  -1   0 -15    2.81    0.27
   2   0  15    0.16    0.14
   2   0  15   -0.05    0.13
   3   0  15    0.61    0.18
   3   0  15    0.67    0.16
  12  -1 -15    0.20    0.10
  11  -1 -15    1.31    0.18
 -11  -1  15    1.27    0.19
  11   1 -15    0.84    0.15
 -11   1  15    1.21    0.20
 -11   1  15    0.75    0.13
 -10  -1  15    0.10    0.12
  10  -1 -15   -0.01    0.10
  10  -1 -15   -0.31    0.18
 -10   1  15   -0.04    0.11
 -10   1  15    0.13    0.08
  10   1 -15    0.19    0.10
  -9  -1  15    5.80    0.49
   9  -1 -15    5.70    0.53
   9  -1 -15    5.95    0.44
  -9   1  15    6.33    0.43
  -9   1  15    6.02    0.49
   9   1 -15    5.60    0.43
   8  -1 -15    0.66    0.20
   8  -1 -15    0.70    0.14
  -8   1  15    0.89    0.13
  -8   1  15    0.83    0.16
   7  -1 -15    3.61    0.30
   7  -1 -15    3.57    0.38
  -7  -1  15    4.00    0.33
  -7  -1  15    3.11    0.35
   7   1 -15    3.90    0.36
  -7   1  15    3.57    0.35
  -7   1  15    4.00    0.30
  -6  -1  15    0.18    0.11
  -6  -1  15   -0.09    0.13
   6  -1 -15    0.03    0.15
   6   1 -15    0.07    0.14
  -6   1  15    0.08    0.09
  -6   1  15   -0.06    0.12
  -5  -1  15    5.04    0.42
   5  -1 -15    5.49    0.46
  -5  -1  15    5.59    0.48
  -5  -1  15    4.55    0.45
  -5   1  15    6.25    0.46
   5   1 -15    4.93    0.44
   4  -1 -15   -0.13    0.13
  -4  -1  15   -0.17    0.12
  -4  -1  15   -0.16    0.13
  -4  -1  15    0.19    0.10
   4   1 -15    0.18    0.12
  -4   1  15   -0.21    0.09
  -4   1  15   -0.20    0.12
  -4   1  15   -0.10    0.12
   3  -1 -15    1.30    0.21
  -3  -1  15    1.40    0.19
  -3  -1  15    0.79    0.19
  -3  -1  15    1.37    0.19
  -3   1  15    1.14    0.16
  -3   1  15    1.01    0.19
   3   1 -15    1.41    0.20
  -3   1  15    1.20    0.18
   2  -1 -15    1.39    0.23
  -2  -1  15    1.89    0.26
  -2  -1  15    1.65    0.27
  -2   1  15    1.74    0.20
  -2   1  15    1.46    0.25
  -2   1  15    1.83    0.24
  -1  -1  15    0.70    0.16
  -1  -1  15    0.86    0.17
  -1   1  15    1.43    0.23
   1   1 -15    0.92    0.16
  -1   1  15    0.89    0.14
  -1   1  15    0.99    0.17
   0  -1 -15    0.81    0.16
   0  -1  15    1.06    0.19
   0  -1  15    0.96    0.18
   0   1  15    0.92    0.17
   0   1  15    0.83    0.17
   0   1  15    0.84    0.14
   1  -1  15    0.55    0.17
   1  -1  15    0.41    0.15
   1   1  15    0.97    0.18
  -1   1 -15    0.50    0.13
   1   1  15    0.91    0.17
   2  -1  15    0.70    0.17
  -2  -1 -15    1.25    0.18
   2  -1  15    1.07    0.19
   2   1  15    1.04    0.19
   2   1  15    0.74    0.17
   3  -1  15    0.26    0.14
   3  -1  15   -0.04    0.16
   3   1  15    0.31    0.15
   3   1  15    0.37    0.16
 -11  -2  15    0.04    0.11
  11  -2 -15    0.00    0.10
  11   2 -15    0.04    0.10
 -11   2  15    0.18    0.09
 -11   2  15    0.06    0.11
  10  -2 -15    3.80    0.30
 -10  -2  15    3.35    0.31
  10  -2 -15    3.07    0.38
 -10  -2  15    3.21    0.33
 -10   2  15    3.37    0.34
 -10   2  15    3.95    0.29
  10   2 -15    3.64    0.30
  -9  -2  15    0.53    0.14
   9  -2 -15    0.20    0.20
  -9  -2  15    0.21    0.12
  -8  -2  15    5.52    0.49
  -8  -2  15    6.12    0.45
   8  -2 -15    5.64    0.52
   8  -2 -15    5.81    0.43
  -8   2  15    5.51    0.49
  -8   2  15    6.13    0.43
   7  -2 -15    0.76    0.13
  -7  -2  15    0.43    0.14
  -7  -2  15    0.47    0.16
   7  -2 -15    0.59    0.20
  -7   2  15    0.51    0.11
  -7   2  15    0.79    0.15
   6  -2 -15    0.45    0.11
  -6  -2  15    0.53    0.13
   6  -2 -15    0.52    0.18
  -6  -2  15    0.28    0.15
  -6   2  15    0.41    0.14
  -6   2  15    0.52    0.12
  -5  -2  15    0.10    0.14
   5  -2 -15    0.75    0.18
  -5  -2  15    0.47    0.13
  -4  -2  15    0.06    0.12
  -4  -2  15   -0.07    0.13
   4  -2 -15    0.13    0.15
  -4  -2  15    0.08    0.10
  -4   2  15   -0.02    0.09
  -4   2  15   -0.03    0.12
  -4   2  15   -0.03    0.12
   3  -2 -15    0.20    0.13
  -3  -2  15    0.08    0.11
  -3  -2  15    0.08    0.14
  -3  -2  15    0.02    0.10
   3   2 -15    0.31    0.11
  -3   2  15    0.20    0.12
  -3   2  15    0.03    0.10
  -3   2  15    0.22    0.13
  -2  -2  15    2.24    0.33
  -2  -2  15    2.81    0.31
   2  -2 -15    3.09    0.30
  -2   2  15    2.74    0.31
   2   2 -15    2.91    0.28
  -2   2  15    2.98    0.30
  -2   2  15    3.12    0.27
  -1  -2  15    0.15    0.15
   1  -2 -15    0.38    0.12
  -1  -2  15    0.06    0.13
  -1   2  15    0.21    0.13
  -1   2  15    0.19    0.13
   1   2 -15    0.27    0.10
  -1   2  15    0.21    0.11
   0  -2  15    2.05    0.31
   0  -2 -15    2.16    0.25
   0  -2  15    2.49    0.30
   0   2  15    1.93    0.28
   0   2 -15    2.58    0.25
   0   2  15    2.25    0.24
   0   2  15    2.49    0.29
   1  -2  15    0.09    0.15
   1  -2  15   -0.28    0.12
  -1  -2 -15    0.31    0.11
   1   2  15   -0.18    0.10
   1   2  15    0.12    0.13
   1   2  15    0.05    0.14
   2  -2  15    1.09    0.20
   2  -2  15    0.98    0.18
   2   2  15    0.86    0.18
   2   2  15    0.75    0.14
   3  -2  15   -0.04    0.14
   3   2  15    0.10    0.11
   3   2  15   -0.26    0.13
 -11  -3  15    0.62    0.12
  11  -3 -15    0.39    0.12
 -11  -3  15    0.36    0.13
 -11   3  15    0.36    0.12
 -11   3  15    0.68    0.11
  10  -3 -15    0.62    0.13
 -10  -3  15    0.73    0.14
 -10  -3  15    0.28    0.12
 -10   3  15    0.74    0.12
  10   3 -15    0.43    0.12
  -9  -3  15    2.97    0.31
   9  -3 -15    2.24    0.36
   9  -3 -15    2.96    0.27
  -9  -3  15    2.61    0.29
  -9   3  15    2.95    0.25
  -9   3  15    2.83    0.30
  -8  -3  15    0.81    0.15
  -8  -3  15    0.60    0.16
   8  -3 -15    0.84    0.22
   8  -3 -15    0.81    0.14
  -8   3  15    0.82    0.13
  -7  -3  15   -0.09    0.14
   7  -3 -15    0.02    0.10
   7  -3 -15    0.12    0.19
  -7  -3  15    0.14    0.11
  -7   3  15   -0.12    0.12
  -7   3  15    0.08    0.10
   6  -3 -15   -0.03    0.09
  -6  -3  15   -0.15    0.14
  -6  -3  15    0.04    0.10
   6  -3 -15    0.01    0.17
  -6   3  15   -0.10    0.10
  -6   3  15   -0.16    0.12
  -5  -3  15    0.46    0.16
   5  -3 -15    0.72    0.17
  -5  -3  15    0.62    0.13
   5  -3 -15    0.62    0.12
  -5   3  15    0.88    0.15
  -5   3  15    0.64    0.15
  -5   3  15    0.53    0.12
   4  -3 -15    0.30    0.15
   4  -3 -15    0.16    0.10
  -4  -3  15    0.18    0.11
  -4  -3  15    0.07    0.14
  -4   3  15    0.03    0.13
  -4   3  15    0.05    0.13
  -4   3  15    0.04    0.10
  -3  -3  15    0.05    0.13
   3  -3 -15   -0.10    0.14
   3  -3 -15   -0.10    0.09
  -3  -3  15    0.08    0.09
  -3   3  15   -0.08    0.13
  -3   3  15   -0.02    0.10
  -3   3  15   -0.19    0.12
  -2  -3  15    0.98    0.18
   2  -3 -15    1.86    0.18
   2  -3 -15    1.55    0.22
  -2  -3  15    1.25    0.20
  -2   3  15    1.46    0.21
  -2   3  15    1.78    0.23
  -2   3  15    1.47    0.24
  -1  -3  15    0.09    0.14
   1  -3 -15    0.28    0.13
   1  -3 -15    0.15    0.10
  -1  -3  15    0.03    0.13
  -1   3  15   -0.04    0.13
  -1   3  15    0.08    0.11
   0  -3  15    2.58    0.33
   0  -3  15    2.83    0.32
   0  -3 -15    2.66    0.28
   0   3  15    2.74    0.26
   0   3  15    2.77    0.31
   1  -3  15    0.38    0.17
  -1  -3 -15    0.63    0.13
   1   3  15    0.11    0.12
   1   3  15    0.46    0.14
   2  -3  15    2.27    0.30
   2  -3  15    1.97    0.29
  -2   3 -15    2.86    0.26
   2   3  15    2.30    0.25
   2   3  15    2.20    0.29
   3   3  15   -0.06    0.11
  -3   3 -15    0.14    0.10
  11  -4 -15   -0.06    0.10
 -11  -4  15    0.04    0.12
 -11  -4  15   -0.14    0.10
 -11   4  15    0.06    0.08
 -11   4  15    0.01    0.10
  10  -4 -15    2.45    0.24
 -10  -4  15    2.25    0.26
 -10  -4  15    1.68    0.24
 -10   4  15    2.14    0.26
 -10   4  15    2.39    0.22
   9  -4 -15    1.12    0.29
  -9  -4  15    1.68    0.23
  -9  -4  15    1.76    0.25
   9  -4 -15    1.97    0.22
  -9   4  15    1.48    0.19
  -9   4  15    2.37    0.25
  -8  -4  15    0.13    0.15
   8  -4 -15    0.31    0.21
  -8  -4  15    0.45    0.13
   8  -4 -15    0.36    0.12
  -8   4  15    0.25    0.12
  -8   4  15    0.20    0.10
  -7  -4  15    0.37    0.16
  -7  -4  15    0.53    0.13
   7  -4 -15    0.33    0.11
   7  -4 -15    0.18    0.20
  -7   4  15    0.13    0.12
  -7   4  15    0.23    0.10
   6  -4 -15   -0.04    0.18
  -6  -4  15   -0.28    0.13
  -6  -4  15    0.20    0.10
   6  -4 -15    0.05    0.10
  -6   4  15   -0.25    0.11
  -6   4  15    0.00    0.10
  -5  -4  15    0.21    0.15
   5  -4 -15    0.42    0.16
  -5  -4  15    0.46    0.12
   5  -4 -15    0.38    0.12
  -5   4  15    0.42    0.12
  -5   4  15    0.55    0.14
  -4  -4  15    0.65    0.13
   4  -4 -15    0.75    0.16
   4  -4 -15    0.55    0.12
  -4  -4  15    0.51    0.17
  -4   4  15    0.67    0.15
  -4   4  15    0.73    0.14
   3  -4 -15    0.04    0.10
  -3  -4  15    0.30    0.10
   3  -4 -15    0.02    0.15
  -3  -4  15    0.16    0.15
  -3   4  15    0.18    0.10
  -3   4  15    0.11    0.13
   2  -4 -15    0.22    0.11
   2  -4 -15    0.46    0.14
  -2  -4  15   -0.04    0.15
  -2   4  15    0.04    0.11
  -2   4  15    0.26    0.13
  -1  -4  15    1.15    0.19
   1  -4 -15    1.02    0.14
   1  -4 -15    1.42    0.20
  -1   4  15    0.92    0.16
  -1   4  15    1.07    0.16
   0  -4 -15    1.25    0.20
   0  -4  15    0.99    0.20
   0   4  15    0.97    0.17
   0   4  15    1.00    0.15
   1  -4  15    0.83    0.18
   1   4  15    0.62    0.17
  -1   4 -15    0.60    0.13
   1   4  15    0.50    0.14
   2  -4  15    0.46    0.18
  -2   4 -15    0.79    0.15
   2   4  15    0.76    0.15
  -3   4 -15    0.25    0.10
 -10  -5  15    0.09    0.10
  10  -5 -15   -0.05    0.10
 -10  -5  15    0.24    0.13
 -10   5  15   -0.02    0.09
  -9  -5  15    8.70    0.64
   9  -5 -15    8.79    0.61
  -9  -5  15    8.50    0.69
  -9   5  15    9.06    0.61
   8  -5 -15    0.17    0.20
  -8  -5  15   -0.04    0.14
  -8  -5  15    0.16    0.10
   8  -5 -15    0.17    0.11
  -8   5  15    0.08    0.10
   7  -5 -15    3.10    0.27
  -7  -5  15    2.63    0.28
   7  -5 -15    2.36    0.34
  -7  -5  15    2.95    0.32
  -7   5  15    2.77    0.25
   6  -5 -15    0.16    0.10
  -6  -5  15    0.22    0.15
   6  -5 -15    0.07    0.18
  -6  -5  15    0.01    0.11
  -6   5  15   -0.05    0.10
   5  -5 -15    0.11    0.11
  -5  -5  15    0.20    0.15
  -5  -5  15    0.16    0.11
   5  -5 -15    0.49    0.17
  -5   5  15    0.21    0.11
  -4  -5  15    0.12    0.11
  -4  -5  15    0.08    0.16
   4  -5 -15    0.51    0.14
   4  -5 -15    0.25    0.11
  -4   5  15    0.23    0.11
  -4   5  15    0.12    0.14
   3  -5 -15    0.54    0.12
   3  -5 -15    0.59    0.17
  -3  -5  15    0.66    0.17
  -3  -5  15    0.50    0.13
  -3   5  15    0.85    0.14
  -3   5  15    0.50    0.16
   2  -5 -15    0.32    0.11
   2  -5 -15    0.51    0.15
  -2  -5  15    0.25    0.16
  -2   5  15    0.13    0.14
  -2   5  15    0.23    0.12
   1  -5 -15    1.90    0.23
  -1  -5  15    1.87    0.27
  -1   5  15    1.74    0.24
  -1   5  15    1.68    0.22
   0  -5 -15    0.10    0.13
   0  -5  15   -0.27    0.16
   0   5  15    0.00    0.10
   0   5  15    0.00    0.12
   1  -5  15    0.04    0.15
  -1   5 -15    0.19    0.11
   1   5  15    0.15    0.14
   1   5  15   -0.17    0.11
   2  -5  15    0.00    0.15
  -2   5 -15    0.00    0.10
   2   5  15   -0.11    0.12
   9  -6 -15    0.31    0.13
  -9  -6  15    0.63    0.15
  -9  -6  15    0.44    0.12
  -9   6  15    0.55    0.12
  -8  -6  15    3.53    0.36
   8  -6 -15    3.55    0.31
  -8  -6  15    3.61    0.33
  -8   6  15    3.44    0.30
   7  -6 -15    0.77    0.14
   7  -6 -15    0.64    0.22
  -7  -6  15    0.76    0.15
  -7  -6  15    0.74    0.16
  -7   6  15    0.80    0.13
   6  -6 -15    0.04    0.10
  -6  -6  15    0.09    0.10
   6  -6 -15   -0.10    0.17
  -6  -6  15   -0.02    0.14
  -6   6  15   -0.14    0.09
   5  -6 -15    0.39    0.17
  -5  -6  15   -0.02    0.15
   5  -6 -15    0.10    0.11
  -5  -6  15    0.15    0.11
  -5   6  15    0.19    0.10
  -4  -6  15   -0.17    0.15
   4  -6 -15    0.04    0.10
   4  -6 -15    0.36    0.16
  -4  -6  15    0.06    0.10
  -4   6  15    0.14    0.12
  -4   6  15   -0.08    0.10
  -3  -6  15    0.21    0.10
  -3  -6  15    0.07    0.15
   3  -6 -15    0.23    0.11
   3  -6 -15    0.21    0.15
  -3   6  15    0.22    0.14
  -3   6  15    0.14    0.10
   2  -6 -15    1.76    0.19
  -2  -6  15    1.16    0.20
  -2   6  15    1.21    0.17
  -2   6  15    1.10    0.18
   1  -6 -15    0.99    0.16
  -1  -6  15    0.71    0.19
  -1   6  15    0.92    0.16
  -1   6  15    0.83    0.14
   0  -6  15    0.33    0.17
   0   6 -15    0.56    0.14
   0   6  15    0.50    0.14
   0   6  15    0.58    0.13
   1  -6  15    0.03    0.16
  -1   6 -15    0.29    0.11
   1   6  15    0.09    0.13
   1   6  15   -0.17    0.10
  -2   6 -15    0.45    0.13
   8  -7 -15    0.82    0.15
  -8  -7  15    0.89    0.15
  -8  -7  15    0.50    0.17
  -8   7  15    1.14    0.16
   7  -7 -15   -0.15    0.10
  -7  -7  15    0.03    0.10
  -7  -7  15   -0.27    0.15
  -7   7  15    0.07    0.09
  -6  -7  15    0.41    0.15
   6  -7 -15    0.07    0.10
  -6  -7  15    0.06    0.10
  -6   7  15    0.03    0.10
  -5  -7  15    0.02    0.15
   5  -7 -15    0.31    0.12
  -5  -7  15    0.17    0.11
  -5   7  15    0.23    0.10
   4  -7 -15    0.10    0.11
   4  -7 -15    0.04    0.16
  -4  -7  15   -0.02    0.15
  -4  -7  15    0.07    0.10
  -4   7  15    0.01    0.10
  -3  -7  15    0.03    0.15
  -3  -7  15    0.00    0.10
   3  -7 -15    0.06    0.11
  -3   7  15    0.09    0.11
  -3   7  15    0.10    0.13
  -2  -7  15    1.68    0.25
  -2   7  15    1.49    0.23
  -2   7  15    1.37    0.20
  -1  -7  15   -0.09    0.15
  -1   7  15   -0.17    0.10
  -1   7  15    0.01    0.12
   1   7 -15    0.15    0.11
   0  -7  15    2.37    0.29
   0   7  15    2.08    0.24
   0   7 -15    2.73    0.26
   0   7  15    2.25    0.28
  -1   7 -15   -0.11    0.11
   7  -8 -15    0.51    0.12
  -7  -8  15    0.20    0.11
  -7  -8  15   -0.05    0.15
  -7   8  15    0.18    0.10
  -6  -8  15    0.94    0.17
   6  -8 -15    0.88    0.14
  -6  -8  15    0.69    0.14
  -6   8  15    0.52    0.13
  -5  -8  15   -0.11    0.11
   5  -8 -15    0.00    0.11
  -5   8  15    0.06    0.09
   4  -8 -15    0.43    0.13
  -4  -8  15    0.25    0.17
  -4  -8  15    0.44    0.13
  -4   8  15    0.40    0.11
  -3  -8  15   -0.18    0.16
  -3  -8  15    0.05    0.10
   3  -8 -15    0.03    0.11
  -3   8  15   -0.07    0.09
  -2  -8  15    1.54    0.24
  -2   8  15    1.02    0.18
  -2   8  15    1.25    0.17
  -1  -8  15    0.53    0.18
  -1   8  15    0.66    0.14
  -1   8  15    0.87    0.16
   1   8 -15    0.96    0.15
  -5  -9  15    0.17    0.12
  -4  -9  15    0.11    0.11
  -4   9  15   -0.06    0.10
  -3  -9  15    0.44    0.13
 -10   0  16    9.83    0.77
  10   0 -16   10.23    0.68
  -9   0  16    0.71    0.14
   9   0 -16    0.33    0.11
   8   0 -16    2.02    0.22
  -8   0  16    1.93    0.26
   8   0 -16    2.48    0.31
   7   0 -16   -0.10    0.09
  -7   0  16   -0.24    0.12
   6   0 -16    3.91    0.35
  -6   0  16    3.34    0.34
  -5   0  16   -0.07    0.13
  -5   0  16    0.34    0.13
   5   0 -16    0.08    0.13
  -4   0  16    2.18    0.31
  -4   0  16    3.59    0.35
   4   0 -16    3.06    0.30
   3   0 -16   -0.04    0.12
  -3   0  16   -0.25    0.13
  -3   0  16   -0.21    0.12
  -2   0  16    0.29    0.14
   2   0 -16    0.37    0.11
  -1   0  16   -0.05    0.13
  -1   0  16   -0.09    0.14
   1   0 -16    0.00    0.11
   0   0  16    0.80    0.18
   0   0  16    0.78    0.16
   1   0  16   -0.04    0.13
   1   0  16    0.11    0.13
   2   0  16    1.58    0.22
   2   0  16    1.27    0.21
 -10  -1  16    0.64    0.15
  10   1 -16    1.09    0.16
  -9  -1  16    3.17    0.32
   9  -1 -16    3.21    0.29
   9   1 -16    3.21    0.28
  -9   1  16    3.04    0.27
  -9   1  16    3.48    0.32
  -8  -1  16    0.29    0.14
   8  -1 -16    0.79    0.13
   8  -1 -16    0.56    0.20
  -8   1  16    0.47    0.15
   7  -1 -16    0.23    0.16
   7  -1 -16   -0.09    0.09
  -7  -1  16   -0.19    0.12
  -7   1  16   -0.02    0.08
  -7   1  16    0.01    0.12
  -6  -1  16    1.75    0.26
   6  -1 -16    2.14    0.22
   6  -1 -16    1.71    0.29
  -6   1  16    2.43    0.27
  -6   1  16    2.61    0.22
  -5  -1  16    0.16    0.14
  -5   1  16    0.16    0.14
  -5   1  16    0.42    0.14
   5   1 -16    0.48    0.13
  -4  -1  16    1.12    0.21
   4  -1 -16    1.88    0.23
  -4   1  16    1.83    0.20
  -4   1  16    2.07    0.28
   4   1 -16    1.44    0.22
  -4   1  16    1.48    0.25
  -3  -1  16    0.07    0.14
  -3  -1  16   -0.09    0.12
   3  -1 -16    0.08    0.12
  -3   1  16   -0.16    0.13
  -3   1  16   -0.24    0.12
   3   1 -16    0.26    0.12
  -2  -1  16    0.02    0.13
  -2  -1  16    0.20    0.13
   2  -1 -16    0.42    0.12
  -2   1  16    0.19    0.13
   2   1 -16    0.08    0.12
  -2   1  16    0.00    0.12
  -1  -1  16    0.19    0.15
   1  -1 -16    0.36    0.13
  -1  -1  16    0.26    0.14
  -1   1  16    0.14    0.13
  -1   1  16    0.48    0.14
   0  -1  16    0.51    0.15
   0  -1  16    0.54    0.17
   0   1  16    0.88    0.16
   0   1  16    0.49    0.16
   0   1 -16    0.93    0.15
   1  -1  16    0.14    0.14
   1  -1  16    0.24    0.16
   1   1  16    0.33    0.13
   1   1  16   -0.04    0.14
   2  -1  16    1.15    0.21
   2   1  16    1.28    0.20
  10  -2 -16    0.33    0.11
 -10  -2  16    0.57    0.14
 -10   2  16    0.65    0.14
  10   2 -16    0.37    0.11
 -10   2  16    0.26    0.10
   9  -2 -16    2.98    0.27
  -9  -2  16    2.71    0.30
  -9  -2  16    2.34    0.28
  -9   2  16    3.25    0.31
  -9   2  16    2.75    0.26
  -8  -2  16    0.48    0.16
   8  -2 -16    0.36    0.21
   8  -2 -16    0.74    0.14
  -8   2  16    0.79    0.13
  -8   2  16    0.44    0.14
   7  -2 -16   -0.11    0.09
  -7  -2  16   -0.08    0.10
  -7  -2  16    0.00    0.13
   7  -2 -16   -0.03    0.17
  -7   2  16   -0.03    0.09
  -6  -2  16    0.18    0.14
   6  -2 -16    0.14    0.16
  -6  -2  16    0.10    0.11
   6  -2 -16    0.22    0.10
  -6   2  16    0.19    0.09
  -6   2  16    0.25    0.13
  -5  -2  16    0.23    0.11
   5  -2 -16    0.14    0.10
  -5  -2  16    0.16    0.15
   5  -2 -16    0.41    0.16
  -5   2  16    0.42    0.13
  -5   2  16    0.49    0.13
  -5   2  16    0.07    0.10
   4  -2 -16    0.12    0.14
   4  -2 -16    0.04    0.09
  -4  -2  16   -0.09    0.14
  -4  -2  16    0.08    0.10
  -4   2  16    0.17    0.13
  -4   2  16   -0.04    0.12
  -4   2  16   -0.05    0.10
  -3  -2  16   -0.03    0.14
  -3  -2  16   -0.20    0.12
   3  -2 -16    0.31    0.13
   3  -2 -16    0.06    0.09
  -3   2  16   -0.07    0.12
  -3   2  16    0.07    0.13
  -3   2  16    0.19    0.10
   2  -2 -16    0.29    0.13
  -2  -2  16    0.13    0.14
   2  -2 -16    0.09    0.10
  -2  -2  16   -0.12    0.12
  -2   2  16   -0.14    0.13
  -2   2  16    0.29    0.10
  -2   2  16    0.21    0.13
  -1  -2  16    0.51    0.16
   1  -2 -16    0.82    0.12
  -1  -2  16    0.62    0.17
   1  -2 -16    0.88    0.16
  -1   2  16    0.66    0.16
  -1   2  16    0.53    0.14
   0  -2  16    0.04    0.14
   0  -2  16   -0.03    0.13
   0   2  16   -0.12    0.13
   0   2  16    0.18    0.13
   0   2  16   -0.12    0.10
   1  -2  16    1.42    0.21
   1  -2  16    1.02    0.19
   1   2  16    1.26    0.20
  10  -3 -16    0.31    0.11
 -10  -3  16    0.36    0.11
 -10  -3  16    0.35    0.13
  10   3 -16    0.21    0.11
 -10   3  16    0.17    0.10
   9  -3 -16    4.61    0.35
  -9  -3  16    3.92    0.36
  -9  -3  16    4.21    0.39
  -9   3  16    4.27    0.33
  -9   3  16    4.00    0.39
   8  -3 -16   -0.02    0.10
  -8  -3  16   -0.02    0.10
  -8  -3  16   -0.18    0.13
  -8   3  16    0.15    0.12
  -8   3  16    0.11    0.10
  -7  -3  16    0.27    0.12
  -7  -3  16    0.07    0.14
   7  -3 -16    0.25    0.18
   7  -3 -16    0.10    0.11
  -7   3  16   -0.13    0.13
  -7   3  16    0.16    0.10
   6  -3 -16    0.35    0.11
   6  -3 -16    0.70    0.18
  -6  -3  16    0.33    0.15
  -6  -3  16    0.42    0.13
  -6   3  16    0.13    0.14
  -6   3  16    0.26    0.10
  -5  -3  16    1.26    0.20
  -5  -3  16    1.16    0.17
   5  -3 -16    1.33    0.19
   5  -3 -16    1.74    0.24
  -5   3  16    1.39    0.19
  -5   3  16    1.87    0.24
  -4  -3  16   -0.17    0.14
   4  -3 -16    0.07    0.10
  -4  -3  16    0.01    0.10
   4  -3 -16   -0.10    0.14
  -4   3  16   -0.08    0.10
  -4   3  16    0.05    0.13
  -4   3  16   -0.05    0.12
   3  -3 -16    0.08    0.13
   3  -3 -16    0.14    0.10
  -3  -3  16   -0.09    0.14
  -3   3  16   -0.10    0.13
  -3   3  16    0.05    0.10
   2  -3 -16    0.08    0.10
   2  -3 -16    0.16    0.13
  -2  -3  16   -0.04    0.14
  -2   3  16    0.18    0.12
  -2   3  16    0.29    0.10
   1  -3 -16    0.96    0.16
  -1  -3  16    0.52    0.17
  -1   3  16    0.37    0.13
  -1   3  16    0.63    0.15
   0  -3  16    0.21    0.15
   0   3  16    0.15    0.11
   0   3  16   -0.12    0.13
   1  -3  16    0.44    0.18
   1  -3  16    0.55    0.16
   1   3  16    1.00    0.16
   9  -4 -16    0.04    0.10
  -9  -4  16    0.02    0.14
  -9  -4  16    0.06    0.11
  -9   4  16    0.29    0.10
  -8  -4  16    0.79    0.19
  -8  -4  16    1.50    0.21
   8  -4 -16    1.08    0.16
  -8   4  16    1.51    0.19
   7  -4 -16   -0.09    0.09
  -7  -4  16    0.00    0.14
  -7  -4  16    0.17    0.11
  -7   4  16   -0.07    0.09
  -6  -4  16    1.57    0.20
   6  -4 -16    1.68    0.26
   6  -4 -16    1.04    0.16
  -6  -4  16    1.27    0.20
  -6   4  16    1.32    0.19
   5  -4 -16    0.33    0.11
   5  -4 -16    0.69    0.16
  -5  -4  16    0.37    0.12
  -5  -4  16    0.22    0.16
  -5   4  16    0.66    0.12
   4  -4 -16    0.04    0.15
   4  -4 -16    0.01    0.10
  -4  -4  16   -0.35    0.14
  -4  -4  16    0.15    0.10
  -4   4  16    0.03    0.13
  -4   4  16   -0.08    0.10
   3  -4 -16    0.17    0.14
  -3  -4  16   -0.02    0.15
   3  -4 -16   -0.02    0.10
  -3   4  16   -0.04    0.10
  -3   4  16    0.00    0.13
   2  -4 -16   -0.19    0.10
  -2  -4  16   -0.04    0.14
  -2   4  16   -0.06    0.12
  -2   4  16    0.25    0.10
  -1  -4  16    0.18    0.16
  -1   4  16    0.39    0.12
  -1   4  16    0.11    0.12
   0  -4  16    0.40    0.16
   0   4  16    0.28    0.12
   0   4  16    0.24    0.14
  -8  -5  16    1.03    0.16
  -8  -5  16    0.53    0.17
   8  -5 -16    0.82    0.14
  -8   5  16    0.64    0.13
  -7  -5  16   -0.05    0.14
   7  -5 -16   -0.15    0.10
  -7  -5  16    0.00    0.11
  -7   5  16    0.01    0.09
  -6  -5  16    0.67    0.13
  -6  -5  16    0.50    0.16
   6  -5 -16    0.64    0.12
  -6   5  16    0.31    0.12
   5  -5 -16    0.09    0.10
  -5  -5  16   -0.12    0.15
  -5  -5  16    0.23    0.11
  -5   5  16    0.16    0.10
  -4  -5  16    0.10    0.10
  -4  -5  16   -0.26    0.15
   4  -5 -16    0.01    0.10
  -4   5  16    0.04    0.10
  -4   5  16    0.28    0.13
  -3  -5  16    0.04    0.15
   3  -5 -16    0.00    0.10
  -3   5  16    0.04    0.10
  -3   5  16    0.22    0.13
  -2  -5  16    0.18    0.14
   2  -5 -16    0.18    0.11
  -2   5  16    0.31    0.10
  -2   5  16    0.12    0.13
  -1  -5  16   -0.04    0.15
  -1   5  16    0.08    0.13
   0  -5  16    0.83    0.18
   0   5  16    0.70    0.15
   0   5  16    0.91    0.15
  -7  -6  16    0.26    0.10
   7  -6 -16   -0.03    0.10
  -7  -6  16    0.20    0.15
  -7   6  16    0.16    0.10
   6  -6 -16    0.78    0.13
  -6  -6  16    0.78    0.16
  -6  -6  16    0.40    0.13
  -6   6  16    0.27    0.11
  -5  -6  16    0.18    0.12
   5  -6 -16    0.45    0.12
  -5  -6  16    0.04    0.16
  -5   6  16    0.52    0.12
   4  -6 -16    0.07    0.10
  -4  -6  16   -0.06    0.11
  -4  -6  16   -0.13    0.15
  -4   6  16   -0.02    0.10
   3  -6 -16    0.01    0.10
  -3  -6  16   -0.06    0.15
  -3   6  16    0.01    0.10
  -3   6  16    0.08    0.13
  -2  -6  16    0.34    0.16
  -2   6  16    0.31    0.14
  -2   6  16    0.55    0.12
  -1  -6  16   -0.15    0.15
  -1   6  16    0.02    0.13
  -1   6  16   -0.18    0.11
  -6  -7  16   -0.12    0.11
  -6   7  16   -0.06    0.10
   5  -7 -16    1.29    0.19
  -5  -7  16    0.93    0.21
  -5  -7  16    1.27    0.17
  -5   7  16    1.67    0.19
  -4  -7  16   -0.19    0.10
   4  -7 -16    0.05    0.10
  -4  -7  16   -0.26    0.15
  -4   7  16   -0.04    0.10
  -3   7  16    0.16    0.11
  -9   0  17    1.70    0.24
   8   0 -17   -0.10    0.09
   7   0 -17    0.24    0.10
  -7   0  17    0.28    0.14
  -6   0  17    0.14    0.13
  -5   0  17    3.66    0.36
  -4   0  17    0.21    0.14
  -3   0  17    0.29    0.14
  -2   0  17    0.07    0.13
  -2   0  17   -0.13    0.13
  -1   0  17    0.67    0.15
  -1   0  17    0.04    0.14
   0   0  17   -0.25    0.15
  -9   1  17    2.75    0.30
   8  -1 -17    0.09    0.10
  -8  -1  17   -0.27    0.13
  -8   1  17   -0.12    0.13
   8   1 -17    0.09    0.10
  -7  -1  17    0.26    0.15
   7  -1 -17    0.52    0.12
  -7   1  17    0.16    0.14
   6  -1 -17    0.10    0.09
  -6  -1  17    0.34    0.13
  -6   1  17    0.19    0.13
   5  -1 -17    3.09    0.25
  -5  -1  17    2.20    0.30
  -4  -1  17    0.33    0.13
  -4  -1  17   -0.22    0.14
   4  -1 -17    0.06    0.09
  -4   1  17   -0.16    0.13
  -4   1  17    0.23    0.13
  -3  -1  17   -0.23    0.14
  -3  -1  17    0.20    0.14
  -3   1  17    0.28    0.14
  -3   1  17   -0.10    0.14
  -2  -1  17    0.05    0.14
  -2  -1  17   -0.01    0.13
  -2   1  17    0.01    0.13
  -2   1  17   -0.33    0.13
  -1  -1  17    0.30    0.14
  -1   1  17    0.01    0.13
  -1   1  17    0.47    0.14
   8  -2 -17    1.31    0.18
  -8  -2  17    0.65    0.16
  -8   2  17    0.75    0.15
   7  -2 -17    0.09    0.10
  -7  -2  17   -0.07    0.14
  -7   2  17   -0.22    0.13
  -7   2  17    0.17    0.10
   6  -2 -17    0.41    0.12
  -6  -2  17    0.74    0.15
  -6   2  17    0.30    0.14
  -6   2  17    0.58    0.12
   5  -2 -17    0.32    0.11
  -5  -2  17    0.00    0.14
  -5   2  17    0.14    0.11
   4  -2 -17    0.23    0.11
  -4  -2  17   -0.13    0.15
  -4   2  17    0.54    0.14
  -4   2  17    0.48    0.11
  -4   2  17    0.17    0.14
  -3  -2  17   -0.23    0.15
   3  -2 -17    0.03    0.10
  -3   2  17    0.20    0.13
  -3   2  17   -0.14    0.14
  -2  -2  17    0.17    0.14
   2  -2 -17    0.03    0.10
  -2   2  17   -0.25    0.12
  -2   2  17   -0.27    0.13
  -1  -2  17   -0.10    0.14
  -1   2  17    0.13    0.13
  -8  -3  17   -0.04    0.14
  -8  -3  17    0.50    0.12
  -8   3  17    0.46    0.13
  -8   3  17    0.24    0.11
   7  -3 -17   -0.03    0.10
  -7  -3  17    0.00    0.14
  -7  -3  17   -0.01    0.10
  -7   3  17   -0.20    0.10
  -7   3  17   -0.21    0.13
  -6  -3  17    0.52    0.13
  -6  -3  17    0.58    0.15
   6  -3 -17    0.31    0.11
  -6   3  17    0.57    0.12
  -5  -3  17    0.37    0.16
   5  -3 -17    0.42    0.12
  -5  -3  17    0.47    0.12
  -5   3  17    0.33    0.12
   4  -3 -17    0.38    0.11
  -4  -3  17   -0.05    0.15
  -4   3  17    0.51    0.12
  -4   3  17    0.36    0.14
  -3  -3  17   -0.34    0.14
   3  -3 -17    0.06    0.10
  -3   3  17   -0.17    0.10
  -3   3  17    0.05    0.13
  -2  -3  17    0.24    0.15
   2  -3 -17    0.11    0.11
  -2   3  17   -0.04    0.10
  -2   3  17   -0.05    0.13
  -7  -4  17    0.18    0.14
   7  -4 -17    0.05    0.10
  -7  -4  17    0.03    0.11
  -7   4  17    0.06    0.10
   6  -4 -17    0.46    0.12
  -6  -4  17    0.91    0.16
  -6  -4  17    0.47    0.13
  -6   4  17    0.63    0.13
  -5  -4  17    0.92    0.15
   5  -4 -17    0.93    0.15
  -5  -4  17    0.90    0.19
  -5   4  17    1.08    0.15
  -4  -4  17   -0.21    0.14
   4  -4 -17    0.17    0.11
  -4   4  17    0.19    0.11
  -3  -4  17   -0.22    0.15
   3  -4 -17   -0.11    0.10
  -3   4  17   -0.07    0.10
  -3   4  17    0.12    0.13
  -2  -4  17    0.17    0.15
  -5  -5  17    1.81    0.23
   0   0   0    0.00    0.00
;
_shelx_hkl_checksum              35128
_olex2_submission_special_instructions 'No special instructions were received'
loop_
_space_group_symop_operation_xyz
'x, y, z'
'-x+1/2, y+1/2, -z+1/2'
'-x, -y, -z'
'x-1/2, -y-1/2, z-1/2'
loop_
_atom_site_label
_atom_site_type_symbol
_atom_site_fract_x
_atom_site_fract_y
_atom_site_fract_z
_atom_site_U_iso_or_equiv
_atom_site_adp_type
_atom_site_occupancy
_atom_site_site_symmetry_order
_atom_site_calc_flag
_atom_site_refinement_flags_posn
_atom_site_refinement_flags_adp
Ru1 Ru 0.50811(4) 0.85374(4) 0.75902(3) 0.0618(5) Uani 1 1 d . U
C2 C 0.3746(5) 0.8627(4) 0.8298(5) 0.066(2) Uani 1 1 d . U
C35 C 0.6209(6) 0.8632(6) 0.5621(5) 0.081(2) Uani 1 1 d . U
C21 C 0.3976(6) 0.8669(6) 0.9558(5) 0.079(2) Uani 1 1 d . U
C20 C 0.5163(6) 0.8666(4) 0.9127(5) 0.063(2) Uani 1 1 d . U
C42 C 0.7879(5) 0.8673(5) 0.9255(5) 0.070(2) Uani 1 1 d . U
C19 C 0.5719(5) 0.8729(5) 0.9811(5) 0.069(2) Uani 1 1 d . U
H19 H 0.5584 0.8760 1.0231 0.083 Uiso 1 1 calc R .
C3 C 0.2874(5) 0.8631(5) 0.8132(5) 0.073(2) Uani 1 1 d . U
H3 H 0.2579 0.8622 0.8456 0.088 Uiso 1 1 calc R .
C4 C 0.2557(6) 0.8650(5) 0.7432(5) 0.072(2) Uani 1 1 d . U
H4 H 0.1994 0.8658 0.7174 0.086 Uiso 1 1 calc R .
C50 C 0.4293(5) 0.7137(5) 0.7333(4) 0.061(2) Uani 1 1 d . U
H50 H 0.3800 0.7394 0.7149 0.074 Uiso 1 1 calc R .
N2 N 0.4589(4) 0.8630(3) 0.6541(4) 0.0615(18) Uani 1 1 d . U
N4 N 0.5572(4) 0.8627(3) 0.8652(4) 0.0621(19) Uani 1 1 d . U
N1 N 0.3939(4) 0.8632(3) 0.7687(4) 0.0592(18) Uani 1 1 d . U
C15 C 0.6948(5) 0.8601(4) 0.8042(5) 0.065(2) Uani 1 1 d . U
C5 C 0.3208(5) 0.8657(4) 0.7142(5) 0.067(2) Uani 1 1 d . U
C1 C 0.4320(6) 0.8643(4) 0.8972(5) 0.065(2) Uani 1 1 d . U
C16 C 0.7029(5) 0.8642(4) 0.8745(5) 0.063(2) Uani 1 1 d . U
C11 C 0.5855(6) 0.8617(4) 0.6210(5) 0.074(2) Uani 1 1 d . U
C7 C 0.3773(6) 0.8696(4) 0.6151(5) 0.064(2) Uani 1 1 d . U
C10 C 0.5007(6) 0.8670(4) 0.6064(5) 0.066(2) Uani 1 1 d . U
C12 C 0.6418(5) 0.8575(4) 0.6891(5) 0.066(2) Uani 1 1 d . U
C14 C 0.7598(6) 0.8587(5) 0.7743(5) 0.076(2) Uani 1 1 d . U
H14 H 0.8161 0.8588 0.8000 0.091 Uiso 1 1 calc R .
C13 C 0.7284(5) 0.8571(5) 0.7047(5) 0.075(2) Uani 1 1 d . U
H13 H 0.7577 0.8560 0.6720 0.090 Uiso 1 1 calc R .
C28 C 0.2289(5) 0.8704(5) 0.5927(5) 0.067(2) Uani 1 1 d . U
C8 C 0.3706(6) 0.8787(5) 0.5430(5) 0.072(2) Uani 1 1 d . U
H8 H 0.3215 0.8855 0.5057 0.087 Uiso 1 1 calc R .
C9 C 0.4456(6) 0.8759(5) 0.5375(5) 0.075(2) Uani 1 1 d . U
H9 H 0.4594 0.8793 0.4957 0.090 Uiso 1 1 calc R .
C6 C 0.3130(5) 0.8689(4) 0.6437(5) 0.065(2) Uani 1 1 d . U
C18 C 0.6472(6) 0.8737(5) 0.9755(5) 0.072(2) Uani 1 1 d . U
H18 H 0.6966 0.8783 1.0129 0.087 Uiso 1 1 calc R .
C17 C 0.6397(6) 0.8663(4) 0.9035(5) 0.065(2) Uani 1 1 d . U
C49 C 0.5060(4) 0.7562(5) 0.7598(3) 0.052(2) Uani 1 1 d . U
C51 C 0.4239(5) 0.6429(5) 0.7330(4) 0.062(2) Uani 1 1 d . U
C53 C 0.5798(5) 0.6399(5) 0.7844(4) 0.065(2) Uani 1 1 d . U
C52 C 0.5006(5) 0.6012(6) 0.7567(4) 0.070(2) Uani 1 1 d . U
C54 C 0.5777(5) 0.7107(5) 0.7849(4) 0.065(2) Uani 1 1 d . U
H54 H 0.6284 0.7342 0.8036 0.078 Uiso 1 1 calc R .
O1 O 0.4991(3) 0.5364(4) 0.7534(4) 0.109(3) Uani 1 1 d . U
C55 C 0.3426(5) 0.6047(5) 0.7093(5) 0.075(2) Uani 1 1 d . U
C57 C 0.3343(5) 0.5591(5) 0.7697(5) 0.091(3) Uani 1 1 d . U
H57A H 0.3746 0.5209 0.7794 0.136 Uiso 1 1 calc GR .
H57B H 0.2796 0.5387 0.7567 0.136 Uiso 1 1 calc GR .
H57C H 0.3435 0.5886 0.8114 0.136 Uiso 1 1 calc GR .
C58 C 0.3356(6) 0.5574(6) 0.6456(5) 0.110(4) Uani 1 1 d . U
H58A H 0.3452 0.5859 0.6084 0.166 Uiso 1 1 calc GR .
H58B H 0.2810 0.5367 0.6288 0.166 Uiso 1 1 calc GR .
H58C H 0.3762 0.5194 0.6590 0.166 Uiso 1 1 calc GR .
C59 C 0.6583(5) 0.5965(5) 0.8079(5) 0.081(2) Uani 1 1 d . U
C62 C 0.7313(6) 0.6461(6) 0.8376(7) 0.125(4) Uani 1 1 d . U
H62A H 0.7394 0.6746 0.7997 0.187 Uiso 1 1 calc GR .
H62B H 0.7802 0.6178 0.8595 0.187 Uiso 1 1 calc GR .
H62C H 0.7209 0.6775 0.8726 0.187 Uiso 1 1 calc GR .
C61 C 0.6685(5) 0.5543(6) 0.7459(5) 0.100(3) Uani 1 1 d . U
H61A H 0.6262 0.5178 0.7318 0.150 Uiso 1 1 calc GR .
H61B H 0.7221 0.5317 0.7599 0.150 Uiso 1 1 calc GR .
H61C H 0.6636 0.5865 0.7067 0.150 Uiso 1 1 calc GR .
C45 C 0.9420(6) 0.8739(6) 1.0254(5) 0.082(3) Uani 1 1 d . U
C43 C 0.8222(6) 0.8094(5) 0.9637(5) 0.086(3) Uani 1 1 d . U
H43 H 0.7931 0.7659 0.9568 0.103 Uiso 1 1 calc R .
C31 C 0.0734(6) 0.8725(6) 0.4951(5) 0.088(3) Uani 1 1 d . U
C46 C 0.9072(6) 0.9319(6) 0.9869(5) 0.092(3) Uani 1 1 d . U
H46 H 0.9359 0.9756 0.9946 0.111 Uiso 1 1 calc R .
C32 C 0.1013(6) 0.9294(6) 0.5372(5) 0.095(3) Uani 1 1 d . U
H32 H 0.0676 0.9699 0.5334 0.114 Uiso 1 1 calc R .
C30 C 0.1200(6) 0.8156(6) 0.5015(5) 0.089(3) Uani 1 1 d . U
H30 H 0.0996 0.7754 0.4730 0.107 Uiso 1 1 calc R .
C47 C 0.8318(5) 0.9284(5) 0.9376(5) 0.088(3) Uani 1 1 d . U
H47 H 0.8098 0.9695 0.9112 0.105 Uiso 1 1 calc R .
C29 C 0.1988(6) 0.8135(5) 0.5494(5) 0.080(2) Uani 1 1 d . U
H29 H 0.2317 0.7727 0.5520 0.096 Uiso 1 1 calc R .
C33 C 0.1789(6) 0.9288(5) 0.5856(5) 0.086(3) Uani 1 1 d . U
H33 H 0.1978 0.9691 0.6142 0.104 Uiso 1 1 calc R .
C34 C -0.0124(6) 0.8740(6) 0.4396(6) 0.114(4) Uani 1 1 d . U
H34A H -0.0540 0.8709 0.4630 0.171 Uiso 1 1 calc GR .
H34B H -0.0180 0.8338 0.4077 0.171 Uiso 1 1 calc GR .
H34C H -0.0192 0.9184 0.4130 0.171 Uiso 1 1 calc GR .
C44 C 0.9003(6) 0.8131(6) 1.0132(5) 0.090(3) Uani 1 1 d . U
H44 H 0.9238 0.7717 1.0383 0.108 Uiso 1 1 calc R .
C56 C 0.2719(6) 0.6568(5) 0.6898(7) 0.113(4) Uani 1 1 d . U
H56A H 0.2720 0.6840 0.7313 0.169 Uiso 1 1 calc GR .
H56B H 0.2206 0.6307 0.6720 0.169 Uiso 1 1 calc GR .
H56C H 0.2777 0.6893 0.6538 0.169 Uiso 1 1 calc GR .
C22 C 0.3791(7) 0.8085(7) 0.9858(6) 0.106(3) Uani 1 1 d . U
H22 H 0.3875 0.7635 0.9682 0.128 Uiso 1 1 calc R .
C40 C 0.6380(7) 0.9241(7) 0.5353(6) 0.107(3) Uani 1 1 d . U
H40 H 0.6281 0.9681 0.5540 0.128 Uiso 1 1 calc R .
C48 C 1.0247(6) 0.8774(6) 1.0814(5) 0.108(3) Uani 1 1 d . U
H48A H 1.0676 0.8745 1.0594 0.162 Uiso 1 1 calc GR .
H48B H 1.0301 0.8376 1.1138 0.162 Uiso 1 1 calc GR .
H48C H 1.0296 0.9221 1.1070 0.162 Uiso 1 1 calc GR .
C24 C 0.3308(8) 0.8721(8) 1.0661(6) 0.109(3) Uani 1 1 d . U
C36 C 0.6346(7) 0.8035(7) 0.5323(6) 0.109(3) Uani 1 1 d . U
H36 H 0.6232 0.7592 0.5496 0.130 Uiso 1 1 calc R .
C26 C 0.3769(7) 0.9267(7) 0.9803(6) 0.110(3) Uani 1 1 d . U
H26 H 0.3841 0.9699 0.9588 0.132 Uiso 1 1 calc R .
C38 C 0.6848(8) 0.8648(8) 0.4515(7) 0.115(3) Uani 1 1 d . U
C39 C 0.6700(8) 0.9230(7) 0.4808(6) 0.119(3) Uani 1 1 d . U
H39 H 0.6819 0.9671 0.4634 0.143 Uiso 1 1 calc R .
C25 C 0.3452(7) 0.9299(7) 1.0356(6) 0.120(3) Uani 1 1 d . U
H25 H 0.3338 0.9748 1.0517 0.143 Uiso 1 1 calc R .
C60 C 0.6570(6) 0.5457(6) 0.8661(6) 0.117(4) Uani 1 1 d . U
H60A H 0.6477 0.5724 0.9046 0.176 Uiso 1 1 calc GR .
H60B H 0.7092 0.5209 0.8831 0.176 Uiso 1 1 calc GR .
H60C H 0.6132 0.5111 0.8482 0.176 Uiso 1 1 calc GR .
C37 C 0.6655(8) 0.8049(7) 0.4762(7) 0.122(3) Uani 1 1 d . U
H37 H 0.6728 0.7615 0.4551 0.146 Uiso 1 1 calc R .
C23 C 0.3484(7) 0.8113(7) 1.0415(7) 0.119(3) Uani 1 1 d . U
H23 H 0.3397 0.7683 1.0625 0.143 Uiso 1 1 calc R .
C41 C 0.7211(9) 0.8637(7) 0.3912(7) 0.145(5) Uani 1 1 d . U
H41A H 0.6816 0.8833 0.3490 0.217 Uiso 1 1 calc GR .
H41B H 0.7340 0.8148 0.3823 0.217 Uiso 1 1 calc GR .
H41C H 0.7708 0.8923 0.4038 0.217 Uiso 1 1 calc GR .
C27 C 0.2910(9) 0.8752(8) 1.1243(7) 0.147(5) Uani 1 1 d . U
H27A H 0.3199 0.9098 1.1598 0.221 Uiso 1 1 calc GR .
H27B H 0.2937 0.8284 1.1459 0.221 Uiso 1 1 calc GR .
H27C H 0.2339 0.8896 1.1043 0.221 Uiso 1 1 calc GR .
N3 N 0.6227(4) 0.8587(3) 0.7495(4) 0.0618(19) Uani 1 1 d . U
O2 O 0.5165(4) 0.9783(5) 0.7553(4) 0.118(3) Uani 1 1 d . U
O3 O 0.4981(5) 1.0936(6) 0.7375(5) 0.161(3) Uani 1 1 d . U
C64 C 0.4433(9) 1.0471(8) 0.8155(8) 0.182(6) Uani 1 1 d . U
H64A H 0.3917 1.0210 0.8020 0.273 Uiso 1 1 calc GR .
H64B H 0.4323 1.0981 0.8130 0.273 Uiso 1 1 calc GR .
H64C H 0.4753 1.0343 0.8633 0.273 Uiso 1 1 calc GR .
C65 C 0.5449(10) 1.0836(9) 0.6789(9) 0.179(5) Uani 1 1 d . U
H65A H 0.5996 1.0625 0.6995 0.214 Uiso 1 1 calc R .
H65B H 0.5128 1.0543 0.6391 0.214 Uiso 1 1 calc R .
C66 C 0.5501(12) 1.1630(10) 0.6569(11) 0.240(8) Uani 1 1 d . U
H66A H 0.5453 1.1651 0.6072 0.360 Uiso 1 1 calc GR .
H66B H 0.6024 1.1832 0.6846 0.360 Uiso 1 1 calc GR .
H66C H 0.5057 1.1902 0.6651 0.360 Uiso 1 1 calc GR .
C63 C 0.4914(9) 1.0278(11) 0.7652(8) 0.138(4) Uani 1 1 d . U
C70 C 0.0502(13) 0.8524(11) 0.7941(12) 0.306(9) Uani 1 1 d D U
H70A H 0.0896 0.8878 0.7880 0.367 Uiso 1 1 calc R .
H70B H 0.0766 0.8053 0.8018 0.367 Uiso 1 1 calc R .
C69 C -0.0250(14) 0.8514(14) 0.7319(12) 0.320(10) Uani 1 1 d D U
H69A H -0.0525 0.8980 0.7256 0.384 Uiso 1 1 calc R .
H69B H -0.0635 0.8148 0.7376 0.384 Uiso 1 1 calc R .
C68 C 0.0040(16) 0.8338(15) 0.6686(14) 0.336(10) Uani 1 1 d D U
H68A H 0.0218 0.7839 0.6690 0.403 Uiso 1 1 calc R .
H68B H 0.0479 0.8660 0.6654 0.403 Uiso 1 1 calc R .
C71 C 0.0205(15) 0.8726(14) 0.8548(13) 0.307(10) Uani 1 1 d D U
H71A H -0.0027 0.9210 0.8489 0.369 Uiso 1 1 calc R .
H71B H -0.0211 0.8388 0.8597 0.369 Uiso 1 1 calc R .
C72 C 0.0955(16) 0.8687(11) 0.9160(13) 0.316(11) Uani 1 1 d D U
H72A H 0.1433 0.8698 0.8998 0.475 Uiso 1 1 calc GR .
H72B H 0.0954 0.8246 0.9416 0.475 Uiso 1 1 calc GR .
H72C H 0.0973 0.9093 0.9468 0.475 Uiso 1 1 calc GR .
C67 C -0.0785(19) 0.8483(15) 0.6097(15) 0.383(13) Uani 1 1 d D U
H67A H -0.0764 0.8280 0.5656 0.574 Uiso 1 1 calc GR .
H67B H -0.0875 0.8996 0.6042 0.574 Uiso 1 1 calc GR .
H67C H -0.1231 0.8266 0.6226 0.574 Uiso 1 1 calc GR .
loop_
_atom_site_aniso_label
_atom_site_aniso_U_11
_atom_site_aniso_U_22
_atom_site_aniso_U_33
_atom_site_aniso_U_23
_atom_site_aniso_U_13
_atom_site_aniso_U_12
Ru1 0.0365(6) 0.0831(7) 0.0637(7) -0.0012(3) 0.0130(4) -0.0001(3)
C2 0.042(4) 0.089(5) 0.069(5) -0.001(4) 0.020(4) 0.009(4)
C35 0.082(5) 0.093(6) 0.080(5) -0.009(5) 0.043(4) -0.013(5)
C21 0.077(5) 0.090(6) 0.080(5) -0.005(5) 0.037(4) 0.012(5)
C20 0.048(5) 0.080(5) 0.060(5) -0.006(4) 0.016(4) -0.003(4)
C42 0.041(5) 0.089(5) 0.077(5) 0.001(4) 0.015(4) -0.007(4)
C19 0.048(5) 0.097(5) 0.060(5) -0.004(4) 0.014(4) -0.002(4)
C3 0.044(5) 0.106(6) 0.073(5) -0.001(5) 0.024(4) 0.010(4)
C4 0.041(5) 0.104(6) 0.070(5) 0.003(4) 0.016(4) 0.008(4)
C50 0.026(4) 0.095(6) 0.062(5) 0.006(4) 0.012(4) 0.007(4)
N2 0.045(4) 0.075(4) 0.062(4) -0.004(3) 0.012(4) 0.000(3)
N4 0.047(4) 0.076(4) 0.061(4) -0.007(3) 0.014(4) -0.002(3)
N1 0.021(4) 0.086(4) 0.072(5) -0.007(3) 0.017(3) 0.008(3)
C15 0.032(4) 0.091(5) 0.075(5) 0.000(4) 0.024(4) -0.008(4)
C5 0.040(5) 0.091(5) 0.068(5) -0.007(4) 0.014(4) 0.006(4)
C1 0.050(5) 0.082(5) 0.066(5) -0.004(4) 0.021(4) 0.005(4)
C16 0.037(4) 0.088(5) 0.066(5) 0.000(4) 0.017(4) -0.004(4)
C11 0.065(5) 0.086(5) 0.072(5) -0.003(4) 0.024(4) -0.010(4)
C7 0.047(5) 0.079(5) 0.061(5) -0.003(4) 0.009(4) 0.005(4)
C10 0.052(5) 0.082(5) 0.064(5) -0.006(4) 0.017(4) 0.002(4)
C12 0.042(4) 0.093(5) 0.070(5) -0.005(4) 0.027(4) -0.011(4)
C14 0.043(5) 0.109(6) 0.076(5) -0.004(5) 0.017(5) -0.011(4)
C13 0.048(5) 0.112(6) 0.069(5) -0.004(5) 0.025(4) -0.013(4)
C28 0.044(5) 0.083(5) 0.071(5) -0.002(4) 0.014(4) 0.014(4)
C8 0.056(5) 0.094(5) 0.062(5) 0.001(4) 0.012(5) 0.001(4)
C9 0.062(5) 0.098(5) 0.064(5) -0.002(4) 0.019(5) 0.000(5)
C6 0.043(4) 0.082(5) 0.068(5) -0.005(4) 0.014(4) 0.012(4)
C18 0.052(5) 0.098(5) 0.062(5) -0.006(4) 0.011(4) -0.009(4)
C17 0.042(5) 0.084(5) 0.062(5) -0.005(4) 0.008(4) -0.005(4)
C49 0.019(4) 0.103(6) 0.032(4) 0.001(4) 0.007(3) 0.002(4)
C51 0.040(4) 0.085(5) 0.062(4) 0.008(4) 0.017(4) 0.002(4)
C53 0.045(4) 0.086(5) 0.061(4) -0.001(4) 0.011(4) 0.004(4)
C52 0.049(5) 0.084(6) 0.075(5) 0.001(5) 0.018(4) 0.010(5)
C54 0.041(5) 0.088(6) 0.061(5) -0.003(4) 0.007(4) -0.003(4)
O1 0.061(5) 0.079(5) 0.169(7) -0.004(4) 0.012(4) 0.001(4)
C55 0.043(5) 0.093(6) 0.083(6) 0.005(5) 0.011(4) -0.009(5)
C57 0.058(6) 0.118(8) 0.095(7) 0.011(6) 0.021(5) -0.017(5)
C58 0.082(7) 0.146(9) 0.091(7) -0.022(7) 0.010(6) -0.038(7)
C59 0.053(5) 0.100(6) 0.083(6) 0.006(5) 0.011(5) 0.018(5)
C62 0.049(7) 0.142(10) 0.153(10) -0.020(7) -0.010(7) 0.019(6)
C61 0.059(6) 0.133(8) 0.102(7) -0.011(6) 0.016(6) 0.031(6)
C45 0.046(5) 0.110(7) 0.086(6) -0.003(5) 0.014(5) -0.011(5)
C43 0.055(5) 0.094(6) 0.095(6) -0.004(5) 0.004(5) -0.009(5)
C31 0.059(5) 0.108(7) 0.087(6) 0.002(5) 0.011(5) 0.010(5)
C46 0.052(5) 0.105(6) 0.107(6) -0.004(5) 0.006(5) -0.018(5)
C32 0.063(5) 0.108(6) 0.100(6) -0.005(5) 0.006(5) 0.024(5)
C30 0.065(6) 0.096(6) 0.092(6) 0.000(5) 0.003(5) 0.005(5)
C47 0.047(5) 0.095(6) 0.105(6) 0.006(5) 0.001(5) -0.018(5)
C29 0.058(5) 0.089(6) 0.084(6) 0.000(5) 0.009(4) 0.014(5)
C33 0.060(5) 0.098(6) 0.087(5) -0.010(5) 0.003(5) 0.015(5)
C34 0.054(7) 0.151(9) 0.113(8) 0.005(7) -0.009(6) 0.006(6)
C44 0.058(6) 0.105(6) 0.093(6) 0.004(5) 0.003(5) -0.003(5)
C56 0.044(6) 0.121(8) 0.154(10) 0.015(7) 0.004(6) -0.018(6)
C22 0.113(7) 0.117(7) 0.108(7) 0.003(6) 0.061(5) 0.010(6)
C40 0.116(7) 0.116(7) 0.109(6) -0.011(6) 0.065(5) -0.023(6)
C48 0.052(7) 0.162(9) 0.092(7) -0.003(7) -0.004(6) -0.012(6)
C24 0.112(6) 0.135(8) 0.100(7) 0.014(6) 0.062(5) 0.019(6)
C36 0.121(7) 0.116(7) 0.109(7) -0.007(6) 0.065(5) -0.008(6)
C26 0.125(7) 0.120(7) 0.107(6) 0.006(6) 0.066(5) 0.009(6)
C38 0.126(7) 0.132(8) 0.110(7) -0.010(6) 0.072(6) -0.017(6)
C39 0.134(7) 0.128(8) 0.119(7) 0.002(6) 0.074(6) -0.028(6)
C25 0.130(7) 0.134(8) 0.120(7) -0.007(6) 0.075(6) 0.020(6)
C60 0.089(8) 0.136(9) 0.116(8) 0.027(7) 0.015(6) 0.052(7)
C37 0.141(7) 0.129(8) 0.118(7) -0.019(6) 0.072(6) -0.004(6)
C23 0.123(7) 0.134(7) 0.117(7) 0.018(6) 0.062(6) 0.009(6)
C41 0.141(11) 0.194(12) 0.130(10) -0.003(8) 0.087(9) -0.007(8)
C27 0.139(11) 0.202(12) 0.122(10) 0.020(8) 0.071(8) 0.017(9)
N3 0.021(4) 0.091(5) 0.074(5) 0.000(3) 0.017(4) -0.003(3)
O2 0.070(5) 0.140(8) 0.133(6) -0.018(5) 0.017(4) 0.014(5)
O3 0.143(7) 0.165(8) 0.190(7) 0.018(6) 0.072(6) 0.027(5)
C64 0.158(11) 0.202(13) 0.211(13) 0.013(11) 0.095(10) 0.037(10)
C65 0.168(9) 0.180(10) 0.205(10) 0.033(9) 0.083(8) 0.016(8)
C66 0.235(16) 0.221(16) 0.250(16) 0.057(13) 0.057(14) 0.008(13)
C63 0.103(7) 0.158(9) 0.157(7) 0.014(7) 0.048(6) 0.015(7)
C70 0.25(2) 0.321(17) 0.38(3) 0.056(19) 0.150(18) 0.038(16)
C69 0.26(2) 0.338(18) 0.39(3) 0.036(19) 0.140(18) 0.019(16)
C68 0.26(2) 0.362(19) 0.40(3) 0.02(2) 0.130(19) 0.002(17)
C71 0.26(2) 0.319(18) 0.38(3) 0.076(19) 0.149(18) 0.051(16)
C72 0.28(3) 0.33(2) 0.37(3) 0.07(2) 0.14(2) 0.07(2)
C67 0.31(3) 0.40(3) 0.45(3) 0.01(2) 0.12(2) 0.04(2)
loop_
_atom_type_symbol
_atom_type_description
_atom_type_scat_dispersion_real
_atom_type_scat_dispersion_imag
_atom_type_scat_source
C C 0.0181 0.0091 'International Tables Vol C Tables 4.2.6.8 and 6.1.1.4'
H H 0.0000 0.0000 'International Tables Vol C Tables 4.2.6.8 and 6.1.1.4'
N N 0.0311 0.0180 'International Tables Vol C Tables 4.2.6.8 and 6.1.1.4'
O O 0.0492 0.0322 'International Tables Vol C Tables 4.2.6.8 and 6.1.1.4'
Ru Ru 0.0552 3.2960 'International Tables Vol C Tables 4.2.6.8 and 6.1.1.4'
loop_
_geom_angle_atom_site_label_1
_geom_angle_atom_site_label_2
_geom_angle_atom_site_label_3
_geom_angle
N2 Ru1 N4 170.3(3)
N2 Ru1 N1 89.5(3)
N2 Ru1 N3 89.9(3)
N2 Ru1 O2 83.7(3)
N4 Ru1 N1 89.3(3)
N4 Ru1 N3 89.9(3)
N4 Ru1 O2 86.6(3)
N1 Ru1 O2 89.3(3)
C49 Ru1 N2 95.3(3)
C49 Ru1 N4 94.4(3)
C49 Ru1 N1 93.6(3)
C49 Ru1 N3 94.0(3)
C49 Ru1 O2 176.9(3)
N3 Ru1 N1 172.4(3)
N3 Ru1 O2 83.1(3)
N1 C2 C3 109.0(8)
N1 C2 C1 124.6(8)
C1 C2 C3 126.4(9)
C40 C35 C11 122.2(10)
C36 C35 C11 121.1(10)
C36 C35 C40 116.7(11)
C22 C21 C1 123.0(10)
C26 C21 C1 123.3(10)
C26 C21 C22 113.6(11)
N4 C20 C19 110.2(8)
N4 C20 C1 125.5(8)
C1 C20 C19 124.3(9)
C43 C42 C16 120.9(8)
C47 C42 C16 121.7(8)
C47 C42 C43 117.3(9)
C18 C19 C20 107.4(8)
C4 C3 C2 107.2(8)
C3 C4 C5 108.5(8)
C51 C50 C49 126.0(8)
C7 N2 Ru1 128.1(6)
C10 N2 Ru1 126.5(6)
C10 N2 C7 105.4(7)
C20 N4 Ru1 127.2(6)
C20 N4 C17 106.0(7)
C17 N4 Ru1 126.8(6)
C2 N1 Ru1 126.8(6)
C2 N1 C5 106.8(6)
C5 N1 Ru1 126.2(6)
C16 C15 C14 126.3(8)
N3 C15 C16 126.4(8)
N3 C15 C14 107.3(8)
N1 C5 C4 108.4(8)
C6 C5 C4 126.0(8)
C6 C5 N1 125.6(8)
C2 C1 C21 115.5(8)
C20 C1 C2 126.0(8)
C20 C1 C21 118.5(8)
C15 C16 C42 117.5(8)
C15 C16 C17 126.4(8)
C17 C16 C42 116.1(8)
C10 C11 C35 119.5(9)
C10 C11 C12 124.3(9)
C12 C11 C35 116.2(9)
N2 C7 C8 109.1(8)
N2 C7 C6 124.3(8)
C6 C7 C8 126.5(8)
N2 C10 C11 126.4(8)
N2 C10 C9 110.5(8)
C11 C10 C9 123.2(9)
C11 C12 C13 124.6(9)
N3 C12 C11 125.5(8)
N3 C12 C13 109.8(8)
C13 C14 C15 109.2(8)
C14 C13 C12 106.3(8)
C29 C28 C6 120.8(8)
C29 C28 C33 117.1(9)
C33 C28 C6 122.0(8)
C9 C8 C7 108.0(8)
C8 C9 C10 107.0(8)
C5 C6 C7 125.9(8)
C5 C6 C28 117.7(8)
C7 C6 C28 116.4(8)
C19 C18 C17 107.7(8)
N4 C17 C16 124.6(8)
N4 C17 C18 108.6(8)
C16 C17 C18 126.8(8)
C50 C49 Ru1 123.4(6)
C54 C49 Ru1 124.9(6)
C54 C49 C50 111.7(8)
C50 C51 C52 118.2(8)
C50 C51 C55 122.0(8)
C52 C51 C55 119.7(9)
C52 C53 C59 118.3(9)
C54 C53 C52 117.8(8)
C54 C53 C59 123.8(8)
C51 C52 C53 118.8(10)
O1 C52 C51 120.7(8)
O1 C52 C53 120.5(8)
C53 C54 C49 127.3(8)
C51 C55 C57 109.0(7)
C51 C55 C58 111.0(7)
C51 C55 C56 111.5(8)
C57 C55 C58 109.6(8)
C56 C55 C57 107.4(8)
C56 C55 C58 108.4(9)
C53 C59 C62 109.7(8)
C53 C59 C61 110.1(7)
C62 C59 C61 109.9(8)
C60 C59 C53 110.4(8)
C60 C59 C62 107.1(9)
C60 C59 C61 109.6(9)
C46 C45 C48 122.0(10)
C44 C45 C46 117.9(10)
C44 C45 C48 120.0(10)
C42 C43 C44 120.8(9)
C32 C31 C34 120.5(10)
C30 C31 C32 119.5(10)
C30 C31 C34 120.1(10)
C45 C46 C47 121.4(10)
C31 C32 C33 120.5(9)
C31 C30 C29 121.4(10)
C42 C47 C46 121.5(9)
C28 C29 C30 120.4(9)
C28 C33 C32 121.1(9)
C45 C44 C43 121.0(10)
C21 C22 C23 122.7(11)
C35 C40 C39 120.3(11)
C25 C24 C23 116.2(12)
C25 C24 C27 121.5(13)
C23 C24 C27 122.2(13)
C35 C36 C37 121.1(11)
C21 C26 C25 123.8(11)
C39 C38 C37 116.1(12)
C39 C38 C41 123.8(13)
C37 C38 C41 120.2(13)
C38 C39 C40 123.8(12)
C24 C25 C26 121.4(12)
C38 C37 C36 122.0(12)
C24 C23 C22 122.0(12)
C15 N3 Ru1 125.7(6)
C12 N3 Ru1 126.7(6)
C12 N3 C15 107.5(6)
C63 O2 Ru1 145.9(13)
C63 O3 C65 108.1(12)
C66 C65 O3 100.3(13)
O2 C63 O3 128.1(17)
O2 C63 C64 131.2(19)
O3 C63 C64 100.7(15)
C69 C70 C71 104.6(19)
C70 C69 C68 106(2)
C69 C68 C67 97.5(18)
C72 C71 C70 103.1(19)
loop_
_geom_bond_atom_site_label_1
_geom_bond_atom_site_label_2
_geom_bond_distance
Ru1 N2 2.025(7)
Ru1 N4 2.047(7)
Ru1 N1 2.057(6)
Ru1 C49 1.841(9)
Ru1 N3 2.056(6)
Ru1 O2 2.358(10)
C2 C3 1.440(12)
C2 N1 1.375(11)
C2 C1 1.410(12)
C35 C11 1.501(13)
C35 C40 1.341(13)
C35 C36 1.333(13)
C21 C1 1.484(13)
C21 C22 1.343(13)
C21 C26 1.326(13)
C20 C19 1.415(12)
C20 N4 1.362(11)
C20 C1 1.396(12)
C42 C16 1.508(12)
C42 C43 1.362(12)
C42 C47 1.360(12)
C19 C18 1.346(11)
C3 C4 1.344(12)
C4 C5 1.425(12)
C50 C49 1.498(11)
C50 C51 1.339(10)
N2 C7 1.389(10)
N2 C10 1.377(11)
N4 C17 1.396(10)
N1 C5 1.393(10)
C15 C16 1.383(12)
C15 C14 1.434(12)
C15 N3 1.381(10)
C5 C6 1.386(12)
C16 C17 1.396(12)
C11 C10 1.408(12)
C11 C12 1.414(13)
C7 C8 1.432(12)
C7 C6 1.408(12)
C10 C9 1.425(12)
C12 C13 1.432(12)
C12 N3 1.361(11)
C14 C13 1.338(12)
C28 C6 1.495(12)
C28 C29 1.379(12)
C28 C33 1.380(12)
C8 C9 1.340(12)
C18 C17 1.422(12)
C49 C54 1.462(11)
C51 C52 1.486(12)
C51 C55 1.520(12)
C53 C52 1.499(12)
C53 C54 1.337(10)
C53 C59 1.530(12)
C52 O1 1.225(11)
C55 C57 1.535(12)
C55 C58 1.538(13)
C55 C56 1.521(13)
C59 C62 1.536(14)
C59 C61 1.539(12)
C59 C60 1.521(13)
C45 C46 1.366(13)
C45 C44 1.337(13)
C45 C48 1.521(13)
C43 C44 1.407(13)
C31 C32 1.360(13)
C31 C30 1.325(13)
C31 C34 1.553(13)
C46 C47 1.372(12)
C32 C33 1.390(12)
C30 C29 1.403(12)
C22 C23 1.387(15)
C40 C39 1.379(14)
C24 C25 1.315(15)
C24 C23 1.323(15)
C24 C27 1.539(16)
C36 C37 1.398(15)
C26 C25 1.391(14)
C38 C39 1.310(15)
C38 C37 1.320(15)
C38 C41 1.536(16)
O2 C63 1.075(17)
O3 C65 1.642(16)
O3 C63 1.38(2)
C64 C63 1.547(19)
C65 C66 1.573(19)
C70 C69 1.498(19)
C70 C71 1.519(18)
C69 C68 1.548(18)
C68 C67 1.568(18)
C71 C72 1.484(18)
