#------------------------------------------------------------------------------
#$Date: 2019-11-03 18:12:17 +0200 (Sun, 03 Nov 2019) $
#$Revision: 222036 $
#$URL: file:///home/coder/svn-repositories/cod/cif/4/12/90/4129029.cif $
#------------------------------------------------------------------------------
#
# This file is available in the Crystallography Open Database (COD),
# http://www.crystallography.net/
#
# All data on this site have been placed in the public domain by the
# contributors.
#
data_4129029
loop_
_publ_author_name
'Omori, Hiroto'
'Hiroto, Satoru'
'Takeda, Youhei'
'Fliegl, Heike'
'Minakata, Satoshi'
'Shinokubo, Hiroshi'
_publ_section_title
;
 Ni(II) 10-Phosphacorrole: A Porphyrin Analogue Containing Phosphorus at
 the Meso Position.
;
_journal_issue                   12
_journal_name_full               'Journal of the American Chemical Society'
_journal_page_first              4800
_journal_page_last               4805
_journal_paper_doi               10.1021/jacs.8b13169
_journal_volume                  141
_journal_year                    2019
_chemical_formula_moiety         'C91 H83 Cl3 N8 Ni2 P2'
_chemical_formula_sum            'C91 H83 Cl3 N8 Ni2 P2'
_chemical_formula_weight         1574.36
_space_group_crystal_system      triclinic
_space_group_IT_number           2
_space_group_name_Hall           '-P 1'
_space_group_name_H-M_alt        'P -1'
_atom_sites_solution_hydrogens   geom
_audit_creation_method           SHELXL-2014/7
_cell_angle_alpha                100.329(2)
_cell_angle_beta                 115.508(2)
_cell_angle_gamma                101.094(2)
_cell_formula_units_Z            2
_cell_length_a                   16.0007(10)
_cell_length_b                   16.1997(10)
_cell_length_c                   17.7476(12)
_cell_measurement_reflns_used    171
_cell_measurement_temperature    93(2)
_cell_measurement_theta_max      24.3938
_cell_measurement_theta_min      2.7159
_cell_volume                     3891.7(4)
_computing_cell_refinement       'SAINT V8.34A (Bruker AXS Inc., 2013)'
_computing_data_collection       'Bruker APEX2'
_computing_data_reduction        'SAINT V8.34A (Bruker AXS Inc., 2013)'
_computing_molecular_graphics    'Bruker SHELXTL'
_computing_publication_material  'Bruker SHELXTL'
_computing_structure_refinement  'SHELXL-2014/7 (Sheldrick, 2014)'
_computing_structure_solution    'SHELXL-2014/7 (Sheldrick, 2014)'
_diffrn_ambient_temperature      93(2)
_diffrn_detector_area_resol_mean 10.4167
_diffrn_measured_fraction_theta_full 0.932
_diffrn_measured_fraction_theta_max 0.947
_diffrn_measurement_device_type  'Bruker D8 QUEST'
_diffrn_measurement_method       '\f and \w scans'
_diffrn_radiation_monochromator  ImuS
_diffrn_radiation_type           MoK\a
_diffrn_radiation_wavelength     0.71073
_diffrn_reflns_av_R_equivalents  0.0196
_diffrn_reflns_av_unetI/netI     0.0272
_diffrn_reflns_Laue_measured_fraction_full 0.932
_diffrn_reflns_Laue_measured_fraction_max 0.947
_diffrn_reflns_limit_h_max       16
_diffrn_reflns_limit_h_min       -19
_diffrn_reflns_limit_k_max       19
_diffrn_reflns_limit_k_min       -18
_diffrn_reflns_limit_l_max       21
_diffrn_reflns_limit_l_min       -21
_diffrn_reflns_number            25866
_diffrn_reflns_point_group_measured_fraction_full 0.932
_diffrn_reflns_point_group_measured_fraction_max 0.947
_diffrn_reflns_theta_full        25.242
_diffrn_reflns_theta_max         25.105
_diffrn_reflns_theta_min         2.151
_exptl_absorpt_coefficient_mu    0.681
_exptl_absorpt_correction_T_max  0.82
_exptl_absorpt_correction_T_min  0.69
_exptl_absorpt_correction_type   multi-scan
_exptl_absorpt_process_details   'SADABS V2014/5 (Bruker AXS Inc.)'
_exptl_crystal_colour            purple
_exptl_crystal_density_diffrn    1.344
_exptl_crystal_density_method    'not measured'
_exptl_crystal_description       Prism
_exptl_crystal_F_000             1644
_exptl_crystal_size_max          0.500
_exptl_crystal_size_mid          0.380
_exptl_crystal_size_min          0.310
_refine_diff_density_max         1.086
_refine_diff_density_min         -0.794
_refine_diff_density_rms         0.075
_refine_ls_extinction_method     none
_refine_ls_goodness_of_fit_ref   1.075
_refine_ls_hydrogen_treatment    constr
_refine_ls_matrix_type           full
_refine_ls_number_parameters     1095
_refine_ls_number_reflns         13132
_refine_ls_number_restraints     271
_refine_ls_restrained_S_all      1.070
_refine_ls_R_factor_all          0.0488
_refine_ls_R_factor_gt           0.0428
_refine_ls_shift/su_max          0.002
_refine_ls_shift/su_mean         0.000
_refine_ls_structure_factor_coef Fsqd
_refine_ls_weighting_details
'w=1/[\s^2^(Fo^2^)+(0.0569P)^2^+6.5265P] where P=(Fo^2^+2Fc^2^)/3'
_refine_ls_weighting_scheme      calc
_refine_ls_wR_factor_gt          0.1120
_refine_ls_wR_factor_ref         0.1216
_reflns_Friedel_coverage         0.000
_reflns_number_gt                11824
_reflns_number_total             13132
_reflns_threshold_expression     'I > 2\s(I)'
_cod_data_source_file            ja8b13169_si_002.cif
_cod_data_source_block           shino150807oh_0m_a
_cod_database_code               4129029
_shelx_shelxl_version_number     2014/7
_shelx_space_group_comment
;
The symmetry employed for this shelxl refinement is uniquely defined
by the following loop, which should always be used as a source of
symmetry information in preference to the above space-group names.
They are only intended as comments.
;
_shelx_estimated_absorpt_t_min   0.727
_shelx_estimated_absorpt_t_max   0.817
_shelxl_version_number           2014-3
_shelx_res_file
;
TITL shino150807oh_0m_a.res
REM  Yadorkari-X generated
CELL 0.71073 16.0007 16.1997 17.7476 100.3290 115.5080 101.0940
ZERR 2.0 0.0010 0.0010 0.0012 0.0020 0.0020 0.0020
LATT 1
REM  SPGR P-1 triclinic
SFAC C H N P Ni Cl
UNIT 182 166 16 4 4 6
SIZE 0.31 0.38 0.50
TEMP -180.0
L.S. 5
FMAP 2
PLAN -20
ACTA
BOND$H

SIMU 0.01 C82 C83 C84 C85 C86 C87 C96 C97 C98 C99 C100 C101 C88 C89 C90 C93 C94
SIMU 0.02 Cl1 Cl2 Cl3 Cl4 Cl5 Cl6
DFIX 1.74 0.02 Cl4 C92
WGHT    0.056900    6.526500
FVAR       0.36734   0.68221   0.75565
C1    1    0.496837    0.838557    0.350865    11.00000    0.01968    0.01591 =
         0.01196    0.00233    0.00677   -0.00005
C2    1    0.562290    0.882263    0.325663    11.00000    0.02510    0.02192 =
         0.01738    0.00817    0.01105    0.00134
AFIX  43
H1    2    0.545971    0.903563    0.276242    11.00000   -1.20000
AFIX   0
C3    1    0.652966    0.887335    0.386729    11.00000    0.01924    0.02380 =
         0.02043    0.00846    0.01121    0.00086
AFIX  43
H2    2    0.712271    0.914158    0.388407    11.00000   -1.20000
AFIX   0
C4    1    0.643046    0.845239    0.447669    11.00000    0.01679    0.01765 =
         0.01764    0.00429    0.00987    0.00060
C5    1    0.719335    0.832027    0.516995    11.00000    0.01758    0.02106 =
         0.01889    0.00454    0.01007    0.00106
C6    1    0.703604    0.786540    0.571578    11.00000    0.01604    0.02309 =
         0.02128    0.00854    0.00814    0.00349
C7    1    0.770898    0.765526    0.644235    11.00000    0.01998    0.03489 =
         0.03097    0.01738    0.01164    0.01006
AFIX  43
H3    2    0.838582    0.776795    0.664098    11.00000   -1.20000
AFIX   0
C8    1    0.719162    0.725829    0.680100    11.00000    0.02217    0.03753 =
         0.03091    0.02337    0.01234    0.01221
AFIX  43
H4    2    0.744195    0.704597    0.729367    11.00000   -1.20000
AFIX   0
C9    1    0.621466    0.722893    0.629163    11.00000    0.02172    0.02252 =
         0.02193    0.01093    0.01142    0.00579
C10   1    0.532607    0.701727    0.632292    11.00000    0.01893    0.02077 =
         0.01971    0.00923    0.00880    0.00473
C11   1    0.499194    0.674463    0.688515    11.00000    0.02519    0.02610 =
         0.02404    0.01627    0.01270    0.00778
AFIX  43
H5    2    0.534263    0.656113    0.737779    11.00000   -1.20000
AFIX   0
C12   1    0.406476    0.679692    0.658057    11.00000    0.02249    0.02477 =
         0.02098    0.00978    0.01344    0.00391
AFIX  43
H6    2    0.365039    0.665630    0.682417    11.00000   -1.20000
AFIX   0
C13   1    0.383494    0.710148    0.582982    11.00000    0.01759    0.02072 =
         0.01694    0.00689    0.00972    0.00133
C14   1    0.301007    0.730122    0.529976    11.00000    0.01782    0.02129 =
         0.01931    0.00663    0.00988    0.00072
C15   1    0.292005    0.758901    0.457891    11.00000    0.01536    0.02331 =
         0.02219    0.00957    0.00944    0.00192
C16   1    0.207837    0.774728    0.397991    11.00000    0.02014    0.03433 =
         0.02964    0.01567    0.01277    0.00787
AFIX  43
H7    2    0.150004    0.771425    0.401954    11.00000   -1.20000
AFIX   0
C17   1    0.224738    0.795621    0.333411    11.00000    0.01879    0.03868 =
         0.02603    0.01919    0.00955    0.00809
AFIX  43
H8    2    0.180828    0.808281    0.283611    11.00000   -1.20000
AFIX   0
C18   1    0.320626    0.794611    0.355575    11.00000    0.01987    0.02173 =
         0.01866    0.00880    0.00940    0.00237
N1    3    0.544408    0.816331    0.424272    11.00000    0.01522    0.01711 =
         0.01438    0.00421    0.00663    0.00127
N2    3    0.613139    0.758251    0.563527    11.00000    0.01605    0.02301 =
         0.01644    0.00891    0.00837    0.00404
N3    3    0.461559    0.721422    0.568246    11.00000    0.01786    0.02043 =
         0.01712    0.00842    0.00843    0.00407
N4    3    0.362512    0.772551    0.430391    11.00000    0.01600    0.02063 =
         0.01576    0.00763    0.00839    0.00188
NI1   5    0.492175    0.767384    0.491089    11.00000    0.01327    0.01675 =
         0.01282    0.00644    0.00642    0.00156
P1    4    0.369026    0.800848    0.283241    11.00000    0.01689    0.02053 =
         0.01287    0.00689    0.00531    0.00059
C19   1    0.821475    0.868661    0.535038    11.00000    0.01518    0.02323 =
         0.02152    0.01250    0.00850    0.00339
C20   1    0.858302    0.824419    0.487371    11.00000    0.02081    0.01930 =
         0.02916    0.00934    0.01285    0.00331
C21   1    0.954988    0.859866    0.508137    11.00000    0.02345    0.02755 =
         0.03922    0.01663    0.02101    0.00882
AFIX  43
H9    2    0.980247    0.830004    0.475787    11.00000   -1.20000
AFIX   0
C22   1    1.014968    0.937172    0.574431    11.00000    0.01623    0.02803 =
         0.03536    0.02000    0.01092    0.00523
C23   1    0.976740    0.979418    0.621276    11.00000    0.01970    0.02176 =
         0.02907    0.00935    0.00531   -0.00007
AFIX  43
H10   2    1.017564    1.032065    0.667665    11.00000   -1.20000
AFIX   0
C24   1    0.881387    0.947448    0.602669    11.00000    0.02182    0.02751 =
         0.02187    0.00937    0.00900    0.00413
C25   1    0.796050    0.739496    0.415072    11.00000    0.02951    0.02896 =
         0.05022   -0.00103    0.02386    0.00055
AFIX 137
H11   2    0.773786    0.751285    0.358434    11.00000   -1.50000
H12   2    0.739698    0.713644    0.421432    11.00000   -1.50000
H13   2    0.834173    0.698322    0.418325    11.00000   -1.50000
AFIX   0
C26   1    1.118279    0.976218    0.594462    11.00000    0.01905    0.02980 =
         0.05590    0.02432    0.01546    0.00530
AFIX 137
H14   2    1.136410    0.933535    0.562595    11.00000   -1.50000
H15   2    1.161731    0.990647    0.657390    11.00000   -1.50000
H16   2    1.123897    1.029871    0.576429    11.00000   -1.50000
AFIX   0
C27   1    0.841497    0.997156    0.653085    11.00000    0.02887    0.03943 =
         0.03236   -0.00218    0.01403    0.00173
AFIX 137
H17   2    0.892327    1.051134    0.696027    11.00000   -1.50000
H18   2    0.820086    0.960138    0.683348    11.00000   -1.50000
H19   2    0.786234    1.012403    0.612545    11.00000   -1.50000
AFIX   0
C28   1    0.221176    0.723898    0.553625    11.00000    0.01838    0.02877 =
         0.02078    0.01464    0.01113    0.00651
C29   1    0.230685    0.794190    0.618563    11.00000    0.01799    0.02859 =
         0.01985    0.01455    0.00822    0.00697
C30   1    0.158541    0.788160    0.642961    11.00000    0.02662    0.03017 =
         0.02284    0.01561    0.01513    0.01218
AFIX  43
H20   2    0.165347    0.835542    0.687525    11.00000   -1.20000
AFIX   0
C31   1    0.076670    0.714733    0.603991    11.00000    0.02093    0.03459 =
         0.02504    0.01982    0.01353    0.01104
C32   1    0.068009    0.646923    0.538424    11.00000    0.01658    0.02967 =
         0.02286    0.01357    0.00895    0.00180
AFIX  43
H21   2    0.011751    0.596949    0.510307    11.00000   -1.20000
AFIX   0
C33   1    0.138884    0.649429    0.512268    11.00000    0.01955    0.02789 =
         0.02176    0.01284    0.00927    0.00359
C34   1    0.317223    0.876167    0.660237    11.00000    0.02398    0.02753 =
         0.02503    0.00845    0.01251    0.00476
AFIX 137
H22   2    0.376482    0.861697    0.694096    11.00000   -1.50000
H23   2    0.308522    0.920829    0.699068    11.00000   -1.50000
H24   2    0.322758    0.899110    0.614559    11.00000   -1.50000
AFIX   0
C35   1    0.000471    0.708607    0.633074    11.00000    0.02680    0.04661 =
         0.03243    0.01802    0.01997    0.01008
AFIX 137
H25   2    0.014759    0.677757    0.677740    11.00000   -1.50000
H26   2   -0.063642    0.676081    0.582860    11.00000   -1.50000
H27   2    0.000804    0.768006    0.657510    11.00000   -1.50000
AFIX   0
C36   1    0.123732    0.574514    0.439158    11.00000    0.02773    0.03491 =
         0.03572    0.00531    0.01807   -0.00048
AFIX 137
H28   2    0.088553    0.519107    0.441315    11.00000   -1.50000
H29   2    0.186931    0.571374    0.445614    11.00000   -1.50000
H30   2    0.085849    0.584293    0.382953    11.00000   -1.50000
AFIX   0
C37   1    0.336719    0.890543    0.239656    11.00000    0.01706    0.02412 =
         0.01725    0.01015    0.00942    0.00399
C38   1    0.369776    0.978242    0.292946    11.00000    0.02229    0.02624 =
         0.02100    0.00898    0.01148    0.00352
C39   1    0.342046    1.042587    0.253889    11.00000    0.02773    0.02095 =
         0.02961    0.01110    0.01450    0.00413
AFIX  43
H31   2    0.364391    1.101822    0.289367    11.00000   -1.20000
AFIX   0
C40   1    0.282263    1.022341    0.163953    11.00000    0.02271    0.03176 =
         0.03221    0.02012    0.01595    0.00869
C41   1    0.250260    0.936373    0.113337    11.00000    0.01974    0.03947 =
         0.01927    0.01530    0.00923    0.00803
AFIX  43
H32   2    0.209596    0.922377    0.052072    11.00000   -1.20000
AFIX   0
C42   1    0.275382    0.868852    0.148747    11.00000    0.01501    0.03119 =
         0.01720    0.00877    0.00888    0.00390
C43   1    0.432769    1.005060    0.390673    11.00000    0.03908    0.02480 =
         0.01983    0.00419    0.00941    0.00575
AFIX 137
H33   2    0.500336    1.010682    0.404805    11.00000   -1.50000
H34   2    0.410378    0.960241    0.413922    11.00000   -1.50000
H35   2    0.428580    1.061707    0.416880    11.00000   -1.50000
AFIX   0
C44   1    0.252256    1.094108    0.124590    11.00000    0.03417    0.04292 =
         0.04257    0.02923    0.01912    0.01713
AFIX 137
H36   2    0.232746    1.075895    0.062195    11.00000   -1.50000
H37   2    0.307086    1.148437    0.154132    11.00000   -1.50000
H38   2    0.197492    1.104493    0.131935    11.00000   -1.50000
AFIX   0
C45   1    0.234702    0.775640    0.089697    11.00000    0.02684    0.03503 =
         0.01627    0.00327    0.00546    0.01057
AFIX 137
H39   2    0.182021    0.772165    0.032854    11.00000   -1.50000
H40   2    0.209436    0.736339    0.116135    11.00000   -1.50000
H41   2    0.286180    0.757772    0.081682    11.00000   -1.50000
AFIX   0
C46   1    0.702659    0.559634    0.910819    11.00000    0.01919    0.02052 =
         0.02031    0.00912    0.00725    0.00317
C47   1    0.715100    0.630444    0.875829    11.00000    0.02005    0.02702 =
         0.02063    0.01247    0.00518    0.00245
AFIX  43
H42   2    0.691046    0.626866    0.815804    11.00000   -1.20000
AFIX   0
C48   1    0.768008    0.704122    0.944839    11.00000    0.01937    0.02289 =
         0.02821    0.01496    0.00900    0.00327
AFIX  43
H43   2    0.786958    0.762250    0.941918    11.00000   -1.20000
AFIX   0
C49   1    0.790173    0.679037    1.022474    11.00000    0.01626    0.02032 =
         0.02381    0.01016    0.00695    0.00351
C50   1    0.849211    0.735409    1.107539    11.00000    0.01582    0.01605 =
         0.02521    0.00679    0.00649    0.00180
C51   1    0.875289    0.704697    1.180220    11.00000    0.01923    0.01654 =
         0.02403    0.00508    0.00898    0.00292
C52   1    0.940095    0.748311    1.271078    11.00000    0.01858    0.01897 =
         0.02349    0.00257    0.00687    0.00065
AFIX  43
H44   2    0.976875    0.808865    1.296344    11.00000   -1.20000
AFIX   0
C53   1    0.939606    0.687093    1.315125    11.00000    0.02384    0.02295 =
         0.01747    0.00371    0.00757    0.00286
AFIX  43
H45   2    0.976472    0.696729    1.376273    11.00000   -1.20000
AFIX   0
C54   1    0.873635    0.606918    1.251911    11.00000    0.02006    0.02029 =
         0.01885    0.00689    0.00879    0.00410
C55   1    0.832525    0.519615    1.248953    11.00000    0.01958    0.02108 =
         0.01575    0.00438    0.00601    0.00121
C56   1    0.838222    0.469673    1.308119    11.00000    0.02601    0.02880 =
         0.01367    0.00833    0.00545    0.00083
AFIX  43
H46   2    0.878398    0.489588    1.369777    11.00000   -1.20000
AFIX   0
C57   1    0.774331    0.386933    1.258872    11.00000    0.02393    0.02562 =
         0.01809    0.01131    0.00976    0.00279
AFIX  43
H47   2    0.762190    0.338600    1.280075    11.00000   -1.20000
AFIX   0
C58   1    0.729697    0.387252    1.169999    11.00000    0.02173    0.01773 =
         0.02096    0.00840    0.01121    0.00445
C59   1    0.658125    0.320927    1.094422    11.00000    0.01868    0.01802 =
         0.01978    0.00817    0.01102    0.00503
C60   1    0.625597    0.333116    1.011694    11.00000    0.01900    0.01402 =
         0.02081    0.00701    0.00983    0.00616
C61   1    0.553663    0.268767    0.931905    11.00000    0.01933    0.01479 =
         0.02151    0.00551    0.00876    0.00328
AFIX  43
H48   2    0.516681    0.212307    0.926078    11.00000   -1.20000
AFIX   0
C62   1    0.547256    0.302503    0.865387    11.00000    0.02069    0.01682 =
         0.01711    0.00398    0.00720    0.00568
AFIX  43
H49   2    0.505774    0.274178    0.804640    11.00000   -1.20000
AFIX   0
C63   1    0.614715    0.388263    0.904666    11.00000    0.02089    0.01860 =
         0.01790    0.00853    0.00951    0.00791
N5    3    0.747810    0.587601    0.999145    11.00000    0.01634    0.01737 =
         0.01676    0.00676    0.00446    0.00165
N6    3    0.836838    0.617740    1.171142    11.00000    0.01841    0.01803 =
         0.01801    0.00567    0.00600    0.00076
N7    3    0.767924    0.468583    1.166414    11.00000    0.01926    0.01726 =
         0.01672    0.00612    0.00639    0.00168
N8    3    0.661879    0.408558    0.992766    11.00000    0.01843    0.01569 =
         0.01683    0.00671    0.00865    0.00377
NI2   5    0.750410    0.519145    1.076567    11.00000    0.01644    0.01477 =
         0.01414    0.00563    0.00523    0.00058
P2    4    0.653142    0.448656    0.845515    11.00000    0.02545    0.02028 =
         0.01556    0.00744    0.00818    0.00172
C64   1    0.886956    0.831428    1.118472    11.00000    0.01992    0.01858 =
         0.02212    0.00707    0.00371    0.00179
C65   1    0.966299    0.861326    1.105972    11.00000    0.02096    0.02101 =
         0.03195    0.00804    0.00715    0.00236
C66   1    0.998327    0.950501    1.112678    11.00000    0.02156    0.02603 =
         0.04046    0.01287    0.00898   -0.00008
AFIX  43
H50   2    1.052212    0.970868    1.103836    11.00000   -1.20000
AFIX   0
C67   1    0.953002    1.009662    1.131958    11.00000    0.02718    0.01964 =
         0.02986    0.00890    0.00162    0.00037
C68   1    0.874752    0.978412    1.145009    11.00000    0.03139    0.02214 =
         0.02836    0.00691    0.00752    0.00773
AFIX  43
H51   2    0.843947    1.018662    1.159140    11.00000   -1.20000
AFIX   0
C69   1    0.839624    0.890136    1.138162    11.00000    0.02611    0.02427 =
         0.02442    0.00875    0.00714    0.00523
C70   1    1.018140    0.799751    1.085603    11.00000    0.02524    0.02664 =
         0.06894    0.01564    0.02279    0.00429
AFIX 137
H52   2    1.018440    0.755468    1.116706    11.00000   -1.50000
H53   2    1.085192    0.833242    1.104291    11.00000   -1.50000
H54   2    0.984575    0.770413    1.022535    11.00000   -1.50000
AFIX   0
C71   1    0.989777    1.105430    1.138731    11.00000    0.03334    0.02525 =
         0.04990    0.01381    0.00676    0.00116
AFIX 137
H55   2    0.973493    1.111097    1.080359    11.00000   -1.50000
H56   2    1.060462    1.127148    1.176206    11.00000   -1.50000
H57   2    0.959200    1.140084    1.164018    11.00000   -1.50000
AFIX   0
C72   1    0.753947    0.859228    1.152168    11.00000    0.04328    0.03048 =
         0.04887    0.01132    0.02797    0.01184
AFIX 137
H58   2    0.775918    0.844525    1.207402    11.00000   -1.50000
H59   2    0.706488    0.806930    1.103880    11.00000   -1.50000
H60   2    0.723654    0.906106    1.154340    11.00000   -1.50000
AFIX   0
C73   1    0.616682    0.233432    1.101647    11.00000    0.02484    0.01626 =
         0.01286    0.00393    0.00872    0.00109
C74   1    0.669523    0.173019    1.111776    11.00000    0.02605    0.02295 =
         0.01478    0.00683    0.01041    0.00558
C75   1    0.629337    0.091313    1.117269    11.00000    0.03663    0.01911 =
         0.01976    0.00891    0.01315    0.00955
AFIX  43
H61   2    0.664996    0.050083    1.124088    11.00000   -1.20000
AFIX   0
C76   1    0.539518    0.068505    1.113115    11.00000    0.03630    0.01989 =
         0.01746    0.00623    0.01176   -0.00134
C77   1    0.488437    0.129620    1.103209    11.00000    0.02542    0.02757 =
         0.02135    0.00768    0.01156   -0.00107
AFIX  43
H62   2    0.426569    0.114955    1.100459    11.00000   -1.20000
AFIX   0
C78   1    0.525662    0.212036    1.097189    11.00000    0.02242    0.02152 =
         0.01865    0.00628    0.00993    0.00188
C79   1    0.768329    0.194101    1.117529    11.00000    0.03110    0.03195 =
         0.03487    0.01873    0.02126    0.01303
AFIX 137
H63   2    0.770815    0.231534    1.080390    11.00000   -1.50000
H64   2    0.780378    0.139331    1.097712    11.00000   -1.50000
H65   2    0.818101    0.225158    1.178228    11.00000   -1.50000
AFIX   0
C80   1    0.497773   -0.020138    1.120075    11.00000    0.04327    0.02224 =
         0.02784    0.00966    0.01170   -0.00576
AFIX 137
H66   2    0.449527   -0.059336    1.061638    11.00000   -1.50000
H67   2    0.466660   -0.012597    1.156750    11.00000   -1.50000
H68   2    0.550092   -0.045899    1.146344    11.00000   -1.50000
AFIX   0
C81   1    0.468384    0.276832    1.088387    11.00000    0.02518    0.03313 =
         0.03301    0.01307    0.01739    0.00789
AFIX 137
H69   2    0.507024    0.330912    1.137330    11.00000   -1.50000
H70   2    0.408024    0.251072    1.088875    11.00000   -1.50000
H71   2    0.452865    0.290640    1.033233    11.00000   -1.50000
PART 1
AFIX   0
C82   1    0.552697    0.445681    0.746536    21.00000    0.02645    0.01051 =
         0.01978    0.00417    0.00508    0.00135
C83   1    0.464804    0.455820    0.742145    21.00000    0.02800    0.01246 =
         0.02434    0.00551    0.00600    0.00129
C84   1    0.391704    0.456952    0.663523    21.00000    0.03342    0.01738 =
         0.02558    0.00615   -0.00037    0.00126
AFIX  43
H72   2    0.332122    0.462210    0.660053    21.00000   -1.20000
AFIX   0
C85   1    0.403433    0.450615    0.590075    21.00000    0.03982    0.01818 =
         0.02659    0.00407   -0.00073    0.00359
C86   1    0.491915    0.441651    0.595357    21.00000    0.04522    0.01431 =
         0.01694    0.00601    0.00478    0.00381
AFIX  43
H73   2    0.500496    0.436615    0.545168    21.00000   -1.20000
AFIX   0
C87   1    0.566225    0.440134    0.672945    21.00000    0.03180    0.01709 =
         0.01980    0.00527    0.00754    0.00704
C88   1    0.446520    0.467491    0.819058    21.00000    0.02366    0.02349 =
         0.03993    0.01125    0.00966    0.00614
AFIX 137
H74   2    0.393708    0.493808    0.808070    21.00000   -1.50000
H75   2    0.505673    0.506244    0.871576    21.00000   -1.50000
H76   2    0.428253    0.410033    0.827697    21.00000   -1.50000
AFIX   0
C89   1    0.326507    0.455363    0.505792    21.00000    0.05773    0.03793 =
         0.02507    0.00674   -0.00792    0.00907
AFIX 137
H77   2    0.262234    0.424628    0.496519    21.00000   -1.50000
H78   2    0.335693    0.427408    0.457358    21.00000   -1.50000
H79   2    0.331338    0.517153    0.508437    21.00000   -1.50000
AFIX   0
C90   1    0.661621    0.437312    0.676014    21.00000    0.04385    0.02156 =
         0.02048    0.00781    0.01576    0.00874
AFIX 137
H80   2    0.652755    0.423052    0.616486    21.00000   -1.50000
H81   2    0.683214    0.392197    0.702836    21.00000   -1.50000
H82   2    0.710657    0.494859    0.710706    21.00000   -1.50000
AFIX   0
C91   1    1.001399    0.478975    1.121744    31.00000    0.04489    0.03689 =
         0.05887    0.00313    0.02309    0.00632
AFIX  13
H83   2    0.940354    0.483529    1.074967    31.00000   -1.20000
AFIX   0
CL1   6    1.071114    0.584394    1.193302    31.00000    0.06106    0.04011 =
         0.05357    0.00256    0.02944    0.00999
CL2   6    1.064008    0.435324    1.071576    31.00000    0.07863    0.06430 =
         0.08550    0.00370    0.05357    0.02587
CL3   6    0.969347    0.410586    1.176663    31.00000    0.09582    0.05699 =
         0.12750    0.03418    0.08569    0.01789
PART 3
C92   1    1.052882    0.403553    1.184696   -31.00000    0.06528    0.05167 =
         0.09297    0.00563    0.01694    0.01222
AFIX  13
H84   2    1.091408    0.440370    1.164104   -31.00000   -1.20000
AFIX   0
CL4   6    0.939013    0.417416    1.114295   -31.00000    0.09858    0.12965 =
         0.53772   -0.08484    0.11542   -0.00019
CL5   6    1.140228    0.425902    1.280634   -31.00000    0.12569    0.19178 =
         0.18602    0.10988    0.10538    0.06105
CL6   6    1.051710    0.304916    1.128885   -31.00000    0.16403    0.11686 =
         0.18420    0.01770    0.03443    0.04121
PART 2
C93   1    0.614399    0.431888    0.659124   -21.00000    0.04599    0.02389 =
         0.01819    0.00914    0.00149    0.00666
AFIX 137
H85   2    0.593145    0.411647    0.596465   -21.00000   -1.50000
H86   2    0.638948    0.388207    0.686717   -21.00000   -1.50000
H87   2    0.666158    0.488272    0.685826   -21.00000   -1.50000
AFIX   0
C94   1    0.279695    0.458325    0.533071   -21.00000    0.05286    0.03553 =
         0.03661    0.00334   -0.01610    0.00685
AFIX 137
H88   2    0.228956    0.462385    0.549247   -21.00000   -1.50000
H89   2    0.255728    0.404554    0.484813   -21.00000   -1.50000
H90   2    0.296743    0.509735    0.514721   -21.00000   -1.50000
AFIX   0
C95   1    0.458410    0.479799    0.852293   -21.00000    0.02230    0.02127 =
         0.03771    0.01592    0.00850    0.01125
AFIX 137
H91   2    0.441794    0.422659    0.862078   -21.00000   -1.50000
H92   2    0.410670    0.509860    0.851887   -21.00000   -1.50000
H93   2    0.523284    0.515904    0.899229   -21.00000   -1.50000
AFIX   0
C96   1    0.531621    0.443223    0.671699   -21.00000    0.03458    0.01711 =
         0.02279    0.00459    0.00384    0.00277
C97   1    0.446176    0.441961    0.600463   -21.00000    0.03822    0.01966 =
         0.02297    0.00535    0.00194    0.00519
AFIX  43
H94   2    0.440377    0.431693    0.543763   -21.00000   -1.20000
AFIX   0
C98   1    0.371669    0.455617    0.613514   -21.00000    0.04556    0.01577 =
         0.03044    0.00769   -0.00637    0.00261
C99   1    0.375211    0.468258    0.695276   -21.00000    0.03612    0.01956 =
         0.03197    0.00725   -0.00342   -0.00129
AFIX  43
H95   2    0.321761    0.478221    0.701795   -21.00000   -1.20000
AFIX   0
C100  1    0.457626    0.466124    0.766963   -21.00000    0.02878    0.01338 =
         0.02153    0.00701    0.00336    0.00334
C101  1    0.534314    0.452874    0.754532   -21.00000    0.02733    0.01616 =
         0.01531    0.00608    0.00069    0.00431
PART 0

HKLF 4

REM  shino150807oh_0m_a.res
REM R1 =  0.0428 for   11824 Fo > 4sig(Fo)  and  0.0488 for all   13132 data
REM   1095 parameters refined using    271 restraints

END

WGHT      0.0568      6.5310

REM Highest difference peak  1.086,  deepest hole -0.794,  1-sigma level  0.075
Q1    1   0.3246  0.7222  0.2261  11.00000  0.05    1.09
Q2    1   1.1351  0.5987  1.1599  11.00000  0.05    0.85
Q3    1   1.1191  0.5617  1.2302  11.00000  0.05    0.84
Q4    1   0.7173  0.4325  0.8304  11.00000  0.05    0.74
Q5    1   1.0777  0.4625  1.0101  11.00000  0.05    0.67
Q6    1   1.1008  0.4129  1.1189  11.00000  0.05    0.64
Q7    1   0.9276  0.4471  1.0272  11.00000  0.05    0.61
Q8    1   0.4422  0.7213  0.4371  11.00000  0.05    0.51
Q9    1   0.9822  0.5720  1.0637  11.00000  0.05    0.50
Q10   1   1.1060  0.6387  1.1773  11.00000  0.05    0.45
Q11   1   0.6936  0.5352  1.0919  11.00000  0.05    0.37
Q12   1   0.5773  0.6968  0.6276  11.00000  0.05    0.35
Q13   1   0.3434  0.8028  0.3256  11.00000  0.05    0.35
Q14   1   0.2199  0.8257  0.4307  11.00000  0.05    0.35
Q15   1   0.2335  0.8465  0.3731  11.00000  0.05    0.34
Q16   1   0.6737  0.5070  0.8831  11.00000  0.05    0.34
Q17   1   0.8636  0.4929  1.2784  11.00000  0.05    0.33
Q18   1   1.0802  0.3959  1.2129  11.00000  0.05    0.31
Q19   1   0.6250  0.4193  0.8752  11.00000  0.05    0.31
Q20   1   0.7550  0.9113  1.2089  11.00000  0.05    0.30
;
_shelx_res_checksum              45748
_shelx_hkl_file
;
  -8   0   0 2221.78   63.29
  -9   0   0   74.19    2.80
 -10   0   0  636.74   18.50
 -11   0   0   23.30    1.90
 -12   0   0   18.40    1.90
 -13   0   0   44.70    2.60
 -14   0   0   60.29    3.20
 -15   0   0   41.70    3.00
 -16   0   0  103.69    4.60
 -16   1   0   -0.70    0.90
 -15   1   0  216.78    7.40
 -14   1   0    0.60    0.90
 -13   1   0  177.88    6.10
 -12   1   0   24.10    2.00
 -11   1   0   23.00    2.30
 -10   1   0  407.66   12.10
  -9   1   0   14.70    1.30
  -8   1   0  772.32   22.10
  -7   1   0   31.80    1.50
  -6   1   0  216.68    6.50
  -1  -1   0  359.16   10.20
  -2  -1   0 1072.69   30.40
  -3  -1   0  103.29    3.10
  -4  -1   0   20.30    0.90
  -5  -1   0   34.50    1.40
  -9  -1   0  101.29    3.60
 -10  -1   0  185.58    6.00
 -11  -1   0   33.00    2.20
 -12  -1   0  203.28    6.70
 -13  -1   0   15.00    2.10
 -14  -1   0   93.49    4.00
 -15  -1   0   -0.10    0.90
 -16   2   0    6.80    1.20
 -15   2   0   91.59    4.10
 -14   2   0  402.36   12.30
 -13   2   0  186.18    6.30
 -12   2   0  642.64   18.80
 -11   2   0   10.00    1.60
 -10   2   0  572.84   16.70
  -9   2   0  232.68    7.10
  -8   2   0    6.40    1.10
  -7   2   0 1197.58   33.90
  -6   2   0  260.27    7.60
  -5   2   0    5.20    0.70
   4  -2   0  124.79    3.60
  -4   2   0  125.79    3.70
  -4   2   0  124.59    3.70
   3  -2   0 3977.70  108.89
  -3   2   0 3847.72  108.89
  -3   2   0 3775.62  108.99
   2  -2   0    4.00    0.30
  -2   2   0    3.50    0.40
  -2   2   0    4.80    0.50
  -1   2   0 1436.86   41.10
   0  -2   0  317.67    8.60
   0   2   0  274.27    8.60
  -1  -2   0 1451.65   40.50
  -1  -2   0 1409.76   40.90
  -2  -2   0   97.09    3.00
   2   2   0   95.59    3.00
  -3  -2   0   48.50    1.70
  -4  -2   0  356.86   10.30
  -5  -2   0   23.70    1.20
  -6  -2   0  496.05   14.80
  -7  -2   0  535.45   15.30
  -8  -2   0   11.10    1.20
 -10  -2   0  865.01   25.30
 -11  -2   0  249.78    7.90
 -12  -2   0   86.39    3.60
 -13  -2   0   12.40    2.00
 -14  -2   0  122.09    4.80
 -15  -2   0   23.90    2.70
 -16   3   0  197.08    7.00
 -15   3   0  130.59    5.00
 -14   3   0  125.99    4.80
 -13   3   0   53.19    2.90
 -12   3   0  427.26   12.80
 -11   3   0    6.90    0.90
 -10   3   0   26.70    1.70
  -9   3   0   28.10    1.60
  -8   3   0  207.08    6.30
  -7   3   0  209.18    6.00
  -7   3   0  199.28    6.20
   6  -3   0  371.26   10.60
  -6   3   0  383.36   10.70
  -6   3   0  367.76   10.80
   5  -3   0  148.29    4.30
  -5   3   0  147.39    4.30
  -5   3   0  141.89    4.40
   4  -3   0 2605.74   72.49
  -4   3   0 2511.35   72.39
  -4   3   0 2555.34   72.49
   3  -3   0  523.45   14.80
   3  -3   0  547.75   14.90
  -3   3   0  510.15   14.80
  -3   3   0  499.85   14.70
   2  -3   0  925.01   26.00
   2  -3   0  915.11   25.60
  -2   3   0  904.41   25.60
  -2   3   0  871.51   25.70
   1  -3   0 1933.51   55.69
   1  -3   0 1965.30   54.79
  -1   3   0 1939.81   54.69
  -1   3   0 1960.10   55.79
   0  -3   0 1986.80   57.69
   0  -3   0 1972.10   56.59
   0   3   0 2086.89   57.89
  -1  -3   0   75.29    2.20
  -1  -3   0   71.39    2.40
   1   3   0   73.59    2.50
  -2  -3   0 1931.61   54.99
  -2  -3   0 1883.41   53.99
   2   3   0 1871.61   53.99
  -3  -3   0   45.70    1.70
  -4  -3   0    2.30    0.40
  -5  -3   0   61.89    2.30
  -6  -3   0   93.89    3.20
  -7  -3   0  155.48    4.90
  -8  -3   0  134.29    4.30
  -9  -3   0   53.19    2.20
 -10  -3   0  469.65   13.60
 -10  -3   0  458.45   13.70
 -11  -3   0   26.70    2.00
 -11  -3   0   21.70    1.60
 -12  -3   0   76.29    3.40
 -13  -3   0   26.70    2.30
 -14  -3   0    4.40    1.00
 -15  -3   0   96.49    4.40
 -17   4   0   -0.70    1.20
 -16   4   0    2.00    1.10
 -15   4   0    8.40    1.20
 -14   4   0   14.40    2.30
 -13   4   0   37.30    2.50
 -12   4   0    5.30    0.90
 -11   4   0    6.00    0.80
 -10   4   0  109.89    3.90
  -9   4   0   14.00    1.40
  -8   4   0   44.50    1.90
  -8   4   0   46.10    1.80
  -7   4   0    3.20    0.50
  -7   4   0    2.90    0.50
   6  -4   0  358.46   10.40
  -6   4   0  371.66   10.50
  -6   4   0  357.96   10.50
   5  -4   0  191.78    5.70
  -5   4   0  191.88    5.70
  -5   4   0  197.28    5.80
   4  -4   0 1026.70   29.20
   4  -4   0 1043.50   29.20
  -4   4   0 1008.60   28.90
  -4   4   0  991.70   28.80
   3  -4   0 1609.44   45.40
   3  -4   0 1637.24   46.10
  -3   4   0 1590.04   45.50
  -3   4   0 1584.54   45.80
   2  -4   0  206.58    6.00
   2  -4   0  194.38    5.80
  -2   4   0  200.78    5.80
  -2   4   0  209.68    6.10
   1  -4   0  335.07   10.00
   1  -4   0  356.86    9.70
  -1   4   0  351.46   10.10
  -1   4   0  338.47    9.80
   0  -4   0 4183.58  117.39
   0   4   0 4065.69  117.29
  -1  -4   0 2560.04   72.99
  -1  -4   0 2557.54   71.69
   1   4   0 2513.05   72.89
  -2  -4   0   42.70    1.70
  -2  -4   0   44.90    1.40
   2   4   0   43.10    1.80
  -3  -4   0  779.72   21.30
  -3  -4   0  702.23   21.10
   3   4   0  742.03   21.20
  -4  -4   0  489.55   13.80
  -4  -4   0  466.55   13.60
  -5  -4   0  276.07    8.00
  -5  -4   0  272.47    8.20
  -6  -4   0  328.27    9.50
  -6  -4   0  311.47    9.30
  -7  -4   0  423.76   12.40
  -7  -4   0  423.16   12.30
  -8  -4   0 1291.97   36.10
  -8  -4   0 1250.27   36.00
  -9  -4   0   81.29    2.90
  -9  -4   0   82.39    3.10
 -10  -4   0    0.80    0.60
 -10  -4   0    0.70    0.70
 -10  -4   0    1.10    0.50
 -11  -4   0   41.10    2.40
 -12  -4   0    3.10    0.90
 -13  -4   0  114.59    4.50
 -14  -4   0   22.20    2.40
 -17   5   0    2.30    1.10
 -16   5   0   89.49    4.20
 -15   5   0  398.36   12.30
 -14   5   0  223.08    7.40
 -13   5   0   24.40    2.30
 -12   5   0  241.18    7.60
 -11   5   0  326.57    9.90
 -10   5   0  139.99    4.70
   9  -5   0  384.56   11.20
  -9   5   0  385.86   11.40
  -9   5   0  398.56   11.40
   8  -5   0  413.26   12.00
  -8   5   0  412.56   12.20
  -8   5   0  432.36   12.20
   7  -5   0 1225.28   33.80
  -7   5   0 1194.38   33.80
  -7   5   0 1162.78   33.70
   6  -5   0  288.97    8.30
  -6   5   0  271.77    8.30
  -6   5   0  292.87    8.40
   5  -5   0  223.38    6.50
  -5   5   0  215.28    6.40
  -5   5   0  223.78    6.70
   4  -5   0   82.69    2.70
   4  -5   0   84.19    2.60
  -4   5   0   80.39    2.80
  -4   5   0   80.79    2.50
   3  -5   0  137.69    4.00
   3  -5   0  137.99    4.20
  -3   5   0  135.19    4.30
  -3   5   0  134.19    4.00
   2  -5   0   25.50    0.90
   2  -5   0   26.30    1.30
  -2   5   0   28.20    0.90
  -2   5   0   27.40    1.40
   1  -5   0  137.29    3.90
   1  -5   0  134.69    4.30
  -1   5   0  130.19    3.90
  -1   5   0  140.89    4.30
   0  -5   0  397.76   11.70
   0  -5   0  403.36   11.40
   0   5   0  408.66   11.80
  -1  -5   0  267.07    8.00
  -1  -5   0  267.77    7.60
   1   5   0  270.97    8.10
  -2  -5   0  148.29    4.30
  -2  -5   0  148.19    4.70
   2   5   0  149.19    4.80
  -3  -5   0  147.99    4.70
  -3  -5   0  146.19    4.30
   3   5   0  144.09    4.80
  -4  -5   0  400.76   11.70
  -4  -5   0  394.76   11.40
  -5  -5   0  193.78    6.20
  -5  -5   0  202.08    5.90
  -6  -5   0  164.38    5.00
  -6  -5   0  164.48    5.30
  -7  -5   0  106.99    3.50
  -7  -5   0  107.29    3.80
  -8  -5   0   67.99    2.80
  -8  -5   0   68.19    2.50
  -9  -5   0   11.10    1.20
  -9  -5   0   11.30    1.70
 -10  -5   0   75.39    2.90
 -10  -5   0   76.29    3.20
 -10  -5   0   76.39    3.20
 -11  -5   0    4.30    0.90
 -11  -5   0    6.50    1.00
 -12  -5   0   14.20    2.00
 -13  -5   0   53.19    3.10
 -14  -5   0  107.29    4.50
 -17   6   0  105.79    4.80
 -16   6   0   62.29    3.50
 -15   6   0    9.90    1.30
 -14   6   0  107.49    4.30
 -13   6   0   78.49    3.50
 -12   6   0  136.89    5.90
 -11   6   0    1.40    0.80
 -11   6   0    0.40    0.70
  10  -6   0    0.70    0.40
 -10   6   0    0.10    0.60
 -10   6   0    0.30    0.60
   9  -6   0  380.56   11.20
  -9   6   0  383.06   11.40
  -9   6   0  406.26   11.50
   8  -6   0   91.29    3.00
  -8   6   0   87.19    3.10
  -8   6   0   91.99    3.20
   7  -6   0  473.35   13.50
  -7   6   0  452.55   13.40
  -7   6   0  475.35   13.60
   6  -6   0 1047.90   29.10
  -6   6   0 1032.20   29.20
  -6   6   0  999.70   29.00
   5  -6   0  431.06   12.20
   5  -6   0  427.66   12.40
  -5   6   0  447.06   12.60
  -5   6   0  406.06   12.20
   4  -6   0   55.59    1.80
   4  -6   0   55.29    2.10
  -4   6   0   54.89    1.90
  -4   6   0   54.79    2.30
   3  -6   0   39.80    1.30
   3  -6   0   41.90    1.70
  -3   6   0   38.80    1.30
  -3   6   0   39.00    1.90
   2  -6   0  331.57    9.30
   2  -6   0  338.47    9.70
  -2   6   0  306.27    9.30
  -2   6   0  341.77    9.80
   1  -6   0  890.61   23.80
   1  -6   0  857.91   24.10
  -1   6   0  849.81   24.10
  -1   6   0  771.72   23.80
   0  -6   0  679.63   19.00
   0  -6   0  669.03   18.70
   0   6   0  663.93   18.70
   0   6   0  620.94   19.00
  -1  -6   0 1730.13   50.89
  -1  -6   0 1833.82   51.29
   1   6   0 1797.92   51.29
  -2  -6   0  149.88    4.40
  -2  -6   0  152.68    4.90
   2   6   0  153.38    5.00
  -3  -6   0   58.59    1.90
  -3  -6   0   60.59    2.40
   3   6   0   60.29    2.60
  -4  -6   0  170.78    5.10
  -4  -6   0  175.08    5.50
  -5  -6   0  721.03   18.60
  -5  -6   0  553.14   18.50
  -6  -6   0   73.19    3.00
  -6  -6   0   77.29    2.60
  -7  -6   0    4.80    0.90
  -7  -6   0    6.50    0.90
  -8  -6   0    0.40    1.20
  -8  -6   0    0.40    0.40
  -9  -6   0  487.65   14.60
  -9  -6   0  515.55   14.90
 -10  -6   0  402.66   12.20
 -10  -6   0  411.26   12.40
 -10  -6   0  423.36   12.40
 -11  -6   0   23.10    2.60
 -11  -6   0   16.60    2.00
 -12  -6   0   74.39    3.70
 -12  -6   0   72.59    3.40
 -13  -6   0    4.50    1.00
 -17   7   0   48.90    3.50
 -16   7   0   31.00    3.00
 -15   7   0   78.09    3.80
 -14   7   0   32.40    2.60
 -13   7   0    3.10    0.90
 -12   7   0  241.18    7.30
 -12   7   0  215.68    7.70
  11  -7   0  177.58    5.40
 -11   7   0  181.28    5.90
 -11   7   0  175.18    5.80
  10  -7   0  103.99    3.50
 -10   7   0  108.59    3.80
 -10   7   0  110.59    3.90
   9  -7   0   43.00    1.80
  -9   7   0   39.60    2.00
  -9   7   0   40.60    2.20
   8  -7   0  915.81   25.60
  -8   7   0  865.51   25.60
  -8   7   0  916.41   25.80
   7  -7   0   57.89    2.20
  -7   7   0   51.49    2.10
  -7   7   0   52.89    2.50
   6  -7   0  392.26   11.40
  -6   7   0  399.36   11.50
  -6   7   0  371.96   11.20
   5  -7   0  260.77    7.50
   5  -7   0  261.47    7.80
  -5   7   0  258.37    7.50
  -5   7   0  257.87    8.00
   4  -7   0   14.10    0.80
   4  -7   0   13.60    1.20
  -4   7   0   12.50    1.40
  -4   7   0   12.40    0.90
   3  -7   0   46.60    2.00
   3  -7   0   42.20    1.50
  -3   7   0   46.00    2.20
  -3   7   0   48.40    1.50
   2  -7   0  804.72   22.30
   2  -7   0  801.92   22.80
  -2   7   0  771.92   22.80
   1  -7   0  447.46   12.80
   1  -7   0  430.86   12.30
  -1   7   0  449.95   13.00
  -1   7   0  418.26   12.30
   0  -7   0  674.03   19.00
   0  -7   0  674.93   19.40
   0   7   0  670.13   19.00
   0   7   0  662.13   19.50
  -1  -7   0    4.10    0.70
  -1  -7   0    4.50    0.50
   1   7   0    4.20    0.80
  -2  -7   0  597.04   16.80
  -2  -7   0  582.54   17.10
   2   7   0  586.24   17.20
  -3  -7   0  289.27    9.30
  -3  -7   0  294.47    8.50
   3   7   0  305.07    9.20
  -4  -7   0  531.95   16.60
  -4  -7   0  581.34   15.90
  -5  -7   0  843.92   24.20
  -5  -7   0  860.91   24.60
  -6  -7   0  114.09    3.70
  -6  -7   0  116.49    4.20
  -7  -7   0   41.60    1.80
  -7  -7   0   42.30    2.40
  -8  -7   0  497.05   14.80
  -8  -7   0  523.15   15.20
  -9  -7   0    1.20    0.50
  -9  -7   0    1.20    0.90
 -10  -7   0   13.40    1.50
 -10  -7   0   16.50    1.90
 -10  -7   0   17.90    2.50
 -11  -7   0   23.80    2.30
 -11  -7   0   27.10    2.90
 -12  -7   0   33.10    2.60
 -13  -7   0   75.29    3.80
 -17   8   0   23.80    3.10
 -16   8   0   21.50    2.80
 -15   8   0   26.10    2.70
 -14   8   0   42.50    2.80
 -13   8   0  121.49    4.60
 -13   8   0  117.69    4.50
  12  -8   0   46.70    2.10
 -12   8   0   45.10    2.80
 -12   8   0   45.60    2.60
  11  -8   0    9.30    1.40
 -11   8   0    8.40    1.10
 -11   8   0   11.00    1.80
  10  -8   0   31.70    1.70
 -10   8   0   31.10    2.30
 -10   8   0   30.40    1.90
   9  -8   0   82.89    2.90
  -9   8   0   80.39    3.30
  -9   8   0   79.39    3.00
   8  -8   0    2.40    0.50
  -8   8   0    1.90    0.50
  -8   8   0    1.80    0.70
   7  -8   0  165.38    5.30
  -7   8   0  164.58    5.50
  -7   8   0  166.98    5.10
   6  -8   0   12.20    1.20
  -6   8   0   13.10    1.60
  -6   8   0   10.90    1.10
   5  -8   0  611.84   17.30
   5  -8   0  593.04   16.90
  -5   8   0  580.94   16.90
  -5   8   0  604.34   17.50
   4  -8   0  164.08    4.70
   4  -8   0  162.78    5.30
  -4   8   0  163.08    4.80
  -4   8   0  160.88    5.40
   3  -8   0  128.09    3.80
   3  -8   0  125.59    4.60
  -3   8   0  136.09    4.60
  -3   8   0  129.99    3.80
   2  -8   0  194.38    5.60
  -2   8   0  194.68    6.30
   1  -8   0  157.28    4.50
   1  -8   0  148.09    5.20
  -1   8   0  161.78    4.50
  -1   8   0  157.98    5.30
   0  -8   0    5.90    0.80
   0  -8   0    7.60    1.20
   0   8   0    9.10    1.60
  -1  -8   0   73.99    2.90
  -1  -8   0   72.19    2.20
   1   8   0   72.89    3.10
  -2  -8   0  260.07    7.80
  -2  -8   0  274.87    8.40
   2   8   0  276.97    8.60
  -3  -8   0  516.05   15.00
  -3  -8   0  536.25   15.60
   3   8   0  535.25   15.80
  -4  -8   0  427.36   12.40
  -4  -8   0  398.06   11.90
  -5  -8   0  234.88    6.80
  -5  -8   0  226.78    7.40
  -6  -8   0    1.10    0.70
  -6  -8   0    2.00    0.40
  -7  -8   0    2.90    0.50
  -7  -8   0    1.50    0.80
  -8  -8   0   84.89    3.70
  -8  -8   0   84.89    3.00
  -9  -8   0  828.52   23.40
  -9  -8   0  775.52   23.00
 -10  -8   0   12.10    1.90
 -10  -8   0   16.90    2.70
 -11  -8   0  257.87    8.20
 -11  -8   0  251.77    8.50
 -12  -8   0   63.99    3.40
 -16   9   0    5.80    1.30
 -15   9   0  253.57    8.40
 -14   9   0  455.05   14.00
 -14   9   0  474.75   14.10
  13  -9   0    0.10    0.60
 -13   9   0    0.60    0.90
 -13   9   0   -0.50    1.10
  12  -9   0  148.19    4.90
 -12   9   0  157.98    5.70
 -12   9   0  154.38    5.30
  11  -9   0  396.96   11.50
 -11   9   0  383.76   11.70
 -11   9   0  396.36   12.00
  10  -9   0   59.79    2.50
 -10   9   0   62.69    3.10
 -10   9   0   58.79    2.60
   9  -9   0    8.40    1.40
  -9   9   0    5.90    1.00
  -9   9   0    8.30    1.40
   8  -9   0    2.20    0.60
  -8   9   0    2.10    0.80
  -8   9   0    2.80    0.60
   7  -9   0  819.42   23.40
  -7   9   0  787.72   23.20
  -7   9   0  839.72   23.70
   6  -9   0 1583.64   45.20
  -6   9   0 1599.04   44.80
  -6   9   0 1595.64   45.50
   5  -9   0   14.40    0.80
   5  -9   0   14.50    1.40
  -5   9   0   13.20    1.80
  -5   9   0   14.80    1.00
   4  -9   0    7.10    0.70
   4  -9   0    6.30    1.20
  -4   9   0    5.90    0.90
  -4   9   0    8.20    0.60
   3  -9   0   48.40    2.20
  -3   9   0   44.70    1.40
  -3   9   0   46.20    2.50
   2  -9   0   32.20    1.20
   2  -9   0   31.10    1.80
  -2   9   0   31.30    2.10
   1  -9   0    0.10    0.20
   1  -9   0    0.30    0.60
  -1   9   0    0.00    0.20
  -1   9   0    0.40    0.60
   0  -9   0  493.05   14.40
   0  -9   0  468.35   13.70
   0   9   0  499.55   14.60
  -1  -9   0 2354.16   66.09
  -1  -9   0 2376.46   65.89
   1   9   0 2277.97   66.19
  -2  -9   0  538.45   15.60
  -2  -9   0  502.35   14.90
   2   9   0  542.15   15.80
  -3  -9   0   11.90    0.80
  -3  -9   0   10.60    1.60
   3   9   0   10.90    1.90
  -4  -9   0   63.79    2.20
  -4  -9   0   63.79    2.90
  -5  -9   0   67.49    3.20
  -5  -9   0   73.89    2.50
  -6  -9   0    4.50    0.90
  -7  -9   0  259.07    8.40
  -7  -9   0  261.87    7.80
  -8  -9   0   16.10    1.40
  -8  -9   0   17.30    2.40
  -9  -9   0  316.67    9.60
  -9  -9   0  314.17    9.80
  -9  -9   0  327.07   10.20
 -10  -9   0   19.90    2.20
 -10  -9   0   24.20    3.10
 -11  -9   0    3.20    1.00
 -16  10   0   19.90    3.00
 -15  10   0    0.90    1.10
 -15  10   0   -2.60    1.40
  14 -10   0    1.20    0.80
 -14  10   0    1.90    1.00
 -14  10   0   -0.20    1.30
  13 -10   0   11.60    1.90
 -13  10   0   15.10    2.30
  12 -10   0    0.00    0.70
 -12  10   0    1.20    0.80
 -12  10   0    0.60    1.20
  11 -10   0   22.80    1.90
 -11  10   0   22.50    2.80
 -11  10   0   22.80    2.10
  10 -10   0    4.40    0.80
 -10  10   0    4.60    0.80
 -10  10   0    5.10    1.20
   9 -10   0  103.99    3.80
  -9  10   0  104.39    3.70
  -9  10   0  109.99    4.40
   8 -10   0   61.09    2.60
  -8  10   0   56.29    3.10
  -8  10   0   56.59    2.30
   7 -10   0  207.18    6.40
  -7  10   0  195.88    6.00
  -7  10   0  199.68    6.80
   6 -10   0    2.20    0.70
  -6  10   0    2.30    0.40
  -6  10   0    2.50    0.80
   5 -10   0  298.67    9.00
   5 -10   0  290.47    8.40
  -5  10   0  286.57    8.40
  -5  10   0  294.37    9.30
   4 -10   0    9.80    0.70
   4 -10   0    8.00    1.40
  -4  10   0    9.80    0.60
  -4  10   0    6.90    1.10
   3 -10   0    2.30    0.60
  -3  10   0    2.20    0.70
   2 -10   0   31.20    2.00
  -2  10   0   31.00    2.20
   1 -10   0   50.09    1.80
   1 -10   0   49.40    2.50
  -1  10   0   52.89    1.60
  -1  10   0   49.60    2.80
   0 -10   0   42.40    2.30
   0 -10   0   37.00    1.40
   0  10   0   44.60    2.60
  -1 -10   0  786.22   22.70
  -1 -10   0  824.32   23.50
   1  10   0  805.72   23.60
  -2 -10   0  210.48    6.80
  -2 -10   0  203.68    6.00
   2  10   0  206.58    7.10
  -3 -10   0   10.80    0.80
  -3 -10   0   11.20    1.70
   3  10   0   13.00    2.10
  -4 -10   0   -0.20    0.70
  -4 -10   0    0.70    0.30
  -5 -10   0   90.89    3.80
  -5 -10   0   89.49    3.00
  -6 -10   0  194.88    5.90
  -6 -10   0  192.28    6.60
  -7 -10   0    9.30    1.20
  -8 -10   0    0.00    0.50
  -8 -10   0    0.60    1.00
  -9 -10   0  263.47    8.30
  -9 -10   0  263.97    8.80
 -10 -10   0  206.08    6.80
 -10 -10   0  193.18    7.20
 -11 -10   0    1.90    1.00
 -16  11   0   71.99    4.10
 -15  11   0    4.20    1.20
 -15  11   0    0.20    1.60
  14 -11   0   29.40    2.50
 -14  11   0   38.10    3.90
 -14  11   0   39.40    2.80
  13 -11   0  520.95   15.50
 -13  11   0  555.24   16.30
 -13  11   0  517.95   15.70
  12 -11   0   46.10    2.50
 -12  11   0   48.60    3.60
 -12  11   0   45.90    2.70
  11 -11   0   22.10    2.10
 -11  11   0   26.50    3.00
 -11  11   0   23.30    2.10
  10 -11   0  118.89    4.30
 -10  11   0  121.49    5.00
 -10  11   0  113.79    4.10
   9 -11   0  406.66   12.20
  -9  11   0  399.56   11.90
  -9  11   0  412.66   12.70
   8 -11   0  113.19    4.20
  -8  11   0  113.69    4.70
  -8  11   0  109.09    3.70
   7 -11   0  347.87   10.60
  -7  11   0  352.46   11.00
  -7  11   0  343.57   10.10
   6 -11   0  554.54   16.30
  -6  11   0  544.15   15.70
  -6  11   0  563.44   16.70
   5 -11   0  173.68    5.20
   5 -11   0  180.38    5.90
  -5  11   0  177.48    5.10
  -5  11   0  176.28    6.30
   4 -11   0  591.14   17.30
  -4  11   0  580.64   17.60
   3 -11   0    0.70    0.60
  -3  11   0    0.40    0.90
   2 -11   0   30.70    2.10
  -2  11   0   29.60    2.50
   1 -11   0    2.10    0.70
   1 -11   0    1.90    0.30
  -1  11   0    3.00    0.90
   0 -11   0   68.69    2.20
   0 -11   0   71.69    3.10
   0  11   0   74.09    3.60
  -1 -11   0  127.99    3.90
  -1 -11   0  132.29    4.80
   1  11   0  129.59    5.10
  -2 -11   0   95.89    3.90
  -2 -11   0   98.19    3.00
   2  11   0   91.99    4.20
  -3 -11   0   84.49    3.70
   3  11   0   87.69    4.10
  -4 -11   0  146.29    5.40
  -4 -11   0  145.59    4.50
  -5 -11   0    6.80    1.10
  -6 -11   0  112.39    3.60
  -6 -11   0  106.79    4.60
  -7 -11   0  130.49    4.20
  -7 -11   0  124.89    5.20
  -8 -11   0  137.99    5.60
  -8 -11   0  135.29    4.50
  -8 -11   0  136.59    4.80
  -9 -11   0    2.20    0.90
  -9 -11   0    2.80    1.40
 -10 -11   0   96.19    4.20
 -16  12   0   54.19    3.90
 -15  12   0  233.18    8.00
 -15  12   0  238.78    8.70
  14 -12   0    0.80    1.00
 -14  12   0    2.30    1.10
 -14  12   0    3.20    1.60
  13 -12   0   73.19    3.30
 -13  12   0   75.19    4.60
 -13  12   0   72.09    3.50
  12 -12   0    1.30    0.90
 -12  12   0    1.60    0.90
 -12  12   0    0.90    1.40
  11 -12   0   24.10    2.20
 -11  12   0   27.80    3.30
 -11  12   0   26.10    2.20
  10 -12   0   27.30    2.30
 -10  12   0   26.70    2.00
 -10  12   0   30.90    3.20
   9 -12   0  342.97   10.70
  -9  12   0  355.66   11.30
  -9  12   0  354.16   10.40
   8 -12   0   52.89    2.80
  -8  12   0   52.79    3.40
  -8  12   0   52.69    2.20
   7 -12   0   38.90    2.40
  -7  12   0   43.40    3.10
  -7  12   0   39.30    1.80
   6 -12   0  224.88    7.50
  -6  12   0  232.78    8.00
  -6  12   0  236.88    6.70
   5 -12   0   70.89    3.20
  -5  12   0   69.99    3.70
  -5  12   0   72.39    2.20
   4 -12   0    6.00    0.90
  -4  12   0    4.50    1.10
   3 -12   0    2.00    0.80
  -3  12   0    1.10    1.00
   2 -12   0   24.10    2.10
  -2  12   0   23.60    2.50
   1 -12   0    1.50    0.80
  -1  12   0    0.40    1.40
   0 -12   0  177.18    6.10
   0 -12   0  168.38    5.10
   0  12   0  177.18    7.50
  -1 -12   0  382.06   12.00
  -1 -12   0  380.06   11.10
   1  12   0  403.46   12.40
  -2 -12   0   49.60    2.80
  -2 -12   0   51.79    1.80
   2  12   0   47.10    3.20
  -3 -12   0   67.59    3.30
  -3 -12   0   67.29    2.30
   3  12   0   66.39    3.80
  -4 -12   0   44.60    2.90
  -4 -12   0   41.30    1.70
  -5 -12   0   15.10    2.50
  -5 -12   0   17.60    1.30
  -6 -12   0    3.00    0.60
  -6 -12   0    2.40    1.20
  -7 -12   0   86.09    4.40
  -7 -12   0   93.49    3.50
  -7 -12   0   86.79    3.20
  -8 -12   0   28.10    2.30
  -8 -12   0   21.80    1.90
  -9 -12   0    3.70    1.10
 -15  13   0   68.29    6.70
 -15  13   0   68.59    4.00
  14 -13   0   27.70    2.90
 -14  13   0   28.80    3.00
 -14  13   0   32.50    4.50
  13 -13   0    7.40    1.20
 -13  13   0    9.70    1.80
 -13  13   0    7.40    1.90
  12 -13   0   54.19    3.20
 -12  13   0   56.39    4.30
 -12  13   0   61.19    3.00
  11 -13   0  384.36   12.00
 -11  13   0  407.86   12.80
 -11  13   0  396.46   11.80
  10 -13   0   71.99    3.50
 -10  13   0   78.69    4.40
 -10  13   0   68.89    3.10
   9 -13   0    6.10    1.00
  -9  13   0   11.00    1.60
  -9  13   0    7.90    1.50
   8 -13   0   28.90    2.40
  -8  13   0   28.90    1.70
  -8  13   0   30.70    3.10
   7 -13   0  392.66   12.20
  -7  13   0  397.26   12.70
  -7  13   0  409.96   11.50
   6 -13   0    0.90    0.70
  -6  13   0    1.30    1.20
   5 -13   0   35.70    2.40
  -5  13   0   38.70    3.20
   4 -13   0    1.50    0.90
  -4  13   0    0.00    1.00
   3 -13   0  625.94   18.40
  -3  13   0  603.84   18.70
   2 -13   0   26.20    2.30
  -2  13   0   27.90    2.80
   1 -13   0   -0.10    0.60
  -1  13   0   -0.60    0.90
   0 -13   0   65.19    3.20
   0 -13   0   66.69    2.20
   0  13   0   68.89    3.80
  -1 -13   0  813.82   23.50
  -1 -13   0  817.22   24.50
   1  13   0  867.61   24.90
  -2 -13   0   18.50    2.30
  -2 -13   0   24.80    1.20
   2  13   0   20.90    2.90
  -3 -13   0    3.90    0.90
  -4 -13   0  289.27    8.40
  -4 -13   0  280.47    9.90
  -5 -13   0  106.89    3.60
  -6 -13   0   19.20    1.60
  -7 -13   0    0.20    0.80
  -7 -13   0   -0.70    0.60
  -8 -13   0  146.19    5.30
  14 -14   0   65.39    4.00
 -14  14   0   75.29    5.50
 -14  14   0   74.29    3.80
  13 -14   0   24.40    3.00
 -13  14   0   32.10    4.50
 -13  14   0   26.40    3.40
  12 -14   0   51.39    3.40
 -12  14   0   55.09    3.00
 -12  14   0   53.09    4.50
  11 -14   0   53.99    3.20
 -11  14   0   52.59    2.80
 -11  14   0   58.29    4.30
  10 -14   0   14.10    2.50
 -10  14   0   13.50    1.80
 -10  14   0   18.80    2.00
   9 -14   0  175.88    6.30
  -9  14   0  182.38    5.60
  -9  14   0  179.28    7.00
   8 -14   0    5.50    1.00
  -8  14   0    6.20    0.60
  -8  14   0    5.90    1.40
   7 -14   0    1.40    0.90
  -7  14   0    2.10    1.20
  -7  14   0    3.10    0.40
   6 -14   0    0.80    0.70
  -6  14   0    1.40    1.10
   5 -14   0   23.10    2.20
  -5  14   0   23.60    3.00
   4 -14   0  288.47    9.50
  -4  14   0  306.47   10.10
   3 -14   0   24.50    2.40
  -3  14   0   26.10    2.90
   2 -14   0  110.09    4.60
  -2  14   0  111.59    5.00
   1 -14   0    4.50    0.90
  -1  14   0    6.10    1.30
   0 -14   0    2.00    0.50
   0 -14   0    2.10    1.40
   0  14   0    3.40    1.20
  -1 -14   0   42.20    1.70
   1  14   0   44.50    3.30
  -2 -14   0    0.30    0.50
   2  14   0    1.00    1.10
  -3 -14   0   62.99    2.40
  -4 -14   0    7.90    1.30
  -5 -14   0    0.50    0.60
  -6 -14   0   23.40    2.30
  -6 -14   0   20.20    2.40
  -7 -14   0    5.70    1.10
 -14  15   0   92.89    6.30
 -14  15   0   87.39    4.40
 -13  15   0  372.16   12.60
 -13  15   0  356.66   11.10
 -12  15   0   30.50    4.40
 -12  15   0   27.60    2.70
 -11  15   0    1.60    1.60
 -11  15   0   -0.40    0.90
 -10  15   0   48.20    2.40
 -10  15   0   50.09    4.30
  -9  15   0  207.58    8.00
  -9  15   0  213.68    6.30
  -8  15   0    6.70    1.60
  -7  15   0    8.90    1.60
  -6  15   0   86.49    4.70
  -5  15   0  408.36   13.30
  -4  15   0    5.80    1.40
  -3  15   0  155.88    6.40
  -2  15   0  469.05   15.00
  -1  15   0  111.79    5.30
   0  15   0    0.20    1.10
  -1 -15   0   -0.20    0.50
   1  15   0   -1.20    1.10
  -3 -15   0  488.15   14.20
  -4 -15   0   20.30    1.90
  -5 -15   0   70.69    3.20
 -13  16   0    4.10    2.20
 -10  16   0    3.70    1.70
  -9  16   0  131.29    6.20
  -8  16   0   43.00    3.90
  -7  16   0  258.97    9.40
  -6  16   0   -0.70    1.20
  -5  16   0    0.30    1.30
  -4  16   0    0.40    1.10
  -3  16   0   97.89    5.10
  -2  16   0  133.09    5.90
  -1  16   0  208.28    8.00
   0  16   0   15.70    3.00
   1  16   0  177.08    7.20
  -2 -16   0   17.40    1.90
 -12  17   0   43.70    5.60
 -11  17   0  110.79    6.40
 -10  17   0   -2.20    1.80
  -9  17   0   22.60    4.20
  -8  17   0    8.00    1.70
  -7  17   0   -0.20    1.40
  -6  17   0    9.30    1.60
  -5  17   0   10.50    1.60
  -4  17   0   63.69    4.30
  -3  17   0  210.08    8.20
  -2  17   0   90.49    4.90
  -1  17   0   73.09    4.50
   0  17   0   35.40    3.70
 -10  18   0  152.48    7.50
  -9  18   0    0.60    1.70
  -8  18   0    0.70    1.70
  -7  18   0    0.30    1.40
  -6  18   0   80.39    4.90
  -5  18   0   85.69    5.10
  -4  18   0  119.99    5.90
  -3  18   0    7.80    1.60
  -2  18   0    1.60    1.20
  -1  18   0  303.67   10.90
  -5  19  -1    2.70    1.60
  -6  19  -1   23.20    3.90
  -2  18  -1    3.80    1.20
  -3  18  -1  146.39    6.50
  -4  18  -1   33.40    3.50
  -5  18  -1    1.50    1.50
  -6  18  -1   -1.30    1.40
  -7  18  -1    5.90    1.70
  -8  18  -1   45.10    4.80
  -9  18  -1   12.70    2.40
 -10  18  -1   78.99    6.00
  -1  17  -1  301.47   10.70
  -2  17  -1  404.76   13.50
  -3  17  -1    2.60    1.30
  -4  17  -1   68.39    4.40
  -5  17  -1    2.20    1.30
  -6  17  -1    2.60    1.50
  -7  17  -1    8.00    1.70
  -8  17  -1   24.90    4.00
  -9  17  -1  400.46   13.60
 -10  17  -1    0.50    1.70
 -11  17  -1   35.40    4.90
  -1 -16   1  294.67    9.10
   0  16  -1    3.90    1.10
  -1  16  -1   65.19    4.00
  -2  16  -1    0.60    1.20
  -3  16  -1   33.10    3.30
  -4  16  -1   99.99    5.10
  -5  16  -1  202.78    7.80
  -6  16  -1    3.00    1.40
  -7  16  -1   26.10    3.50
  -8  16  -1    2.30    1.40
  -8  16  -1    3.70    0.60
  -9  16  -1  431.06   14.10
  -9  16  -1  425.86   12.40
 -10  16  -1   96.49    5.60
 -10  16  -1   93.99    3.60
 -11  16  -1    0.00    1.00
 -11  16  -1    0.00    1.70
 -12  16  -1   -0.40    1.20
 -12  16  -1    1.50    1.90
 -13  16  -1   70.19    4.30
 -13  16  -1   75.29    6.10
  -4 -15   1   81.39    3.00
  -3 -15   1    1.90    0.60
  -2 -15   1  311.57    9.10
   1  15  -1 1106.99   32.00
  -1 -15   1 1044.20   30.30
   0  15  -1  292.57   10.10
   0 -15   1  293.27    8.50
  -1  15  -1   34.40    3.40
   1 -15   1   45.30    1.80
  -2  15  -1  327.07   11.00
  -3  15  -1  199.88    7.50
  -4  15  -1    0.00    1.10
  -5  15  -1  103.59    5.00
  -6  15  -1   71.19    4.40
  -7  15  -1  120.49    5.70
  -7  15  -1  127.99    3.90
   7 -15   1  124.59    5.70
  -8  15  -1    1.00    1.30
  -8  15  -1    0.10    0.60
   8 -15   1   -1.40    1.00
  -9  15  -1   71.19    4.60
  -9  15  -1   74.59    2.90
   9 -15   1   68.59    4.40
 -10  15  -1    1.40    0.90
 -10  15  -1    2.70    1.70
  10 -15   1    2.70    1.30
 -11  15  -1   64.49    4.80
 -11  15  -1   63.99    3.10
  11 -15   1   54.59    4.20
 -12  15  -1   13.60    2.20
 -12  15  -1   14.60    2.60
  12 -15   1   10.70    1.70
 -13  15  -1    6.80    1.30
 -13  15  -1    5.60    2.10
  13 -15   1    3.80    1.70
  -7 -14   1    3.20    0.80
  -6 -14   1   81.99    3.10
  -5 -14   1   33.00    1.80
  -4 -14   1   31.20    1.70
  -3 -14   1    4.30    0.60
   1  14  -1  475.95   14.80
  -1 -14   1  455.35   13.30
   0  14  -1   25.70    2.90
   0 -14   1   23.60    1.40
   0 -14   1   26.00    2.30
  -1  14  -1  255.37    8.90
   1 -14   1  259.87    7.40
   1 -14   1  245.78    8.40
  -2  14  -1    0.10    1.00
   2 -14   1    0.30    0.80
  -3  14  -1   79.59    4.20
   3 -14   1   79.39    3.70
  -4  14  -1  115.89    5.10
   4 -14   1  115.89    4.60
  -5  14  -1   49.20    3.50
   5 -14   1   50.99    1.90
   5 -14   1   48.40    2.90
  -6  14  -1  263.57    9.00
  -6  14  -1  270.77    7.50
   6 -14   1  250.87    8.40
   6 -14   1  250.57    7.60
  -7  14  -1  144.09    4.30
  -7  14  -1  142.39    5.90
   7 -14   1  132.09    5.20
  -8  14  -1    5.70    1.40
  -8  14  -1    5.50    0.70
   8 -14   1    5.60    1.10
  -9  14  -1  265.57    8.00
  -9  14  -1  273.87    9.40
   9 -14   1  258.37    8.70
 -10  14  -1   27.40    3.70
 -10  14  -1   26.10    2.20
  10 -14   1   23.70    2.70
 -11  14  -1  199.78    7.60
 -11  14  -1  197.78    6.30
  11 -14   1  182.28    6.70
 -12  14  -1    3.10    1.00
 -12  14  -1    4.70    1.70
  12 -14   1    2.40    1.10
 -13  14  -1   -2.70    1.70
 -13  14  -1   -1.10    1.10
  13 -14   1   -0.60    1.20
 -14  14  -1  112.29    4.70
 -14  14  -1  100.79    6.20
  -7 -13   1  268.97    8.10
  -6 -13   1    0.30    0.50
  -5 -13   1   76.79    2.80
  -4 -13   1  165.08    6.20
  -4 -13   1  171.98    5.20
  -3 -13   1  437.96   13.80
  -3 -13   1  454.05   12.80
   2  13  -1  122.59    5.30
  -2 -13   1  127.49    3.80
  -2 -13   1  119.79    4.90
   1  13  -1   51.89    3.40
  -1 -13   1   55.39    3.00
  -1 -13   1   52.59    1.90
   0  13  -1   41.30    3.10
   0 -13   1   35.20    2.60
   0 -13   1   41.30    1.60
  -1  13  -1  175.78    5.20
  -1  13  -1  174.18    6.60
   1 -13   1  179.78    6.30
   1 -13   1  176.08    5.20
  -2  13  -1  144.79    4.30
  -2  13  -1  142.19    5.70
   2 -13   1  146.19    4.40
   2 -13   1  145.99    5.40
  -3  13  -1   61.39    3.60
  -3  13  -1   69.39    2.00
   3 -13   1   62.29    3.10
   3 -13   1   60.79    2.20
  -4  13  -1  242.68    8.30
  -4  13  -1  243.08    6.90
   4 -13   1  233.88    7.00
   4 -13   1  239.88    7.90
  -5  13  -1  383.36   10.80
  -5  13  -1  376.26   12.20
   5 -13   1  378.06   11.70
   5 -13   1  371.16   10.80
  -6  13  -1  121.09    3.60
  -6  13  -1   96.19    5.40
   6 -13   1  116.49    3.60
   6 -13   1  117.59    4.50
  -7  13  -1   65.49    5.80
  -7  13  -1   85.79    2.90
   7 -13   1   85.09    3.60
  -8  13  -1    7.50    0.80
   8 -13   1    8.20    1.20
  -9  13  -1  665.43   18.80
   9 -13   1  642.34   19.30
 -10  13  -1  205.58    9.70
 -10  13  -1  217.58    6.70
  10 -13   1  208.28    7.00
 -11  13  -1    3.00    1.00
  11 -13   1    3.00    1.00
 -12  13  -1   27.60    2.70
 -12  13  -1   28.50    4.60
  12 -13   1   28.40    2.70
 -13  13  -1   25.70    4.10
 -13  13  -1   29.20    2.70
  13 -13   1   26.80    2.70
 -14  13  -1  129.99    5.10
 -14  13  -1  119.89    6.20
 -15  13  -1   18.20    3.30
  -8 -12   1    0.90    0.60
  -7 -12   1    3.40    0.60
  -7 -12   1    3.60    1.30
  -6 -12   1  223.78    7.80
  -6 -12   1  226.88    6.80
  -5 -12   1  228.28    6.70
  -5 -12   1  222.88    7.70
  -4 -12   1   90.59    4.10
  -4 -12   1   92.79    3.00
  -3 -12   1   13.10    1.00
  -3 -12   1   15.20    2.10
   2  12  -1   14.40    2.40
  -2 -12   1   17.30    2.10
  -2 -12   1   18.10    1.10
   1  12  -1  160.78    6.80
  -1 -12   1  187.28    6.20
  -1 -12   1  176.58    5.20
   0  12  -1    0.40    1.40
   0 -12   1    0.60    0.70
  -1  12  -1  220.28    7.60
  -1  12  -1  216.08    6.30
   1 -12   1  221.48    7.30
   1 -12   1  220.28    6.40
  -2  12  -1  396.26   11.10
  -2  12  -1  385.56   12.30
   2 -12   1  385.86   12.00
   2 -12   1  390.26   11.10
  -3  12  -1  356.16   10.00
  -3  12  -1  354.66   11.30
   3 -12   1  356.66   10.10
   3 -12   1  346.77   10.90
  -4  12  -1  407.06   12.60
  -4  12  -1  403.26   11.40
   4 -12   1  390.86   11.50
   4 -12   1  403.96   12.30
  -5  12  -1  209.38    6.00
  -5  12  -1  209.98    7.20
   5 -12   1  202.78    6.10
   5 -12   1  200.98    6.80
  -6  12  -1  156.28    5.90
  -6  12  -1  159.78    4.80
   6 -12   1  155.88    4.80
   6 -12   1  157.68    5.50
  -7  12  -1   21.80    1.50
  -7  12  -1   24.00    2.70
   7 -12   1   24.40    1.40
   7 -12   1   20.70    2.00
  -8  12  -1   20.20    1.70
  -8  12  -1   19.40    2.80
   8 -12   1   21.00    2.10
  -9  12  -1   78.99    3.10
  -9  12  -1   79.19    4.10
   9 -12   1   77.59    3.40
 -10  12  -1   43.70    3.40
 -10  12  -1   42.30    2.40
  10 -12   1   40.30    2.50
 -11  12  -1   55.29    2.80
 -11  12  -1   56.99    3.80
  11 -12   1   53.69    2.90
 -12  12  -1    7.00    1.50
 -12  12  -1    7.10    1.30
  12 -12   1    5.90    1.00
 -13  12  -1   93.79    4.00
 -13  12  -1   89.39    4.90
  13 -12   1   82.89    3.70
 -14  12  -1  137.69    6.20
 -14  12  -1  143.99    5.50
  14 -12   1  142.59    5.40
 -15  12  -1    0.60    1.20
 -10 -11   1  181.38    6.10
 -10 -11   1  175.08    7.00
  -9 -11   1   51.09    3.90
  -8 -11   1   22.80    1.60
  -8 -11   1   24.40    3.00
  -7 -11   1   44.70    3.20
  -7 -11   1   47.20    2.00
  -6 -11   1  102.09    4.40
  -6 -11   1  104.99    3.40
  -5 -11   1  201.48    6.00
  -5 -11   1  201.18    6.90
  -4 -11   1  303.67    9.60
  -4 -11   1  300.87    8.80
  -3 -11   1    0.80    0.60
  -3 -11   1    0.80    0.70
   2  11  -1   62.39    3.40
  -2 -11   1   64.29    3.00
  -2 -11   1   66.19    2.10
   1  11  -1  212.88    7.30
  -1 -11   1  210.28    6.10
  -1 -11   1  209.58    7.00
   0  11  -1   21.60    2.30
   0  11  -1   21.20    1.00
   0 -11   1   21.80    1.90
   0 -11   1   20.20    1.00
  -1  11  -1  230.68    6.40
  -1  11  -1  220.68    7.50
   1 -11   1  220.78    7.30
   1 -11   1  221.48    6.50
  -2  11  -1  417.26   12.80
  -2  11  -1  404.16   11.70
   2 -11   1  418.46   12.60
   2 -11   1  415.16   11.80
  -3  11  -1  455.25   13.20
  -3  11  -1  481.45   14.30
   3 -11   1  461.75   13.30
   3 -11   1  468.65   14.00
  -4  11  -1   25.10    2.30
  -4  11  -1   24.30    1.10
   4 -11   1   26.10    1.90
   4 -11   1   23.00    1.20
  -5  11  -1  142.09    4.30
  -5  11  -1  138.39    5.30
   5 -11   1  142.69    4.90
   5 -11   1  143.29    4.30
  -6  11  -1  243.38    8.10
  -6  11  -1  244.28    7.20
   6 -11   1  243.48    7.10
   6 -11   1  243.78    7.70
  -7  11  -1  644.24   18.70
  -7  11  -1  622.94   17.90
   7 -11   1  621.14   18.30
   7 -11   1  619.34   17.90
  -8  11  -1   92.39    3.40
  -8  11  -1   95.79    4.30
   8 -11   1  104.09    3.80
  -9  11  -1    4.40    1.20
  -9  11  -1    3.70    0.80
   9 -11   1    3.80    0.80
 -10  11  -1  159.98    6.00
 -10  11  -1  154.18    5.20
  10 -11   1  154.98    5.30
 -11  11  -1  264.37    8.50
 -11  11  -1  279.67    9.10
  11 -11   1  274.57    8.40
 -12  11  -1   -0.40    1.20
  12 -11   1   -0.50    0.70
 -13  11  -1   62.79    3.30
 -13  11  -1   54.49    4.00
  13 -11   1   59.29    2.80
 -14  11  -1  171.38    6.10
 -14  11  -1  162.88    6.50
  14 -11   1  171.88    5.60
 -15  11  -1  214.18    7.40
 -16  11  -1    1.80    1.30
 -11 -10   1  183.68    6.30
 -10 -10   1    5.50    1.50
  -9 -10   1   55.39    3.60
  -9 -10   1   53.89    2.40
  -8 -10   1  229.38    6.90
  -8 -10   1  218.28    7.60
  -7 -10   1   30.90    2.60
  -7 -10   1   30.20    1.60
  -6 -10   1  154.48    4.70
  -6 -10   1  149.09    5.50
  -5 -10   1   22.00    2.10
  -5 -10   1   21.90    1.20
  -4 -10   1  177.28    5.30
  -4 -10   1  174.38    6.00
  -3 -10   1  212.38    6.20
  -3 -10   1  209.68    7.00
   2  10  -1    0.90    0.80
  -2 -10   1    0.10    0.30
  -2 -10   1    0.10    0.60
   1  10  -1    0.40    0.70
  -1 -10   1    0.60    0.30
  -1 -10   1   -0.10    0.60
   0  10  -1  441.06   13.10
   0  10  -1  467.65   14.00
   0 -10   1  488.65   13.90
   0 -10   1  447.76   13.10
  -1  10  -1   -0.20    0.70
  -1  10  -1    0.80    0.20
   1 -10   1    0.60    0.30
   1 -10   1    0.60    0.60
  -2  10  -1   51.69    1.60
  -2  10  -1   48.40    2.70
   2 -10   1   50.19    1.70
   2 -10   1   48.90    2.40
  -3  10  -1   86.79    2.60
  -3  10  -1   82.49    3.60
   3 -10   1   81.19    2.60
   3 -10   1   85.79    3.30
  -4  10  -1  101.69    3.10
  -4  10  -1  105.19    4.10
   4 -10   1  106.09    3.80
   4 -10   1  100.19    3.20
  -5  10  -1  151.38    5.40
  -5  10  -1  153.08    4.60
   5 -10   1  155.78    5.20
   5 -10   1  151.98    4.60
  -6  10  -1   75.99    2.60
  -6  10  -1   74.49    3.40
   6 -10   1   73.19    3.00
   6 -10   1   73.19    2.50
  -7  10  -1   27.70    1.60
  -7  10  -1   27.60    2.30
   7 -10   1   29.20    1.40
   7 -10   1   26.90    1.80
  -8  10  -1  168.98    5.50
  -8  10  -1  177.38    6.10
   8 -10   1  179.58    5.70
  -9  10  -1  183.48    5.90
  -9  10  -1  190.08    6.50
   9 -10   1  184.08    6.00
 -10  10  -1   30.60    2.10
 -10  10  -1   32.50    2.80
  10 -10   1   30.60    2.00
 -11  10  -1   16.70    2.10
 -11  10  -1   10.50    1.40
  11 -10   1   14.10    1.80
 -12  10  -1   73.49    3.90
 -12  10  -1   74.99    3.90
  12 -10   1   78.59    3.00
 -13  10  -1  127.39    4.80
 -13  10  -1  120.49    5.10
  13 -10   1  125.19    4.30
 -14  10  -1  474.85   14.40
 -14  10  -1  473.25   14.30
 -15  10  -1   34.80    3.20
 -16  10  -1   17.80    3.20
 -12  -9   1  109.49    4.50
 -11  -9   1   45.40    2.80
 -11  -9   1   50.89    3.80
 -10  -9   1   93.59    4.50
  -9  -9   1    0.20    0.50
  -9  -9   1    0.80    1.00
  -8  -9   1  178.18    6.20
  -8  -9   1  173.28    5.50
  -7  -9   1   10.30    1.90
  -7  -9   1    7.30    1.10
  -6  -9   1  207.58    6.20
  -6  -9   1  202.28    6.80
  -5  -9   1   60.19    2.00
  -5  -9   1   51.29    2.70
  -4  -9   1  523.65   14.50
  -4  -9   1  439.56   13.90
  -3  -9   1  302.67    9.40
  -3  -9   1  304.47    8.70
   2   9  -1   -0.80    0.70
  -2  -9   1    0.10    0.50
  -2  -9   1    0.30    0.20
   1   9  -1  823.02   23.80
   1   9  -1  810.32   23.00
  -1  -9   1  829.22   23.60
  -1  -9   1  796.82   22.90
   0   9  -1  509.75   15.20
   0   9  -1  511.55   14.30
   0  -9   1  494.95   14.30
   0  -9   1  512.95   15.00
  -1   9  -1  110.19    3.20
  -1   9  -1  106.39    4.10
   1  -9   1  105.99    3.20
   1  -9   1  106.89    3.90
  -2   9  -1   54.49    2.70
  -2   9  -1   54.09    1.70
   2  -9   1   55.29    2.50
   2  -9   1   56.09    2.00
  -3   9  -1  539.75   15.20
  -3   9  -1  541.75   15.90
   3  -9   1  546.55   15.80
   3  -9   1  520.45   15.20
  -4   9  -1  495.35   14.30
  -4   9  -1  478.35   13.60
   4  -9   1  466.65   14.10
   4  -9   1  470.65   13.60
  -5   9  -1  267.87    7.70
  -5   9  -1  259.37    8.30
   5  -9   1  264.87    7.60
   5  -9   1  259.07    8.10
  -6   9  -1  519.75   15.20
  -6   9  -1  500.55   14.70
   6  -9   1  513.95   15.00
   6  -9   1  511.65   14.60
  -7   9  -1    5.10    0.60
  -7   9  -1    4.20    0.80
   7  -9   1    3.70    0.60
  -8   9  -1  143.59    5.00
  -8   9  -1  139.29    4.60
   8  -9   1  142.09    4.70
  -9   9  -1  157.88    5.40
  -9   9  -1  155.48    5.00
   9  -9   1  144.79    5.00
 -10   9  -1   14.70    2.40
 -10   9  -1   16.20    1.80
 -11   9  -1  141.89    5.40
 -11   9  -1  142.99    5.10
  11  -9   1  153.78    5.70
 -12   9  -1  721.73   19.90
 -12   9  -1  657.93   19.80
  12  -9   1  656.73   19.50
 -13   9  -1  177.28    6.10
 -13   9  -1  186.88    6.20
  13  -9   1  172.38    5.60
 -14   9  -1   18.60    2.60
 -15   9  -1    8.30    1.30
 -16   9  -1   46.60    3.50
 -13  -8   1   71.69    3.70
 -12  -8   1    6.80    1.10
 -11  -8   1   80.59    4.20
 -10  -8   1  313.37    9.70
 -10  -8   1  294.07    9.20
  -9  -8   1    1.10    0.50
  -9  -8   1    2.30    0.90
  -8  -8   1  132.39    5.00
  -8  -8   1  137.59    4.40
  -7  -8   1  268.97    7.90
  -7  -8   1  261.57    8.50
  -6  -8   1  212.98    6.50
  -6  -8   1  222.28    7.10
  -5  -8   1  403.36   11.50
  -5  -8   1  397.96   12.10
  -4  -8   1    2.60    0.40
  -4  -8   1    2.00    0.60
  -3  -8   1   16.20    0.80
  -3  -8   1   16.40    1.50
   2   8  -1   99.59    3.90
  -2  -8   1  102.79    3.10
  -2  -8   1  104.99    3.70
   1   8  -1  220.58    6.60
   1   8  -1  233.28    7.40
  -1  -8   1  233.28    7.20
  -1  -8   1  229.38    6.60
   0   8  -1   35.40    2.10
   0   8  -1   36.00    1.20
   0  -8   1   35.20    1.20
   0  -8   1   31.60    1.90
  -1   8  -1    1.80    0.70
  -1   8  -1    2.80    0.40
   1  -8   1    2.50    0.30
  -2   8  -1  134.79    3.90
  -2   8  -1  134.69    4.70
   2  -8   1  129.39    4.50
   2  -8   1  138.59    4.00
  -3   8  -1  571.24   16.30
  -3   8  -1  547.25   15.60
   3  -8   1  535.45   15.70
   3  -8   1  557.34   16.10
  -4   8  -1   94.29    3.60
  -4   8  -1   98.69    3.00
   4  -8   1   96.39    3.00
   4  -8   1  100.59    3.50
  -5   8  -1    2.30    0.70
  -5   8  -1    3.10    0.50
   5  -8   1    2.30    0.40
   5  -8   1    2.00    0.50
  -6   8  -1   40.20    1.80
  -6   8  -1   43.90    2.30
   6  -8   1   40.50    1.60
   6  -8   1   42.10    2.00
  -7   8  -1  209.08    6.50
  -7   8  -1  220.88    6.90
   7  -8   1  220.78    6.70
  -8   8  -1   13.70    1.80
  -8   8  -1   14.90    1.40
   8  -8   1   13.10    1.30
  -9   8  -1    6.10    0.80
  -9   8  -1    6.60    0.90
   9  -8   1    8.00    1.30
 -10   8  -1  101.09    3.90
 -10   8  -1   98.19    3.70
  10  -8   1  102.69    3.40
 -11   8  -1  111.69    4.20
 -11   8  -1  106.39    4.00
  11  -8   1  102.79    3.50
 -12   8  -1   -0.60    0.90
 -12   8  -1    2.20    0.80
  12  -8   1    0.40    0.60
 -13   8  -1   16.00    2.30
 -14   8  -1   19.60    2.60
 -15   8  -1    0.40    1.00
 -16   8  -1   52.89    3.50
 -13  -7   1   12.80    2.30
 -12  -7   1    3.90    1.30
 -12  -7   1    3.00    0.90
 -11  -7   1  455.95   13.80
 -10  -7   1    5.50    1.00
 -10  -7   1    4.80    0.70
  -9  -7   1    3.40    0.60
  -9  -7   1    3.60    0.90
  -8  -7   1  327.27   10.00
  -8  -7   1  320.77    9.60
  -7  -7   1  213.38    6.90
  -7  -7   1  216.88    6.50
  -6  -7   1   15.80    1.00
  -6  -7   1   14.90    1.60
  -5  -7   1  488.15   13.90
  -5  -7   1  484.75   14.40
  -4  -7   1  166.88    6.00
  -4  -7   1  185.48    5.20
  -3  -7   1   57.49    2.50
  -3  -7   1   56.29    1.90
   2   7  -1    1.20    0.30
   2   7  -1    0.80    0.60
  -2  -7   1    1.50    0.50
   1   7  -1  507.45   14.90
   1   7  -1  512.55   14.40
  -1  -7   1  507.25   14.30
  -1  -7   1  496.15   14.80
   0   7  -1  145.49    4.20
   0   7  -1  143.79    4.90
   0  -7   1  148.29    4.50
  -1   7  -1  358.36   10.60
  -1   7  -1  340.07   10.00
   1  -7   1  351.56   10.00
   1  -7   1  362.36   10.50
  -2   7  -1  319.27    9.20
  -2   7  -1  327.67    9.80
   2  -7   1  324.47    9.20
   2  -7   1  322.47    9.70
  -3   7  -1  443.76   13.30
  -3   7  -1  449.86   12.80
   3  -7   1  459.25   13.20
  -4   7  -1   16.90    1.10
  -4   7  -1   13.10    1.50
   4  -7   1   15.70    1.30
   4  -7   1   13.80    0.90
  -5   7  -1  878.81   25.10
  -5   7  -1  871.11   24.80
   5  -7   1  881.21   25.00
   5  -7   1  874.81   24.80
  -6   7  -1 2010.60   59.69
  -6   7  -1 2139.39   60.19
   6  -7   1 2157.58   60.29
   6  -7   1 2163.58   59.99
  -7   7  -1 1122.39   32.40
  -7   7  -1 1162.98   32.60
   7  -7   1 1150.48   32.50
  -8   7  -1  187.18    6.00
  -8   7  -1  187.98    5.90
   8  -7   1  190.68    5.80
  -9   7  -1  200.38    6.30
  -9   7  -1  194.28    6.20
   9  -7   1  197.18    6.00
 -10   7  -1  490.75   14.10
 -10   7  -1  471.25   14.10
  10  -7   1  477.05   13.80
 -11   7  -1  240.08    7.70
 -11   7  -1  247.48    7.60
 -12   7  -1  113.29    4.30
 -13   7  -1  182.48    6.20
 -14   7  -1  355.36   11.00
 -15   7  -1  202.28    7.00
 -16   7  -1   15.90    2.70
 -14  -6   1   35.80    2.80
 -13  -6   1  152.38    5.50
 -12  -6   1    3.50    1.10
 -12  -6   1    2.00    0.80
 -11  -6   1    2.60    1.00
 -10  -6   1    0.50    0.80
 -10  -6   1    0.60    0.50
  -9  -6   1   75.99    3.30
  -9  -6   1   76.39    2.80
  -8  -6   1  394.96   11.90
  -8  -6   1  400.66   11.60
  -7  -6   1   32.80    1.50
  -6  -6   1   36.10    2.00
  -6  -6   1   37.20    1.50
  -5  -6   1    3.10    0.60
  -5  -6   1    4.80    0.70
  -4  -6   1  287.87    8.40
  -4  -6   1  295.47    8.90
  -3  -6   1  370.46   10.60
  -3  -6   1  374.66   11.10
   2   6  -1  123.69    3.60
   2   6  -1  118.69    4.20
  -2  -6   1  123.19    4.10
  -2  -6   1  119.89    3.60
   1   6  -1 1785.02   51.89
   1   6  -1 1907.71   51.99
  -1  -6   1 1740.23   51.79
  -1  -6   1 1904.81   51.89
   0   6  -1  538.75   14.80
   0   6  -1  508.15   15.10
   0  -6   1  521.05   14.60
   0  -6   1  495.45   15.00
  -1   6  -1  200.88    5.90
  -1   6  -1  206.58    6.40
   1  -6   1  209.88    6.40
   1  -6   1  208.38    6.00
  -2   6  -1  583.54   16.60
  -2   6  -1  569.54   16.20
   2  -6   1  580.54   16.20
   2  -6   1  564.54   16.60
  -3   6  -1   55.59    1.80
  -3   6  -1   52.79    2.20
   3  -6   1   55.69    1.90
   3  -6   1   53.49    2.10
  -4   6  -1 1185.48   32.60
  -4   6  -1 1081.89   32.40
   4  -6   1 1182.78   32.30
   4  -6   1 1118.69   32.40
  -5   6  -1 1585.74   44.30
  -5   6  -1 1489.05   44.00
   5  -6   1 1572.64   44.40
   5  -6   1 1574.84   44.10
  -6   6  -1    0.90    0.50
  -6   6  -1    0.60    0.40
   6  -6   1    1.00    0.40
   6  -6   1    1.10    0.40
  -7   6  -1   42.80    2.00
  -7   6  -1   43.70    1.90
   7  -6   1   45.20    1.80
  -8   6  -1    7.20    1.30
  -8   6  -1    9.10    1.20
   8  -6   1    9.00    1.00
  -9   6  -1   24.00    1.70
  -9   6  -1   25.10    1.70
   9  -6   1   23.20    1.20
 -10   6  -1    3.90    0.70
 -11   6  -1  262.17    8.20
 -12   6  -1  141.49    5.00
 -13   6  -1  304.67    9.60
 -14   6  -1  225.38    7.50
 -15   6  -1    0.70    1.00
 -16   6  -1   24.00    2.80
 -14  -5   1   30.60    2.60
 -13  -5   1    2.40    0.90
 -12  -5   1   75.39    3.30
 -11  -5   1    0.10    0.50
 -11  -5   1    0.00    1.50
 -10  -5   1  140.79    4.80
 -10  -5   1  136.89    4.50
  -9  -5   1  175.58    5.50
  -9  -5   1  174.48    5.70
  -8  -5   1  294.37    8.70
  -8  -5   1  292.57    8.90
  -7  -5   1    0.10    0.30
  -7  -5   1   -0.10    0.50
  -6  -5   1  498.25   14.40
  -6  -5   1  510.65   14.80
  -5  -5   1   93.39    3.30
  -5  -5   1   91.49    2.90
  -4  -5   1  217.58    6.50
  -4  -5   1  230.08    6.90
  -3  -5   1 2061.99   57.49
  -3  -5   1 1976.70   58.09
   2   5  -1   63.69    2.50
   2   5  -1   62.49    2.00
  -2  -5   1   61.89    1.90
  -2  -5   1   66.49    2.40
   1   5  -1 3185.78   90.39
   1   5  -1 3319.27   91.79
  -1  -5   1 3168.38   91.89
  -1  -5   1 3149.49   90.19
   0   5  -1 1228.58   36.30
   0   5  -1 1332.27   36.30
   0  -5   1 1234.18   36.50
   0  -5   1 1328.37   36.20
  -1   5  -1  462.05   13.00
  -1   5  -1  458.75   13.30
   1  -5   1  451.05   13.20
   1  -5   1  457.15   12.90
  -2   5  -1  752.62   20.50
  -2   5  -1  690.83   20.60
   2  -5   1  744.63   20.60
   2  -5   1  694.13   20.50
  -3   5  -1   76.59    2.70
  -3   5  -1   76.39    2.40
   3  -5   1   78.29    2.60
   3  -5   1   84.09    2.50
  -4   5  -1  353.86   10.30
  -4   5  -1  361.16   10.50
   4  -5   1  364.46   10.50
   4  -5   1  363.36   10.30
  -5   5  -1  361.76   10.50
  -5   5  -1  352.86   10.40
   5  -5   1  361.76   10.40
   5  -5   1  365.06   10.40
  -6   5  -1  731.23   21.30
  -6   5  -1  760.52   21.40
   6  -5   1  758.72   21.30
  -7   5  -1  342.17   10.30
  -7   5  -1  358.46   10.30
   7  -5   1  361.06   10.20
  -8   5  -1  325.47    9.60
   8  -5   1  326.17    9.40
  -9   5  -1    1.40    0.60
 -10   5  -1   77.99    3.10
 -11   5  -1   46.50    2.50
 -12   5  -1  130.19    4.70
 -13   5  -1  111.69    4.40
 -14   5  -1  167.88    6.00
 -15   5  -1   32.10    2.80
 -16   5  -1  173.68    6.40
 -15  -4   1   14.00    2.50
 -14  -4   1   25.80    2.40
 -13  -4   1    0.70    0.80
 -12  -4   1  105.69    4.10
 -11  -4   1  219.68    7.00
 -11  -4   1  221.28    6.90
 -10  -4   1  654.03   19.00
 -10  -4   1  661.03   19.00
  -9  -4   1  578.64   16.80
  -9  -4   1  575.64   16.70
  -8  -4   1    9.90    1.00
  -8  -4   1   10.10    1.40
  -7  -4   1    0.60    0.30
  -7  -4   1    0.80    0.50
  -6  -4   1  203.18    6.10
  -6  -4   1  188.18    6.00
  -5  -4   1   22.40    1.50
  -5  -4   1   23.50    1.10
  -4  -4   1  221.78    6.40
  -4  -4   1  220.08    6.70
  -3  -4   1   70.59    2.50
  -3  -4   1   70.39    2.20
   2   4  -1  164.28    4.80
  -2  -4   1  163.18    4.80
  -2  -4   1  164.28    5.10
   1   4  -1  319.07    9.20
   1   4  -1  329.77    9.40
  -1  -4   1  317.27    9.40
  -1  -4   1  311.77    9.10
   0   4  -1  462.45   13.70
   0  -4   1  492.25   13.50
   0  -4   1  470.25   13.70
  -1   4  -1  557.54   16.10
   1  -4   1  538.25   16.00
   1  -4   1  588.94   16.00
  -2   4  -1  734.53   20.20
  -2   4  -1  685.03   20.10
   2  -4   1  729.83   20.30
   2  -4   1  684.03   20.50
  -3   4  -1  199.38    5.90
  -3   4  -1  200.18    6.10
   3  -4   1  213.68    6.00
   3  -4   1  204.78    6.20
  -4   4  -1   90.39    2.80
  -4   4  -1   87.19    2.90
   4  -4   1   89.99    2.80
   4  -4   1   91.19    2.80
  -5   4  -1   47.60    1.80
  -5   4  -1   47.20    1.80
   5  -4   1   48.20    1.70
   5  -4   1   48.30    1.70
  -6   4  -1  273.07    8.00
  -6   4  -1  266.47    8.10
   6  -4   1  282.57    7.90
  -7   4  -1   16.50    1.30
  -8   4  -1   75.39    2.80
  -9   4  -1   99.19    3.50
 -10   4  -1  700.53   20.30
 -11   4  -1  159.18    6.60
 -12   4  -1   40.90    2.50
 -13   4  -1    1.50    0.90
 -14   4  -1  169.98    6.00
 -15   4  -1   85.39    4.00
 -16   4  -1   97.59    4.40
 -15  -3   1    1.00    0.90
 -14  -3   1  160.48    5.80
 -13  -3   1    6.80    1.00
 -12  -3   1  385.06   11.70
 -11  -3   1   22.90    1.60
 -10  -3   1   71.49    2.60
 -10  -3   1   66.99    2.80
  -9  -3   1    0.00    0.60
  -9  -3   1    0.80    0.40
  -8  -3   1  512.45   15.10
  -8  -3   1  537.35   15.20
  -7  -3   1   63.89    2.20
  -7  -3   1   61.39    2.40
  -6  -3   1  505.75   14.50
  -6  -3   1  499.35   14.40
  -5  -3   1   -0.30    0.20
  -5  -3   1   -0.30    0.40
  -4  -3   1  219.48    6.50
  -4  -3   1  231.58    6.70
  -3  -3   1   40.80    1.30
  -3  -3   1   38.60    1.60
   2   3  -1  840.02   23.80
  -2  -3   1  847.22   23.70
  -2  -3   1  791.42   23.90
   1   3  -1  422.46   11.70
   1   3  -1  391.26   11.70
  -1  -3   1  416.76   11.80
  -1  -3   1  397.76   11.70
   0   3  -1  407.46   11.50
   0   3  -1  391.76   11.50
   0  -3   1  418.86   11.50
   0  -3   1  385.66   11.50
  -1   3  -1  290.17    8.70
  -1   3  -1  316.87    8.70
   1  -3   1  291.27    8.70
   1  -3   1  306.77    8.60
  -2   3  -1  390.16   10.90
  -2   3  -1  377.86   11.00
   2  -3   1  368.26   11.00
   2  -3   1  407.36   11.00
  -3   3  -1    8.30    0.70
  -3   3  -1    7.30    0.70
   3  -3   1    7.70    0.70
   3  -3   1    6.10    1.00
  -4   3  -1  249.88    7.70
  -4   3  -1  262.47    7.60
   4  -3   1  272.57    7.60
   4  -3   1  270.47    7.60
  -5   3  -1   55.39    2.00
   5  -3   1   54.69    1.80
  -6   3  -1 1280.87   36.60
  -7   3  -1  425.96   12.40
  -8   3  -1    2.70    0.60
  -9   3  -1  362.26   10.80
 -10   3  -1  302.47    9.20
 -11   3  -1   30.60    2.30
 -12   3  -1  206.98    6.80
 -13   3  -1  232.68    7.60
 -14   3  -1  147.49    5.50
 -15   3  -1  175.98    6.40
 -16   3  -1   20.30    2.70
 -16  -2   1  236.18    9.30
 -15  -2   1   24.30    2.50
 -14  -2   1   24.10    2.30
 -13  -2   1   23.40    2.10
 -12  -2   1  164.88    5.60
 -12  -2   1  161.08    5.30
 -11  -2   1  244.78    7.50
 -10  -2   1    0.70    0.40
  -9  -2   1  658.03   18.60
  -9  -2   1  636.64   18.60
  -8  -2   1  187.08    5.70
  -7  -2   1  288.57    8.50
  -5  -2   1  424.56   12.10
  -4  -2   1 1246.78   35.70
  -3  -2   1   99.19    2.90
   2   2  -1  444.16   13.00
  -2  -2   1  447.96   12.90
   1   2  -1    3.60    0.20
  -1  -2   1    3.80    0.50
   0  -2   1 4825.72  136.09
  -1   2  -1 1216.18   36.10
  -1   2  -1 1329.17   36.10
   1  -2   1 1303.67   36.10
   1  -2   1 1232.08   36.10
  -2   2  -1 1048.10   30.90
  -2   2  -1 1096.89   31.20
   2  -2   1 1084.19   31.00
   2  -2   1 1146.79   31.20
  -3   2  -1  546.75   15.20
   3  -2   1  510.85   15.10
  -4   2  -1   94.69    3.00
   4  -2   1   96.39    2.90
  -5   2  -1  630.14   17.90
  -6   2  -1   85.29    2.90
  -7   2  -1  674.83   19.30
  -8   2  -1   76.99    2.80
  -9   2  -1   29.80    1.80
 -10   2  -1    4.60    0.70
 -11   2  -1   21.90    2.00
 -12   2  -1  181.28    6.10
 -13   2  -1   86.69    3.70
 -14   2  -1   72.29    3.50
 -15   2  -1   23.00    2.70
 -16   2  -1   51.19    3.40
 -16  -1   1    7.70    1.20
 -15  -1   1   19.80    2.40
 -14  -1   1   23.00    2.30
 -13  -1   1  103.79    4.10
 -12  -1   1   61.99    2.60
 -12  -1   1   59.19    2.80
  -3  -1   1  457.65   13.60
  -2  -1   1  145.89    4.20
   1  -1   1 1157.48   33.00
  -2   1  -1 2449.35   69.29
   2  -1   1 2442.16   69.19
  -3   1  -1   49.90    1.70
   3  -1   1   51.49    1.70
  -4   1  -1  995.30   28.60
  -5   1  -1    0.60    0.30
  -7   1  -1  453.85   13.20
  -8   1  -1  278.87    8.40
  -9   1  -1  301.07    9.10
 -10   1  -1  708.63   20.50
 -11   1  -1    0.60    0.70
 -12   1  -1  235.18    7.60
 -13   1  -1   39.10    2.60
 -14   1  -1   29.80    2.50
 -15   1  -1  204.88    7.10
 -16   0   1    3.10    1.00
 -15   0   1  240.28    7.90
 -14   0   1  328.97   10.30
 -13   0   1   47.40    2.70
 -12   0   1  366.06   11.10
 -11   0   1  206.68    7.70
   1   0   1 1426.46   40.50
  -2   0  -1  427.76   12.00
   2   0   1  401.06   11.70
  -3   0  -1 1068.49   30.70
  -4   0  -1   45.30    1.60
  -5   0  -1  558.04   15.90
  -6   0  -1 1230.88   35.00
  -7   0  -1   10.00    1.10
  -9   0  -1  447.06   13.20
 -10   0  -1  312.07    9.50
 -11   0  -1   22.10    2.00
 -12   0  -1   -0.70    0.70
 -13   0  -1  162.18    5.80
 -14   0  -1  246.98    8.20
 -15   0  -1    1.10    0.90
 -16   1   1   47.50    3.10
 -15   1   1   32.80    2.50
 -14   1   1   49.20    2.80
 -13   1   1   70.69    3.20
 -12   1   1  684.13   19.90
 -11   1   1   10.10    1.50
 -10   1   1    2.30    0.60
  -6   1   1   56.99    1.80
  -5   1   1   68.29    2.10
   0  -1  -1  424.36   12.50
  -1  -1  -1 1300.17   36.20
  -1  -1  -1 1262.37   36.20
   1   1   1 1256.97   36.10
  -2  -1  -1   59.69    1.90
  -2  -1  -1   60.59    1.90
   2   1   1   59.29    1.90
  -3  -1  -1  192.58    5.70
  -4  -1  -1   43.90    1.60
  -5  -1  -1  220.08    6.50
  -6  -1  -1  237.18    7.10
  -7  -1  -1  170.08    5.30
  -8  -1  -1  114.79    3.90
  -9  -1  -1   85.09    3.20
 -10  -1  -1   44.20    3.00
 -11  -1  -1    0.30    0.70
 -12  -1  -1    7.90    1.00
 -13  -1  -1  163.28    5.80
 -14  -1  -1   32.00    2.70
 -15  -1  -1    7.30    1.20
 -17   2   1   34.40    3.10
 -16   2   1   86.29    4.10
 -15   2   1    0.10    0.90
 -14   2   1    1.30    0.90
 -13   2   1    1.30    0.80
 -12   2   1  119.69    4.30
 -11   2   1   59.79    2.60
 -10   2   1   52.69    2.30
  -9   2   1 1431.86   40.50
  -8   2   1  318.37    9.10
  -7   2   1  428.96   12.20
  -6   2   1   16.10    0.80
  -5   2   1 2021.30   57.29
   3  -2  -1 1760.42   49.30
  -3   2   1 1717.33   49.50
   2  -2  -1  511.45   14.40
  -2   2   1  484.75   14.10
   1  -2  -1 1981.50   54.29
  -1   2   1 1811.12   54.79
  -1  -2  -1  160.38    4.70
   1   2   1  161.88    4.80
  -2  -2  -1   35.30    1.40
   2   2   1   35.20    1.50
  -3  -2  -1   33.80    1.20
   3   2   1   32.00    1.30
  -4  -2  -1 1414.56   40.00
  -5  -2  -1   74.19    2.50
  -6  -2  -1   95.29    3.00
  -6  -2  -1   91.39    3.10
  -7  -2  -1  978.20   27.80
  -8  -2  -1  908.11   26.00
  -9  -2  -1  121.89    4.20
 -10  -2  -1    0.30    0.60
 -11  -2  -1    3.70    0.80
 -12  -2  -1   47.20    2.70
 -13  -2  -1   17.20    2.20
 -14  -2  -1  330.27   10.50
 -15  -2  -1  229.48    7.90
 -17   3   1    3.50    1.10
 -16   3   1    0.00    1.00
 -15   3   1  294.27    9.40
 -14   3   1  431.26   13.10
 -13   3   1   57.09    2.80
 -12   3   1    2.10    0.70
 -11   3   1   45.00    2.20
 -10   3   1   25.30    1.60
  -9   3   1   17.60    1.30
  -9   3   1   17.10    1.10
  -8   3   1  131.39    4.20
  -8   3   1  134.89    4.10
  -7   3   1  378.16   11.00
  -7   3   1  382.86   10.90
   6  -3  -1   16.90    1.20
  -6   3   1   16.10    0.90
  -6   3   1   15.30    0.90
   5  -3  -1  544.85   15.20
  -5   3   1  536.75   15.30
  -5   3   1  526.65   15.20
   4  -3  -1 2879.41   81.29
  -4   3   1 2844.52   81.09
  -4   3   1 2890.21   81.49
   3  -3  -1 1925.31   54.69
  -3   3   1 1842.22   54.19
  -3   3   1 1982.70   54.79
   2  -3  -1  164.28    4.90
  -2   3   1  162.48    4.90
   1  -3  -1 3222.48   93.89
  -1   3   1 3396.76   94.09
   0  -3  -1  325.47    9.50
   0   3   1  334.47    9.60
  -1  -3  -1 4731.93  130.29
   1   3   1 4407.96  129.29
  -2  -3  -1   71.79    2.80
   2   3   1   67.69    2.40
  -3  -3  -1   49.10    1.80
   3   3   1   47.40    1.90
  -4  -3  -1   35.10    1.50
  -5  -3  -1  947.01   26.80
  -6  -3  -1  899.21   25.50
  -7  -3  -1   44.80    2.00
  -7  -3  -1   48.80    1.90
  -8  -3  -1  435.46   12.40
  -8  -3  -1  420.16   12.60
  -9  -3  -1   61.19    2.70
 -10  -3  -1    0.00    0.70
 -11  -3  -1  176.68    6.00
 -12  -3  -1   19.70    2.20
 -13  -3  -1   80.79    3.70
 -14  -3  -1   32.50    2.80
 -17   4   1    3.80    1.10
 -16   4   1   23.30    2.60
 -15   4   1  408.76   12.60
 -14   4   1   24.10    2.30
 -13   4   1    4.60    0.90
 -12   4   1   96.59    5.00
 -11   4   1   12.00    1.60
 -10   4   1   80.29    3.00
 -10   4   1   80.29    2.80
  -9   4   1  108.89    3.50
  -9   4   1  106.09    3.60
   8  -4  -1  240.68    7.10
  -8   4   1  240.98    7.30
  -8   4   1  247.48    7.20
   7  -4  -1 1734.03   48.50
  -7   4   1 1721.03   48.50
  -7   4   1 1670.63   48.60
   6  -4  -1  201.38    5.80
  -6   4   1  192.98    5.90
  -6   4   1  202.18    6.00
   5  -4  -1   17.60    0.90
  -5   4   1   19.00    1.10
  -5   4   1   18.70    0.90
   4  -4  -1  174.58    5.10
  -4   4   1  168.18    5.00
  -4   4   1  173.78    5.20
   3  -4  -1  109.49    3.30
  -3   4   1  101.59    3.00
  -3   4   1  101.99    3.30
   2  -4  -1 2036.60   59.89
  -2   4   1 2147.39   59.99
   1  -4  -1 5803.72  160.08
  -1   4   1 5500.45  160.18
   0  -4  -1 8843.32  246.08
   0   4   1 8598.84  246.18
  -1  -4  -1 1589.64   46.00
  -1  -4  -1 1615.24   45.50
   1   4   1 1612.34   46.20
  -2  -4  -1    6.20    0.80
   2   4   1    4.90    1.00
  -3  -4  -1  294.97    8.70
   3   4   1  292.87    8.80
  -4  -4  -1   31.10    1.50
   4   4   1   26.90    1.70
  -5  -4  -1  485.55   14.10
  -6  -4  -1  720.93   20.60
  -7  -4  -1   73.59    2.70
  -7  -4  -1   69.59    2.70
  -8  -4  -1  243.88    7.40
  -8  -4  -1  242.48    7.50
  -9  -4  -1  145.59    4.50
  -9  -4  -1  123.59    5.60
 -10  -4  -1  653.53   19.10
 -11  -4  -1  144.19    5.10
 -12  -4  -1    0.10    0.80
 -13  -4  -1  134.59    5.20
 -14  -4  -1  156.68    5.90
 -17   5   1  305.37   10.00
 -16   5   1   79.99    3.90
 -15   5   1  212.78    7.20
 -14   5   1   35.30    2.50
 -13   5   1    4.30    0.90
 -12   5   1    2.80    0.80
 -11   5   1    1.90    0.60
 -11   5   1    1.70    0.60
 -10   5   1  185.98    5.90
 -10   5   1  193.18    5.90
   9  -5  -1   79.49    2.70
  -9   5   1   82.69    3.00
  -9   5   1   85.39    2.90
   8  -5  -1  602.74   17.00
  -8   5   1  607.44   17.20
  -8   5   1  583.74   17.10
   7  -5  -1   78.79    2.60
  -7   5   1   76.69    2.60
  -7   5   1   77.79    2.80
   6  -5  -1   33.10    1.40
  -6   5   1   28.10    1.30
  -6   5   1   29.40    1.60
   5  -5  -1    9.90    0.90
  -5   5   1   10.00    1.10
  -5   5   1   11.60    0.80
   4  -5  -1   32.60    1.40
  -4   5   1   31.90    1.50
  -4   5   1   31.10    1.10
   3  -5  -1 1334.07   38.20
  -3   5   1 1320.37   37.70
  -3   5   1 1318.87   37.30
   2  -5  -1   20.10    1.10
  -2   5   1   22.60    1.30
   1  -5  -1 1310.67   36.50
  -1   5   1 1201.48   35.60
   0  -5  -1   21.40    1.20
   0  -5  -1   15.60    0.70
   0   5   1   20.10    1.30
  -1  -5  -1 1570.84   43.90
  -1  -5  -1 1588.24   44.90
   1   5   1 1481.65   43.80
  -2  -5  -1  614.44   17.00
  -2  -5  -1  581.94   17.00
   2   5   1  574.94   17.10
  -3  -5  -1  359.86   10.50
  -3  -5  -1  346.37   10.20
   3   5   1  358.46   10.60
  -4  -5  -1  501.25   14.40
   4   5   1  491.35   14.50
  -5  -5  -1    9.00    1.20
  -6  -5  -1    2.00    0.60
  -7  -5  -1   19.70    1.60
  -7  -5  -1   21.00    1.50
  -7  -5  -1   19.30    1.20
  -8  -5  -1  257.27    8.00
  -8  -5  -1  269.87    8.00
  -8  -5  -1  253.87    7.80
  -9  -5  -1   77.99    3.20
  -9  -5  -1   81.49    3.20
  -9  -5  -1   77.59    2.90
 -10  -5  -1  173.98    5.80
 -10  -5  -1  175.08    5.60
 -10  -5  -1  166.98    5.50
 -11  -5  -1   59.09    3.00
 -12  -5  -1    2.10    0.90
 -13  -5  -1   -0.20    0.90
 -17   6   1   33.50    3.10
 -16   6   1  106.29    4.50
 -15   6   1   21.10    2.60
 -14   6   1    1.80    0.90
 -13   6   1   49.90    2.70
 -12   6   1  162.88    5.30
 -12   6   1  157.68    5.40
 -11   6   1   21.30    1.90
 -11   6   1   20.40    1.80
  10  -6  -1  599.44   17.30
 -10   6   1  619.74   17.60
 -10   6   1  598.54   17.50
   9  -6  -1  155.58    4.70
  -9   6   1  151.68    4.80
  -9   6   1  149.09    4.90
   8  -6  -1 1242.18   34.50
  -8   6   1 1232.28   34.70
  -8   6   1 1192.88   34.50
   7  -6  -1    0.50    0.40
  -7   6   1   -0.20    0.50
  -7   6   1    0.60    0.40
   6  -6  -1  294.57    8.50
  -6   6   1  275.07    8.30
  -6   6   1  290.67    8.60
   5  -6  -1  920.31   26.00
  -5   6   1  906.91   26.10
  -5   6   1  910.71   25.90
   4  -6  -1  147.19    4.60
  -4   6   1  152.38    4.80
  -4   6   1  140.59    4.30
   3  -6  -1   24.40    1.30
  -3   6   1   24.50    1.50
   2  -6  -1  136.39    4.30
  -2   6   1  130.29    4.40
   1  -6  -1 1434.46   39.20
  -1   6   1 1279.87   38.50
   0  -6  -1   42.60    1.30
   0  -6  -1   42.80    1.90
   0   6   1   40.70    2.00
  -1  -6  -1  264.17    8.00
  -1  -6  -1  288.27    8.40
   1   6   1  284.87    8.50
  -2  -6  -1   96.79    3.40
  -2  -6  -1   91.59    2.90
   2   6   1   96.59    3.50
  -3  -6  -1  236.88    7.10
  -3  -6  -1  228.18    6.70
   3   6   1  227.78    7.20
  -4  -6  -1  303.07    8.90
  -4  -6  -1  316.57    9.20
   4   6   1  297.77    9.30
  -5  -6  -1  544.25   15.40
  -5  -6  -1  507.15   15.00
  -6  -6  -1   23.20    1.70
  -6  -6  -1   21.40    1.20
  -7  -6  -1  992.20   28.70
  -7  -6  -1  991.70   28.60
  -7  -6  -1 1033.70   28.90
  -8  -6  -1  285.67    8.60
  -8  -6  -1  289.77    8.80
  -9  -6  -1    5.60    0.90
  -9  -6  -1    6.20    1.20
  -9  -6  -1    9.20    1.30
 -10  -6  -1  831.92   23.80
 -10  -6  -1  809.82   23.60
 -10  -6  -1  819.22   23.90
 -11  -6  -1  250.47    8.30
 -11  -6  -1  265.77    8.80
 -12  -6  -1   53.79    3.00
 -13  -6  -1   96.49    4.30
 -17   7   1   36.30    3.10
 -16   7   1  115.29    4.70
 -15   7   1  180.68    6.30
 -14   7   1  104.79    4.20
 -13   7   1    2.00    0.90
 -13   7   1    2.10    1.00
 -12   7   1    2.20    0.90
 -12   7   1    2.70    0.80
  11  -7  -1  346.17   10.20
 -11   7   1  342.97   10.40
 -11   7   1  355.86   10.50
  10  -7  -1   22.90    1.50
 -10   7   1   23.90    2.00
 -10   7   1   27.00    1.70
   9  -7  -1   44.50    1.90
  -9   7   1   40.00    2.20
  -9   7   1   41.10    1.90
   8  -7  -1  120.59    3.80
  -8   7   1  113.79    4.10
  -8   7   1  115.09    3.80
   7  -7  -1  956.60   26.90
  -7   7   1  915.11   26.70
  -7   7   1  962.30   27.10
   6  -7  -1  117.59    3.70
  -6   7   1  109.39    3.90
  -6   7   1  107.69    3.50
   5  -7  -1    0.70    0.40
  -5   7   1    2.20    0.60
  -5   7   1    0.90    0.30
   4  -7  -1    3.70    0.60
  -4   7   1    3.20    0.60
  -4   7   1    5.10    0.70
   3  -7  -1    1.60    0.60
  -3   7   1    1.60    0.60
   2  -7  -1  532.85   15.50
  -2   7   1  535.25   15.70
   1  -7  -1    1.40    0.50
  -1   7   1    0.40    0.60
   0  -7  -1  217.48    6.30
   0  -7  -1  221.98    6.90
   0   7   1  227.88    7.10
  -1  -7  -1  374.86   11.10
  -1  -7  -1  359.96   10.60
   1   7   1  382.96   11.20
  -2  -7  -1  164.18    4.90
  -2  -7  -1  171.68    5.50
   2   7   1  166.98    5.60
  -3  -7  -1   58.09    1.80
  -3  -7  -1   43.50    3.30
   3   7   1   57.39    2.70
  -4  -7  -1  173.78    5.60
  -4  -7  -1  175.28    5.20
   4   7   1  167.88    5.80
  -5  -7  -1  573.94   16.80
  -5  -7  -1  599.84   17.20
  -6  -7  -1   26.80    1.30
  -6  -7  -1   24.90    1.90
  -7  -7  -1    3.50    0.50
  -7  -7  -1    4.00    0.70
  -7  -7  -1    2.80    0.80
  -8  -7  -1   28.10    2.30
  -8  -7  -1   28.20    1.60
  -9  -7  -1    3.60    0.80
  -9  -7  -1    4.30    1.00
  -9  -7  -1    3.60    0.60
 -10  -7  -1   24.10    2.10
 -10  -7  -1   20.10    2.60
 -11  -7  -1   78.99    3.80
 -11  -7  -1   79.39    3.60
 -12  -7  -1   45.60    3.00
 -17   8   1   91.89    4.40
 -16   8   1   21.10    2.80
 -15   8   1   27.70    2.80
 -14   8   1   -0.60    1.10
 -14   8   1    0.30    0.90
 -13   8   1   38.30    2.50
 -13   8   1   33.50    2.80
  12  -8  -1    0.30    0.70
 -12   8   1    1.00    0.80
 -12   8   1    0.10    0.90
  11  -8  -1  304.17    9.80
 -11   8   1  344.37   10.10
 -11   8   1  325.37    9.80
  10  -8  -1   34.50    2.10
 -10   8   1   42.10    2.00
 -10   8   1   39.70    2.40
   9  -8  -1  365.56   11.60
  -9   8   1  404.86   11.70
  -9   8   1  389.96   11.30
  -8   8   1  270.57    8.30
  -8   8   1  260.87    7.90
  -7   8   1  268.57    8.10
  -7   8   1  282.67    8.60
  -6   8   1  273.27    8.30
  -6   8   1  259.87    7.70
   5  -8  -1   22.30    1.90
  -5   8   1   22.80    1.10
  -5   8   1   24.10    1.80
   4  -8  -1  154.98    5.50
  -4   8   1  169.88    5.50
   3  -8  -1  232.58    7.40
  -3   8   1  246.28    7.60
   2  -8  -1   78.09    3.00
  -2   8   1   77.99    3.20
   1  -8  -1  113.09    3.90
  -1   8   1  107.99    4.00
   0  -8  -1  282.77    8.40
   0  -8  -1  310.17    9.10
   0   8   1  296.47    9.20
  -1  -8  -1 1327.37   36.40
  -1  -8  -1 1270.47   36.70
   1   8   1 1261.27   36.80
  -2  -8  -1   60.79    2.60
  -2  -8  -1   63.99    2.00
   2   8   1   59.49    2.90
  -3  -8  -1  309.57    9.00
  -3  -8  -1  318.57    9.60
   3   8   1  308.67    9.70
  -4  -8  -1    0.90    0.60
  -4  -8  -1    1.70    0.60
   4   8   1    0.90    0.70
  -5  -8  -1   37.10    2.20
  -5  -8  -1   38.30    1.60
  -6  -8  -1   41.90    1.70
  -6  -8  -1   38.90    2.40
  -7  -8  -1  429.06   12.60
  -7  -8  -1  406.36   12.30
  -7  -8  -1  414.76   12.20
  -8  -8  -1   13.90    2.20
  -8  -8  -1   14.30    1.40
  -8  -8  -1   13.40    1.70
  -9  -8  -1   45.10    2.90
  -9  -8  -1   45.00    2.60
  -9  -8  -1   46.50    2.20
 -10  -8  -1    4.90    0.90
 -10  -8  -1    3.50    1.20
 -11  -8  -1  295.07    9.40
 -12  -8  -1    4.40    1.10
 -17   9   1  132.99    5.50
 -16   9   1   85.39    4.10
 -15   9   1  111.29    5.00
 -15   9   1  111.59    4.60
 -14   9   1   23.90    2.40
 -14   9   1   23.10    3.10
  13  -9  -1   95.69    3.50
 -13   9   1   84.89    5.10
 -13   9   1  101.29    4.30
  12  -9  -1   48.20    2.30
 -12   9   1   44.80    3.10
 -12   9   1   46.90    2.60
  11  -9  -1   -0.20    0.60
 -11   9   1    0.50    0.70
 -11   9   1    0.90    1.00
  10  -9  -1   50.69    2.30
 -10   9   1   52.69    2.40
 -10   9   1   54.29    3.00
   9  -9  -1  469.75   13.40
  -9   9   1  430.66   13.20
  -9   9   1  470.85   13.80
   8  -9  -1  189.88    5.90
  -8   9   1  179.98    5.70
  -8   9   1  190.78    6.30
   7  -9  -1  106.69    3.60
  -7   9   1   95.79    3.90
  -7   9   1   93.99    3.20
   6  -9  -1  571.64   16.80
  -6   9   1  590.04   17.10
  -6   9   1  567.54   16.30
   5  -9  -1  424.86   12.60
  -5   9   1  423.26   12.00
  -5   9   1  428.06   12.80
   4  -9  -1  102.29    3.60
  -4   9   1   99.99    3.90
   3  -9  -1   13.30    1.40
  -3   9   1   12.00    1.60
   2  -9  -1   13.60    1.40
  -2   9   1   13.90    1.70
   1  -9  -1 1166.68   33.20
  -1   9   1 1150.18   33.30
   0  -9  -1   67.69    2.80
   0  -9  -1   65.39    2.20
   0   9   1   65.39    3.10
  -1  -9  -1   97.19    3.60
  -1  -9  -1   98.49    2.90
   1   9   1   92.79    3.90
  -2  -9  -1   16.50    1.60
  -2  -9  -1   16.10    0.80
   2   9   1   16.30    2.00
  -3  -9  -1  267.27    8.20
  -3  -9  -1  256.37    7.50
   3   9   1  249.88    8.40
  -4  -9  -1    5.00    0.80
   4   9   1    5.10    1.10
  -5  -9  -1   -0.40    0.70
  -5  -9  -1    0.70    0.40
  -6  -9  -1   80.69    3.70
  -6  -9  -1   93.09    3.00
  -7  -9  -1    1.90    0.90
  -7  -9  -1    1.10    0.70
  -7  -9  -1    1.40    0.50
  -8  -9  -1    4.10    0.60
  -8  -9  -1    4.60    0.80
  -8  -9  -1    3.40    1.00
  -9  -9  -1  125.59    5.10
  -9  -9  -1  127.49    4.60
  -9  -9  -1  130.29    4.70
 -10  -9  -1   15.60    2.20
 -10  -9  -1   10.10    1.50
 -11  -9  -1  164.68    5.90
 -17  10   1    7.00    1.50
 -16  10   1    6.60    1.30
 -16  10   1    5.20    2.00
 -15  10   1   41.30    3.90
 -15  10   1   46.50    3.20
  14 -10  -1   18.90    2.10
 -14  10   1   21.80    3.40
 -14  10   1   25.90    2.60
  13 -10  -1  179.88    5.80
 -13  10   1  171.58    6.50
 -13  10   1  180.78    6.60
  12 -10  -1   26.80    2.10
 -12  10   1   29.40    3.00
 -12  10   1   32.10    2.30
  11 -10  -1  155.48    5.10
 -11  10   1  150.88    5.10
 -11  10   1  154.08    5.80
  10 -10  -1   19.50    1.80
 -10  10   1   17.60    1.70
 -10  10   1   15.70    2.40
   9 -10  -1  114.79    4.00
  -9  10   1  110.19    4.50
  -9  10   1  109.29    3.80
   8 -10  -1   19.20    1.70
  -8  10   1   17.50    1.40
  -8  10   1   18.40    2.20
   7 -10  -1   55.79    2.50
  -7  10   1   49.80    2.00
  -7  10   1   51.99    2.80
   6 -10  -1    2.40    0.60
  -6  10   1    1.60    0.80
  -6  10   1    2.30    0.40
   5 -10  -1  166.18    5.50
  -5  10   1  166.48    5.80
  -4  10   1   17.80    1.90
   3 -10  -1   91.29    3.50
  -3  10   1   88.59    3.70
   2 -10  -1   42.50    2.20
  -2  10   1   43.50    2.50
   1 -10  -1  171.58    5.70
   0 -10  -1  289.97    8.90
   0 -10  -1  278.07    8.10
   0  10   1  284.67    9.10
  -1 -10  -1   40.90    1.40
  -1 -10  -1   39.90    2.30
   1  10   1   42.90    2.70
  -2 -10  -1   51.49    1.80
  -2 -10  -1   52.89    2.60
   2  10   1   51.09    3.00
  -3 -10  -1  130.49    3.90
  -3 -10  -1  122.79    4.60
   3  10   1  125.79    5.00
  -4 -10  -1  185.88    6.30
  -4 -10  -1  185.68    5.60
   4  10   1  186.58    6.60
  -5 -10  -1    1.80    0.80
  -5 -10  -1    1.50    0.40
  -6 -10  -1    0.30    0.50
  -6 -10  -1    1.30    0.90
  -6 -10  -1   -0.30    0.60
  -7 -10  -1  138.79    5.30
  -7 -10  -1  138.59    4.50
  -8 -10  -1   67.29    3.60
  -8 -10  -1   68.49    2.70
  -8 -10  -1   69.29    3.10
  -9 -10  -1   -0.30    1.30
  -9 -10  -1    2.20    0.90
 -10 -10  -1   66.59    3.40
 -16  11   1   81.49    6.00
 -16  11   1   77.39    4.20
 -15  11   1  357.96   11.40
 -15  11   1  378.66   12.00
  14 -11  -1    3.00    0.90
 -14  11   1    4.50    1.10
 -14  11   1    5.00    1.60
  13 -11  -1   20.70    2.20
 -13  11   1   26.30    3.40
 -13  11   1   29.00    2.40
  12 -11  -1   63.99    2.90
 -12  11   1   65.49    3.00
 -12  11   1   66.49    3.90
  11 -11  -1  256.67    8.00
 -11  11   1  262.67    8.70
 -11  11   1  250.57    7.90
  10 -11  -1   27.70    2.10
 -10  11   1   26.80    1.90
 -10  11   1   27.00    2.90
   9 -11  -1   17.10    1.90
  -9  11   1   15.60    2.50
  -9  11   1   15.50    1.60
   8 -11  -1  116.09    4.20
  -8  11   1  108.69    3.70
  -8  11   1  115.79    4.70
   7 -11  -1  485.35   14.30
  -7  11   1  474.95   13.70
  -7  11   1  482.95   14.70
   6 -11  -1  504.25   15.10
  -6  11   1  511.35   15.40
   5 -11  -1   93.89    3.60
  -5  11   1   93.69    4.10
   4 -11  -1  134.09    4.70
  -4  11   1  132.49    5.10
   3 -11  -1  371.46   11.30
  -3  11   1  370.56   11.60
   2 -11  -1   26.60    2.00
  -2  11   1   27.80    2.40
   1 -11  -1   15.20    1.70
  -1  11   1   15.70    2.20
   0 -11  -1    5.30    0.90
   0 -11  -1    6.00    0.70
   0  11   1    4.70    1.00
  -1 -11  -1  744.73   21.50
  -1 -11  -1  707.73   20.60
   1  11   1  740.73   21.80
  -2 -11  -1  249.88    7.30
  -2 -11  -1  253.67    8.20
   2  11   1  258.37    8.60
  -3 -11  -1    1.70    0.80
   3  11   1    1.30    1.60
  -4 -11  -1   54.59    3.00
  -4 -11  -1   55.09    2.00
   4  11   1   54.09    3.50
  -5 -11  -1   20.30    1.30
  -5 -11  -1   19.50    2.30
  -5 -11  -1   20.80    1.60
  -6 -11  -1   39.50    2.80
  -6 -11  -1   36.10    2.20
  -6 -11  -1   32.80    1.80
  -7 -11  -1   14.10    1.90
  -7 -11  -1   10.30    1.50
  -7 -11  -1   15.80    2.60
  -8 -11  -1   55.39    3.90
  -8 -11  -1   70.69    3.10
  -8 -11  -1   61.19    2.70
  -9 -11  -1  214.48    7.10
  -9 -11  -1  208.28    7.70
 -16  12   1    1.10    2.50
 -16  12   1    1.40    1.30
 -15  12   1    7.30    1.30
 -15  12   1    7.10    1.90
  14 -12  -1    5.00    1.00
 -14  12   1    6.30    1.70
 -14  12   1    8.00    1.20
  13 -12  -1   49.50    2.90
 -13  12   1   53.49    4.20
 -13  12   1   55.49    3.00
  12 -12  -1  153.58    5.40
 -12  12   1  156.58    5.30
 -12  12   1  161.38    6.30
  11 -12  -1   -0.80    0.70
 -11  12   1    0.90    0.80
 -11  12   1   -0.70    1.20
  10 -12  -1   19.10    2.10
 -10  12   1   17.80    1.80
 -10  12   1   17.60    3.00
   9 -12  -1   34.10    2.40
  -9  12   1   36.60    2.00
  -9  12   1   36.90    3.10
   8 -12  -1    2.20    0.80
  -8  12   1    1.70    0.60
  -8  12   1    0.70    1.00
   7 -12  -1  148.09    5.40
  -7  12   1  157.38    4.60
  -7  12   1  156.48    5.90
  -6  12   1    3.40    1.00
   5 -12  -1   21.00    1.90
  -5  12   1   20.10    2.50
   4 -12  -1  480.25   14.10
  -4  12   1  450.45   14.50
   3 -12  -1  366.16   10.90
  -3  12   1  332.37   11.80
   2 -12  -1  322.87   10.10
   1 -12  -1  136.69    5.10
  -1  12   1  145.99    5.80
   0 -12  -1   31.10    2.20
   0  12   1   26.20    2.70
  -1 -12  -1    2.70    0.90
  -1 -12  -1    1.90    0.40
   1  12   1    3.80    1.10
  -2 -12  -1  144.89    4.40
  -2 -12  -1  143.09    5.30
   2  12   1  147.99    5.80
  -3 -12  -1    0.70    0.80
  -3 -12  -1    0.40    0.40
   3  12   1    1.50    1.10
  -4 -12  -1  194.18    5.80
  -4 -12  -1  192.98    6.80
  -4 -12  -1  197.48    6.00
  -5 -12  -1  121.19    3.90
  -5 -12  -1  116.89    4.90
  -5 -12  -1  122.49    4.20
  -6 -12  -1  111.49    3.80
  -6 -12  -1  110.99    4.90
  -6 -12  -1  113.59    4.10
  -7 -12  -1   35.50    4.00
  -7 -12  -1   36.80    2.40
  -7 -12  -1   33.50    2.00
  -8 -12  -1   96.79    4.00
 -15  13   1    4.30    1.40
 -15  13   1    4.80    2.00
  14 -13  -1  150.98    5.70
 -14  13   1  169.08    7.10
 -14  13   1  161.28    5.70
  13 -13  -1  528.05   16.40
 -13  13   1  560.44   16.40
 -13  13   1  579.84   17.40
  12 -13  -1   19.30    2.60
 -12  13   1   28.10    3.70
 -12  13   1   25.30    2.30
  11 -13  -1   -0.10    0.90
 -11  13   1    0.30    1.40
 -11  13   1    0.20    0.80
  10 -13  -1    3.90    0.90
 -10  13   1    4.60    0.80
 -10  13   1    4.30    1.40
   9 -13  -1  103.99    4.20
  -9  13   1  110.89    5.00
  -9  13   1  111.79    3.60
   8 -13  -1  112.09    4.40
  -8  13   1  114.39    3.50
  -8  13   1  108.59    5.00
   7 -13  -1   -0.30    0.70
  -7  13   1   -0.50    1.00
   6 -13  -1  822.42   24.20
  -6  13   1  839.12   24.70
   5 -13  -1   73.09    3.30
  -5  13   1   73.59    4.00
   4 -13  -1  356.36   11.30
  -4  13   1  367.16   11.70
   3 -13  -1  538.45   16.40
  -3  13   1  551.74   16.80
   2 -13  -1  150.98    5.60
  -2  13   1  157.48    6.10
   1 -13  -1   71.89    3.40
  -1  13   1   73.19    3.90
   0 -13  -1   53.29    3.00
   0 -13  -1   57.99    1.90
   0  13   1   52.59    3.60
  -1 -13  -1  203.18    7.10
  -1 -13  -1  205.78    6.00
   1  13   1  209.88    7.60
  -2 -13  -1  332.37   10.80
  -2 -13  -1  342.87    9.80
   2  13   1  342.17   11.20
  -3 -13  -1  135.59    5.40
  -3 -13  -1  134.89    4.20
  -3 -13  -1  139.99    4.40
   3  13   1  135.99    5.80
  -4 -13  -1    2.20    0.50
  -4 -13  -1    3.60    0.70
  -5 -13  -1   76.69    3.10
  -5 -13  -1   73.29    2.80
  -6 -13  -1    5.20    0.70
  -6 -13  -1    5.50    1.20
  -7 -13  -1   66.49    3.20
  -7 -13  -1   54.19    2.70
 -15  14   1   32.00    3.40
 -15  14   1   34.90    5.20
  14 -14  -1   15.40    3.00
 -14  14   1   24.70    4.70
 -14  14   1   25.10    2.90
  13 -14  -1  208.68    7.30
 -13  14   1  218.78    7.10
 -13  14   1  221.18    8.50
  12 -14  -1    3.90    1.10
 -12  14   1    6.50    1.80
 -12  14   1    6.50    1.10
  11 -14  -1    1.00    0.90
 -11  14   1    1.30    0.80
 -11  14   1    2.80    1.60
  10 -14  -1   -1.10    0.90
 -10  14   1    0.60    1.40
   9 -14  -1   31.30    2.60
  -9  14   1   34.00    1.70
  -9  14   1   34.50    3.60
   8 -14  -1   16.50    2.30
  -8  14   1   11.30    1.70
   7 -14  -1   41.50    2.70
  -7  14   1   39.20    3.40
   6 -14  -1   -0.30    0.80
  -6  14   1    0.00    1.00
   5 -14  -1  106.29    4.40
  -5  14   1  113.19    5.10
   4 -14  -1    1.00    0.70
  -4  14   1    2.50    1.20
   3 -14  -1    7.00    1.20
  -3  14   1    7.40    1.40
   2 -14  -1  332.57   10.90
  -2  14   1  342.67   11.30
  -1  14   1   17.70    2.90
   0  14   1   50.99    3.60
  -1 -14  -1   74.39    2.60
  -1 -14  -1   76.59    2.60
   1  14   1   81.19    4.30
  -2 -14  -1   27.10    1.40
  -2 -14  -1   27.10    1.60
   2  14   1   27.00    3.20
  -3 -14  -1  235.08    7.20
  -3 -14  -1  236.98    7.00
   3  14   1  236.28    8.70
  -4 -14  -1   16.50    1.50
  -4 -14  -1   15.50    1.90
  -5 -14  -1   41.80    2.50
  -6 -14  -1   87.39    3.70
 -14  15   1   -0.90    2.60
 -14  15   1    0.30    2.10
 -13  15   1   31.80    4.80
 -13  15   1   26.70    2.90
 -12  15   1  182.08    7.50
 -12  15   1  169.88    5.80
 -11  15   1  151.98    5.00
 -11  15   1  151.98    6.70
 -10  15   1    1.10    1.50
 -10  15   1    0.00    0.60
  -9  15   1    8.40    1.60
  -8  15   1  252.17    9.10
  -7  15   1  700.53   21.40
  -6  15   1   -0.40    1.20
  -5  15   1  253.37    9.00
  -4  15   1  230.18    8.40
  -3  15   1  112.89    5.30
  -2  15   1    1.10    1.30
  -1  15   1   -1.60    1.00
   0  15   1   17.20    3.20
  -1 -15  -1  289.57    8.40
   1  15   1  292.87   10.20
  -2 -15  -1   15.00    1.60
   2  15   1   16.80    3.20
  -3 -15  -1   90.99    3.40
  -4 -15  -1  148.39    5.00
 -13  16   1    9.00    2.20
 -12  16   1   47.60    4.90
 -11  16   1    8.10    1.90
 -10  16   1   65.99    4.90
  -9  16   1   32.90    3.90
  -8  16   1    1.60    1.30
  -7  16   1   26.90    3.40
  -6  16   1   33.80    3.60
  -5  16   1   58.89    4.10
  -4  16   1  176.48    7.10
  -3  16   1  148.29    6.30
  -2  16   1    9.90    1.60
  -1  16   1   56.59    4.10
   0  16   1    0.90    1.40
   1  16   1   -0.70    1.20
   2  16   1    2.70    1.50
 -12  17   1    0.80    1.90
 -11  17   1   -1.00    1.80
 -10  17   1   55.59    4.90
  -9  17   1   26.50    4.10
  -8  17   1    5.40    1.60
  -7  17   1   99.89    5.40
  -6  17   1  241.68    9.00
  -5  17   1   50.79    4.00
  -4  17   1   38.50    3.80
  -3  17   1   -2.00    1.20
  -2  17   1   99.19    5.30
  -1  17   1  182.58    7.60
   0  17   1    3.60    1.50
   1  17   1   12.50    1.90
 -10  18   1    8.80    2.10
  -9  18   1    0.80    1.60
  -8  18   1  117.39    6.10
  -7  18   1   40.40    4.20
  -6  18   1   -0.10    1.30
  -5  18   1    2.50    1.50
  -4  18   1  157.28    7.00
  -3  18   1   31.50    3.70
  -2  18   1    5.00    1.60
  -5  19  -2    4.00    1.60
  -6  19  -2   66.49    4.90
  -7  19  -2   21.60    4.20
  -3  18  -2    1.50    1.30
  -4  18  -2    9.00    1.60
  -5  18  -2    6.10    1.60
  -6  18  -2   70.19    4.70
  -7  18  -2   22.00    3.90
  -8  18  -2  127.09    6.60
  -9  18  -2  440.76   14.90
  -2  17  -2    0.40    1.20
  -3  17  -2    3.20    1.30
  -4  17  -2   61.29    4.10
  -5  17  -2    0.10    1.10
  -6  17  -2  113.89    5.70
  -8  17  -2    7.30    1.70
  -9  17  -2    3.70    1.80
  -9  17  -2    0.40    0.60
 -10  17  -2    0.20    1.70
 -11  17  -2    0.60    2.00
  -2 -16   2    5.60    0.80
   0 -16   2   19.00    1.70
  -1  16  -2    4.60    1.30
   1 -16   2    8.80    1.50
  -2  16  -2    6.20    1.40
  -2  16  -2    8.10    1.00
   2 -16   2    9.30    1.50
  -3  16  -2    7.60    1.40
  -4  16  -2    3.60    1.30
  -5  16  -2  125.59    3.70
  -5  16  -2  122.99    5.70
   5 -16   2  121.69    3.90
  -6  16  -2   47.70    4.00
  -6  16  -2   53.39    1.90
   6 -16   2   50.79    2.20
  -7  16  -2  116.29    5.70
  -7  16  -2  122.49    3.80
  -8  16  -2   20.20    3.80
  -8  16  -2   26.50    1.80
  -9  16  -2    3.90    0.80
  -9  16  -2    4.00    1.60
 -10  16  -2   12.00    2.00
 -10  16  -2   14.50    2.10
 -11  16  -2   15.00    2.30
 -11  16  -2   22.30    2.50
 -12  16  -2    6.50    2.20
 -12  16  -2    9.90    1.40
  -5 -15   2    2.10    0.70
  -4 -15   2  394.06   11.50
  -3 -15   2  263.67    7.90
  -2 -15   2   34.70    1.80
  -1 -15   2   23.00    1.80
   0 -15   2  456.55   13.10
  -1  15  -2   84.99    4.50
  -1  15  -2   90.89    2.80
   1 -15   2   85.59    3.00
  -2  15  -2    0.50    0.40
  -2  15  -2    0.60    1.00
   2 -15   2    0.40    0.50
  -3  15  -2   11.50    0.90
   3 -15   2   11.40    1.30
  -4  15  -2   17.00    1.00
   4 -15   2   16.40    1.40
  -5  15  -2  719.63   19.90
  -5  15  -2  709.63   21.50
   5 -15   2  696.13   20.00
   5 -15   2  692.33   21.60
  -6  15  -2  185.18    5.30
  -6  15  -2  182.08    7.10
   6 -15   2  170.78    6.50
   6 -15   2  174.58    5.50
  -7  15  -2    2.20    0.60
  -7  15  -2    1.80    1.40
   7 -15   2    1.50    0.60
  -8  15  -2   48.10    4.00
  -8  15  -2   46.90    2.20
   8 -15   2   45.10    3.20
  -9  15  -2  262.77    9.40
  -9  15  -2  262.57    7.90
   9 -15   2  247.18    8.60
 -10  15  -2    5.80    1.70
 -10  15  -2    5.60    1.00
  10 -15   2    6.30    1.30
 -11  15  -2   49.80    2.90
 -11  15  -2   44.20    4.60
  11 -15   2   41.00    3.50
 -12  15  -2    6.70    2.00
 -12  15  -2    7.40    1.30
  12 -15   2    8.80    1.50
 -13  15  -2    0.60    2.00
 -13  15  -2   -0.50    1.20
  -7 -14   2   27.40    2.00
  -6 -14   2   36.20    2.00
  -5 -14   2   19.80    1.60
  -4 -14   2  213.18    6.40
  -3 -14   2   60.19    2.30
  -2 -14   2   26.50    1.50
  -1 -14   2   63.29    3.50
  -1 -14   2   59.69    2.30
   0  14  -2  476.25   13.40
   0  14  -2  467.55   14.80
   0 -14   2  460.75   14.40
   0 -14   2  465.45   13.40
  -1  14  -2    6.40    0.80
  -1  14  -2    4.90    1.20
   1 -14   2    5.50    0.60
   1 -14   2    6.10    1.10
  -2  14  -2  264.37    7.40
  -2  14  -2  262.07    8.90
   2 -14   2  254.07    8.50
   2 -14   2  250.27    7.50
  -3  14  -2  141.69    4.00
  -3  14  -2  132.19    5.60
   3 -14   2  131.39    5.20
   3 -14   2  134.39    4.20
  -4  14  -2  151.78    4.40
  -4  14  -2  150.88    6.00
   4 -14   2  148.19    5.50
   4 -14   2  143.59    4.60
  -5  14  -2  156.58    6.20
  -5  14  -2  158.18    4.60
   5 -14   2  151.68    4.70
   5 -14   2  146.99    5.60
  -6  14  -2  137.19    5.70
  -6  14  -2  139.49    4.20
   6 -14   2  131.89    5.20
   6 -14   2  135.49    4.30
  -7  14  -2   74.09    4.20
  -7  14  -2   71.49    2.60
   7 -14   2   66.09    2.70
   7 -14   2   67.69    3.40
  -8  14  -2    5.60    0.80
  -8  14  -2    4.80    1.40
   8 -14   2    4.60    1.00
  -9  14  -2  422.66   12.40
  -9  14  -2  440.86   13.60
   9 -14   2  401.76   12.90
 -10  14  -2    0.50    1.40
 -10  14  -2    2.10    0.90
  10 -14   2    0.80    1.10
 -11  14  -2   -1.50    1.00
 -11  14  -2   -1.90    1.50
  11 -14   2   -1.50    1.00
 -12  14  -2  148.79    6.60
 -12  14  -2  146.89    5.40
  12 -14   2  139.99    5.50
 -13  14  -2   50.49    4.90
 -13  14  -2   49.90    3.40
  13 -14   2   44.50    3.50
 -14  14  -2   -1.00    1.30
  -8 -13   2   36.80    2.10
  -7 -13   2   96.09    3.40
  -6 -13   2  575.64   16.60
  -5 -13   2  297.57    9.10
  -5 -13   2  325.57   12.00
  -4 -13   2   28.00    2.50
  -4 -13   2   34.20    1.60
  -3 -13   2  570.64   17.50
  -3 -13   2  583.94   16.50
  -2 -13   2    6.70    1.10
  -1 -13   2   96.59    3.10
  -1 -13   2   92.59    4.00
   0  13  -2   72.99    3.80
   0  13  -2   71.19    2.40
   0 -13   2   74.89    3.50
   0 -13   2   71.39    2.50
  -1  13  -2    0.20    0.30
   1 -13   2    0.60    0.40
   1 -13   2    0.60    0.80
  -2  13  -2  317.57    9.00
  -2  13  -2  316.47   10.30
   2 -13   2  315.07   10.00
   2 -13   2  306.77    9.10
  -3  13  -2  134.59    5.50
  -3  13  -2  137.99    4.10
   3 -13   2  140.79    5.10
   3 -13   2  137.29    4.30
  -4  13  -2   69.89    2.20
  -4  13  -2   63.09    4.20
   4 -13   2   64.59    2.40
   4 -13   2   68.19    3.20
  -5  13  -2  478.05   13.40
   5 -13   2  467.95   14.20
   5 -13   2  456.85   13.40
  -6  13  -2  242.58    7.10
   6 -13   2  237.48    7.10
   6 -13   2  237.08    7.90
  -7  13  -2  316.07   11.40
  -7  13  -2  350.86    9.80
   7 -13   2  330.47    9.80
   7 -13   2  328.97   10.40
  -8  13  -2    1.00    0.70
  -8  13  -2    1.70    1.20
   8 -13   2    2.30    0.60
   8 -13   2    1.30    0.80
  -9  13  -2    7.60    1.00
  -9  13  -2    7.50    1.40
   9 -13   2    7.00    1.20
 -10  13  -2  111.79    5.10
 -10  13  -2  105.09    4.10
  10 -13   2  108.19    4.40
 -11  13  -2    1.90    1.40
 -11  13  -2    2.90    1.00
  11 -13   2    1.10    1.00
 -12  13  -2   -1.90    1.40
 -12  13  -2   -0.30    1.00
  12 -13   2   -0.20    1.00
 -13  13  -2   19.00    2.60
 -13  13  -2   11.70    1.90
  13 -13   2   15.40    2.60
 -14  13  -2  116.39    4.90
  -8 -12   2  297.67    8.90
  -7 -12   2   29.80    1.70
  -7 -12   2   28.60    3.00
  -6 -12   2  100.19    4.50
  -6 -12   2   98.79    3.30
  -5 -12   2  269.57    9.00
  -5 -12   2  277.67    8.10
  -4 -12   2   15.60    2.10
  -4 -12   2   19.20    1.20
  -3 -12   2  250.87    7.40
  -3 -12   2  252.47    8.30
  -2 -12   2    0.50    0.70
  -2 -12   2    0.30    0.40
   1  12  -2  388.36   11.20
  -1 -12   2  392.26   11.20
  -1 -12   2  392.26   12.10
   0  12  -2  787.72   22.50
   0  12  -2  799.62   23.80
   0 -12   2  817.22   23.40
   0 -12   2  785.32   22.50
  -1  12  -2   82.59    2.50
  -1  12  -2   77.89    3.80
   1 -12   2   72.79    2.50
   1 -12   2   75.59    3.40
  -2  12  -2 1429.86   40.10
  -2  12  -2 1465.95   41.10
   2 -12   2 1402.86   40.00
   2 -12   2 1396.06   40.80
  -3  12  -2  530.65   16.00
  -3  12  -2  521.05   14.80
   3 -12   2  523.55   15.70
   3 -12   2  514.05   14.90
  -4  12  -2  107.89    4.50
  -4  12  -2  105.19    3.30
   4 -12   2  108.39    4.10
   4 -12   2  100.49    3.40
  -5  12  -2  106.79    4.70
  -5  12  -2  113.89    3.50
   5 -12   2  110.99    4.30
   5 -12   2  113.89    3.60
  -6  12  -2   73.89    3.80
  -6  12  -2   75.19    2.70
   6 -12   2   73.39    3.30
   6 -12   2   75.89    2.60
  -7  12  -2  250.17    8.30
  -7  12  -2  246.68    7.40
   7 -12   2  240.18    7.50
   7 -12   2  245.48    7.90
  -8  12  -2   63.19    3.70
  -8  12  -2   64.69    2.70
   8 -12   2   65.79    3.10
   8 -12   2   64.69    2.50
  -9  12  -2  143.99    5.60
  -9  12  -2  142.79    4.80
   9 -12   2  133.89    5.00
 -10  12  -2  285.27    8.90
 -10  12  -2  301.67    9.70
  10 -12   2  283.97    9.00
 -11  12  -2   65.69    3.10
 -11  12  -2   69.09    4.10
  11 -12   2   62.59    3.10
 -12  12  -2    3.30    1.00
 -12  12  -2    2.40    1.40
  12 -12   2    2.50    0.90
 -13  12  -2   20.10    2.60
  13 -12   2   17.20    2.40
 -14  12  -2   89.19    4.30
 -15  12  -2   33.60    3.40
 -10 -11   2   -1.80    1.40
  -9 -11   2   30.90    2.10
  -9 -11   2   31.40    3.30
  -8 -11   2  332.07    9.90
  -8 -11   2  339.17   10.80
  -7 -11   2  252.97    7.60
  -7 -11   2  255.47    8.50
  -6 -11   2  158.28    4.80
  -6 -11   2  152.58    5.80
  -5 -11   2   24.10    2.30
  -5 -11   2   29.20    1.40
  -4 -11   2  162.28    4.80
  -4 -11   2  153.78    5.70
  -3 -11   2  635.34   18.20
  -3 -11   2  582.54   17.50
  -2 -11   2   13.00    0.90
  -2 -11   2   13.20    1.70
   1  11  -2  440.66   13.70
   1  11  -2  437.06   12.70
  -1 -11   2  441.46   12.70
  -1 -11   2  461.65   13.60
   0  11  -2  934.11   27.00
   0  11  -2  899.51   26.00
   0 -11   2  929.81   26.80
   0 -11   2  926.01   26.00
  -1  11  -2  368.16   10.60
  -1  11  -2  366.86   11.60
   1 -11   2  370.56   10.60
   1 -11   2  380.86   11.50
  -2  11  -2    0.30    0.30
  -2  11  -2    0.30    0.80
   2 -11   2    0.80    0.40
   2 -11   2   -0.20    0.60
  -3  11  -2   48.40    2.90
  -3  11  -2   51.79    1.70
   3 -11   2   51.59    2.60
   3 -11   2   48.10    1.80
  -4  11  -2  108.19    4.40
  -4  11  -2  109.09    3.40
   4 -11   2  111.19    3.50
   4 -11   2  112.59    4.10
  -5  11  -2   46.70    2.90
  -5  11  -2   49.10    1.90
   5 -11   2   51.19    1.90
   5 -11   2   49.10    2.50
  -6  11  -2   76.09    2.70
  -6  11  -2   74.29    3.60
   6 -11   2   74.99    2.60
   6 -11   2   72.59    3.10
  -7  11  -2    0.70    0.90
  -7  11  -2    0.60    0.60
   7 -11   2    0.40    0.70
   7 -11   2   -0.20    0.80
  -8  11  -2  192.48    6.70
  -8  11  -2  194.28    6.00
   8 -11   2  186.18    5.80
   8 -11   2  186.58    6.20
  -9  11  -2  175.38    6.30
  -9  11  -2  169.88    5.60
   9 -11   2  174.68    5.80
 -10  11  -2    1.20    0.80
 -10  11  -2   -0.30    1.10
  10 -11   2    1.70    0.80
 -11  11  -2   18.50    2.20
 -11  11  -2   19.40    3.00
  11 -11   2   18.40    2.00
 -12  11  -2  213.68    7.00
 -12  11  -2  215.08    7.50
  12 -11   2  208.28    6.70
 -13  11  -2   49.70    3.70
 -13  11  -2   50.89    3.10
  13 -11   2   47.50    2.60
 -14  11  -2  134.29    5.30
 -15  11  -2   34.10    3.30
 -11 -10   2   48.70    4.10
 -10 -10   2  140.49    5.70
  -9 -10   2  212.18    6.60
  -9 -10   2  214.08    7.40
  -8 -10   2   16.40    1.40
  -8 -10   2   17.20    2.50
  -7 -10   2   75.79    2.70
  -7 -10   2   77.49    3.70
  -6 -10   2  451.05   13.20
  -6 -10   2  463.85   14.00
  -5 -10   2   99.09    4.10
  -5 -10   2  105.99    3.30
  -4 -10   2    4.70    0.80
  -3 -10   2   14.00    1.70
  -3 -10   2   13.00    0.90
   2  10  -2   31.50    1.30
  -2 -10   2   30.80    2.00
  -2 -10   2   31.00    1.30
   1  10  -2  145.39    5.50
   1  10  -2  156.28    4.50
  -1 -10   2  155.98    5.30
  -1 -10   2  150.18    4.50
   0  10  -2   14.50    0.80
   0  10  -2   13.70    1.90
   0 -10   2   13.30    1.60
  -1  10  -2    1.90    0.70
  -1  10  -2    2.00    0.30
   1 -10   2    1.80    0.30
   1 -10   2    1.60    0.60
  -2  10  -2  199.58    5.80
  -2  10  -2  196.78    6.70
   2 -10   2  203.78    6.50
   2 -10   2  194.08    5.80
  -3  10  -2  128.89    3.80
  -3  10  -2  126.09    4.70
   3 -10   2  130.09    4.50
   3 -10   2  125.29    3.90
  -4  10  -2  315.37    9.90
  -4  10  -2  317.67    9.10
   4 -10   2  311.37    9.10
   4 -10   2  319.07    9.70
  -5  10  -2    0.40    0.40
  -5  10  -2    0.40    0.70
   5 -10   2    0.20    0.40
   5 -10   2    0.40    0.60
  -6  10  -2   28.10    1.60
  -6  10  -2   25.70    2.20
   6 -10   2   30.30    1.50
   6 -10   2   27.20    1.90
  -7  10  -2  196.58    6.50
  -7  10  -2  189.98    5.90
   7 -10   2  192.88    6.10
   7 -10   2  179.18    6.20
  -8  10  -2   39.60    2.10
  -8  10  -2   41.60    2.70
   8 -10   2   41.50    1.90
   8 -10   2   42.00    2.20
  -9  10  -2    2.40    1.00
  -9  10  -2    1.90    0.70
   9 -10   2    1.30    0.70
 -10  10  -2  280.87    8.80
 -10  10  -2  289.07    9.10
  10 -10   2  284.07    8.70
 -11  10  -2   45.90    3.30
 -11  10  -2   48.70    2.90
  11 -10   2   46.30    2.40
 -12  10  -2  170.18    5.80
 -12  10  -2  168.88    6.00
  12 -10   2  154.98    5.30
 -13  10  -2    9.00    1.20
  13 -10   2   11.80    2.00
 -14  10  -2   49.99    3.30
 -15  10  -2   28.00    3.00
 -11  -9   2  103.99    4.90
 -10  -9   2  483.25   14.80
  -9  -9   2  236.88    7.90
  -9  -9   2  235.68    7.20
  -8  -9   2    4.60    1.00
  -8  -9   2    5.40    0.60
  -7  -9   2   89.09    3.90
  -7  -9   2   91.89    3.10
  -6  -9   2   28.60    2.20
  -6  -9   2   28.30    1.40
  -5  -9   2   83.29    3.50
  -5  -9   2   89.39    2.80
  -4  -9   2   88.39    3.10
  -4  -9   2   99.29    3.70
  -3  -9   2   62.89    2.80
  -3  -9   2   61.39    2.00
   2   9  -2  287.07    8.40
  -2  -9   2  290.37    9.00
  -2  -9   2  293.57    8.40
   1   9  -2   47.20    2.60
   1   9  -2   51.29    1.70
  -1  -9   2   48.70    1.70
  -1  -9   2   49.90    2.40
   0   9  -2  445.96   13.10
   0   9  -2  470.15   13.90
   0  -9   2  469.15   13.80
   0  -9   2  458.55   13.10
  -1   9  -2  188.38    5.50
  -1   9  -2  192.08    6.40
   1  -9   2  195.28    5.60
  -2   9  -2  309.77    9.50
  -2   9  -2  304.67    8.80
   2  -9   2  301.77    8.80
   2  -9   2  312.77    9.40
  -3   9  -2  265.37    8.30
  -3   9  -2  259.87    7.60
   3  -9   2  266.47    8.20
   3  -9   2  259.57    7.60
  -4   9  -2  190.78    6.40
  -4   9  -2  193.08    5.70
   4  -9   2  191.78    6.20
   4  -9   2  193.98    5.70
  -5   9  -2  149.19    5.30
  -5   9  -2  156.78    4.80
   5  -9   2  155.48    5.10
   5  -9   2  157.68    4.70
  -6   9  -2  705.43   20.00
  -6   9  -2  701.03   19.50
   6  -9   2  716.43   19.50
   6  -9   2  610.34   20.00
  -7   9  -2   77.89    3.30
  -7   9  -2   75.69    2.80
  -8   9  -2    2.10    0.60
  -8   9  -2    1.40    0.80
   8  -9   2    2.10    0.70
   8  -9   2    1.90    0.50
  -9   9  -2  392.36   11.90
  -9   9  -2  407.66   12.10
   9  -9   2  401.56   11.80
 -10   9  -2 1504.15   41.40
 -10   9  -2 1423.46   41.20
  10  -9   2 1423.96   41.00
 -11   9  -2    2.10    1.10
 -11   9  -2    0.80    1.00
  11  -9   2    1.50    0.60
 -12   9  -2   -0.10    0.90
 -12   9  -2    0.80    0.90
  12  -9   2    0.20    0.60
 -13   9  -2   13.10    2.40
 -14   9  -2  485.65   14.70
 -15   9  -2   39.00    3.10
 -16   9  -2   17.20    3.10
 -13  -8   2  205.88    7.00
 -12  -8   2  310.27   10.10
 -11  -8   2    2.50    1.20
 -10  -8   2    5.70    0.70
  -9  -8   2  421.06   13.00
  -9  -8   2  428.96   12.40
  -8  -8   2   41.60    1.90
  -8  -8   2   43.00    2.60
  -7  -8   2  320.57    9.30
  -7  -8   2  315.87    9.90
  -6  -8   2  188.68    5.70
  -6  -8   2  193.78    6.40
  -5  -8   2  602.94   17.50
  -5  -8   2  580.34   16.80
  -4  -8   2  403.46   11.60
  -4  -8   2  410.86   12.30
   3   8  -2  329.57    9.50
  -3  -8   2  333.67   10.10
  -3  -8   2  329.27    9.50
   2   8  -2  402.46   11.60
  -2  -8   2  417.06   12.20
  -2  -8   2  398.66   11.50
   1   8  -2  379.46   11.40
   1   8  -2  364.06   10.60
  -1  -8   2  388.46   11.30
  -1  -8   2  360.96   10.60
   0   8  -2   74.79    2.20
   0   8  -2   71.89    3.10
   0  -8   2   72.39    2.30
  -1   8  -2  145.49    4.20
  -1   8  -2  144.29    5.00
   1  -8   2  148.49    4.30
   1  -8   2  142.59    5.20
  -2   8  -2  205.58    6.60
  -2   8  -2  207.08    6.00
   2  -8   2  204.68    6.00
   2  -8   2  210.18    6.50
  -3   8  -2   76.09    3.10
  -3   8  -2   79.39    2.50
   3  -8   2   75.79    2.90
   3  -8   2   75.49    2.50
  -4   8  -2  171.48    5.70
  -4   8  -2  174.48    5.20
   4  -8   2  175.28    5.20
   4  -8   2  175.88    5.60
  -5   8  -2  196.48    6.50
  -5   8  -2  201.88    6.10
   5  -8   2  207.48    6.00
   5  -8   2  201.98    6.30
  -6   8  -2  488.25   14.30
  -6   8  -2  499.85   14.60
   6  -8   2  497.75   14.40
   6  -8   2  496.85   14.20
  -7   8  -2   90.09    3.50
  -7   8  -2   89.49    3.20
   7  -8   2   92.49    3.20
  -8   8  -2  492.15   14.30
  -8   8  -2  491.05   14.50
   8  -8   2  489.75   14.20
  -9   8  -2   -0.20    0.70
  -9   8  -2    0.10    0.60
   9  -8   2   -0.10    0.50
 -10   8  -2  582.74   16.80
 -10   8  -2  568.04   16.80
  10  -8   2  571.14   16.50
 -11   8  -2  158.88    5.30
  11  -8   2  156.58    4.90
 -12   8  -2   69.09    3.30
 -13   8  -2    6.40    1.10
 -14   8  -2    1.60    1.00
 -15   8  -2   19.20    2.70
 -16   8  -2    2.50    1.20
 -14  -7   2   13.30    2.30
 -12  -7   2  147.39    5.70
 -11  -7   2    0.70    1.00
 -10  -7   2   73.19    3.50
 -10  -7   2   73.19    2.80
  -9  -7   2   95.99    3.20
  -9  -7   2   89.49    3.80
  -8  -7   2 1363.66   38.90
  -8  -7   2 1384.66   39.30
  -7  -7   2   11.20    1.00
  -7  -7   2    9.60    1.70
  -6  -7   2   48.40    2.40
  -6  -7   2   49.90    1.80
  -5  -7   2  337.77    9.90
  -5  -7   2  311.47    9.40
  -4  -7   2  296.87    8.40
  -4  -7   2  283.37    9.30
   3   7  -2   98.89    3.10
  -3  -7   2   97.09    3.00
  -3  -7   2  102.39    3.70
   2   7  -2 1449.15   40.20
  -2  -7   2 1314.67   39.90
  -2  -7   2 1451.35   40.00
   1   7  -2    0.90    0.20
   1   7  -2    2.10    0.60
  -1  -7   2    0.40    0.50
   0   7  -2  559.34   16.60
   0   7  -2  578.44   16.20
   0  -7   2  570.34   16.60
   0  -7   2  567.54   16.10
  -1   7  -2   16.30    1.60
  -1   7  -2   15.40    0.80
   1  -7   2   13.30    1.40
   1  -7   2   17.50    0.90
  -2   7  -2   27.20    1.80
  -2   7  -2   29.30    1.10
   2  -7   2   28.30    1.60
   2  -7   2   28.20    1.20
  -3   7  -2   45.10    2.30
  -3   7  -2   47.90    1.70
   3  -7   2   45.40    1.70
   3  -7   2   46.10    2.10
  -4   7  -2 1261.17   37.10
  -4   7  -2 1340.77   37.10
   4  -7   2 1342.07   37.00
   4  -7   2 1283.47   37.00
  -5   7  -2  132.19    4.20
  -5   7  -2  131.09    4.50
   5  -7   2  137.09    4.10
   5  -7   2  133.69    4.30
  -6   7  -2   28.30    1.60
  -6   7  -2   27.50    1.80
   6  -7   2   31.20    1.40
   6  -7   2   30.20    1.60
  -7   7  -2   15.90    1.60
  -7   7  -2   16.10    1.40
   7  -7   2   17.30    1.30
   7  -7   2   15.70    1.40
  -8   7  -2  155.88    5.00
  -8   7  -2  153.58    5.00
   8  -7   2  152.78    4.80
  -9   7  -2   55.89    2.50
  -9   7  -2   54.49    2.50
   9  -7   2   54.59    2.10
 -10   7  -2   14.40    1.90
  10  -7   2   14.40    1.20
 -11   7  -2    7.80    1.40
 -12   7  -2  114.49    4.40
 -13   7  -2  296.87    9.40
 -14   7  -2    1.80    1.00
 -15   7  -2   -0.20    1.10
 -16   7  -2  254.57    8.70
 -14  -6   2  247.18    8.20
 -13  -6   2   46.50    3.50
 -12  -6   2  107.49    4.50
 -11  -6   2  326.87    9.90
 -11  -6   2  330.47   10.20
 -10  -6   2  786.12   22.70
 -10  -6   2  773.52   22.40
  -9  -6   2   88.79    3.70
  -9  -6   2   99.79    3.30
  -8  -6   2    6.70    0.90
  -8  -6   2    5.60    0.90
  -7  -6   2  266.97    9.00
  -7  -6   2  294.17    8.30
  -6  -6   2  515.85   15.20
  -6  -6   2  515.15   14.80
  -5  -6   2  183.98    6.00
  -5  -6   2  186.68    5.50
  -4  -6   2   84.39    2.70
  -4  -6   2   85.19    3.20
   3   6  -2  879.91   24.60
  -3  -6   2  854.81   24.40
  -3  -6   2  813.12   24.40
   2   6  -2  978.30   27.70
  -2  -6   2  943.91   27.70
  -2  -6   2  980.60   27.70
   1   6  -2   27.00    1.70
   1   6  -2   33.60    1.10
  -1  -6   2   32.40    1.10
  -1  -6   2   30.70    1.70
   0   6  -2    9.70    0.60
   0   6  -2    9.50    1.20
   0  -6   2   10.80    0.60
   0  -6   2   11.10    1.10
  -1   6  -2  162.48    5.20
  -1   6  -2  164.38    4.70
   1  -6   2  156.78    4.90
   1  -6   2  160.58    5.10
  -2   6  -2 1028.20   28.50
  -2   6  -2  972.40   28.60
   2  -6   2  971.10   28.50
   2  -6   2 1040.00   28.60
  -3   6  -2  107.59    3.30
  -3   6  -2  103.09    3.60
   3  -6   2  108.49    3.50
   3  -6   2  102.69    3.20
  -4   6  -2   46.50    1.80
  -4   6  -2   47.20    2.10
   4  -6   2   46.50    1.70
   4  -6   2   46.30    2.00
  -5   6  -2  262.57    8.10
  -5   6  -2  266.77    8.00
   5  -6   2  274.17    8.00
   5  -6   2  280.07    7.90
  -6   6  -2  327.37    9.80
  -6   6  -2  327.27    9.70
   6  -6   2  338.77    9.70
   6  -6   2  335.47    9.70
  -7   6  -2   30.70    1.70
  -7   6  -2   26.00    1.60
   7  -6   2   29.30    1.40
   7  -6   2   27.40    1.40
  -8   6  -2  294.97    8.90
  -8   6  -2  296.97    8.80
   8  -6   2  298.67    8.60
  -9   6  -2   46.70    2.30
 -10   6  -2  582.04   17.00
 -11   6  -2   56.49    2.80
 -12   6  -2   17.70    2.10
 -13   6  -2   14.00    2.20
 -14   6  -2    0.20    0.90
 -16   6  -2    7.20    1.30
 -15  -5   2   35.60    2.80
 -14  -5   2    2.40    0.90
 -13  -5   2    0.20    1.10
 -12  -5   2    6.00    1.10
 -11  -5   2    6.90    1.00
 -11  -5   2    9.50    1.30
 -10  -5   2  165.58    6.20
 -10  -5   2  183.28    5.50
  -9  -5   2   62.19    2.30
  -9  -5   2   59.49    2.90
  -8  -5   2  259.17    7.60
  -8  -5   2  248.68    7.90
  -7  -5   2    8.10    0.80
  -7  -5   2    8.90    1.40
  -6  -5   2   10.40    1.30
  -6  -5   2   11.90    0.80
  -5  -5   2  131.19    4.40
  -5  -5   2  127.89    3.90
  -4  -5   2   15.90    0.80
  -4  -5   2   16.70    1.40
   3   5  -2  643.24   18.60
  -3  -5   2  632.74   18.50
  -3  -5   2  646.64   18.60
   2   5  -2 1028.20   29.00
  -2  -5   2  966.80   28.70
  -2  -5   2 1032.20   28.80
   1   5  -2  871.51   24.60
  -1  -5   2  812.12   24.60
  -1  -5   2  897.81   24.80
   0   5  -2  258.37    7.60
   0   5  -2  271.77    8.00
   0  -5   2  268.37    7.90
   0  -5   2  266.47    7.60
  -1   5  -2   22.90    0.90
  -1   5  -2   21.90    1.30
   1  -5   2   25.10    0.90
   1  -5   2   23.20    1.30
  -2   5  -2  161.68    5.00
  -2   5  -2  164.18    4.70
   2  -5   2  152.78    4.90
   2  -5   2  165.98    4.80
  -3   5  -2   56.09    1.90
  -3   5  -2   53.49    2.10
   3  -5   2   51.79    2.00
   3  -5   2   52.19    1.80
  -4   5  -2   13.40    1.20
  -4   5  -2   13.00    1.00
   4  -5   2   12.60    1.00
   4  -5   2   12.90    0.90
  -5   5  -2  362.46   10.60
  -5   5  -2  359.16   10.60
   5  -5   2  366.86   10.50
   5  -5   2  370.86   10.50
  -6   5  -2  480.55   14.00
  -6   5  -2  484.05   14.00
   6  -5   2  495.45   14.00
   6  -5   2  486.15   13.90
  -7   5  -2    2.00    0.50
  -8   5  -2  242.88    7.40
  -9   5  -2  584.24   17.00
 -10   5  -2  822.72   23.70
 -11   5  -2  284.77    8.80
 -12   5  -2    5.60    0.90
 -13   5  -2  126.79    4.80
 -14   5  -2   29.60    2.70
 -15   5  -2    3.30    1.20
 -16   5  -2    1.60    1.00
 -15  -4   2   48.60    3.10
 -14  -4   2   11.40    2.00
 -13  -4   2  234.48    7.60
 -12  -4   2  527.35   15.60
 -11  -4   2  118.69    4.40
 -11  -4   2  124.39    4.10
 -10  -4   2   39.60    2.30
 -10  -4   2   37.30    1.80
  -9  -4   2    4.30    0.70
  -9  -4   2    2.70    0.50
  -8  -4   2  221.58    6.90
  -8  -4   2  222.98    6.70
  -7  -4   2   23.80    1.60
  -7  -4   2   22.90    1.20
  -6  -4   2   12.10    0.90
  -6  -4   2   10.50    1.20
  -5  -4   2  254.47    7.20
  -5  -4   2  242.78    7.50
   4   4  -2 1996.10   57.79
  -4  -4   2 2001.20   57.59
  -4  -4   2 2064.19   57.49
   3   4  -2   42.30    1.40
  -3  -4   2   42.40    1.40
  -3  -4   2   45.20    1.80
   2   4  -2  222.08    6.50
  -2  -4   2  221.98    6.50
  -2  -4   2  235.98    6.80
   1   4  -2    1.00    0.20
  -1  -4   2    1.60    0.40
   0   4  -2  468.95   13.30
   0  -4   2  443.86   13.30
   0  -4   2  474.35   13.20
  -1   4  -2  384.86   11.10
  -1   4  -2  380.46   10.90
   1  -4   2  382.86   11.10
   1  -4   2  384.16   10.90
  -2   4  -2 1998.40   55.89
  -2   4  -2 1923.91   55.79
   2  -4   2 1970.40   56.19
  -3   4  -2  554.74   15.70
  -3   4  -2  546.05   15.80
   3  -4   2  544.15   15.80
   3  -4   2  570.54   15.70
  -4   4  -2  291.97    8.70
  -4   4  -2  299.47    8.70
   4  -4   2  302.27    8.60
   4  -4   2  300.37    8.60
  -5   4  -2  342.47   10.10
  -5   4  -2  340.87   10.10
   5  -4   2  352.26   10.00
   5  -4   2  359.26   10.10
  -6   4  -2  166.28    5.20
   6  -4   2  168.68    5.10
  -7   4  -2  502.45   14.50
  -8   4  -2   42.70    2.00
  -9   4  -2    9.50    1.40
 -10   4  -2    4.70    0.80
 -11   4  -2   10.30    1.80
 -12   4  -2   87.59    3.70
 -13   4  -2    0.80    0.90
 -14   4  -2   28.60    2.70
 -15   4  -2   55.29    3.30
 -16   4  -2    1.10    1.10
 -16  -3   2    1.40    1.10
 -15  -3   2  211.38    7.20
 -14  -3   2  149.79    5.40
 -12  -3   2  259.77    7.90
 -12  -3   2  256.27    8.10
 -11  -3   2   61.59    2.40
 -11  -3   2   59.99    2.80
 -10  -3   2   89.09    3.40
 -10  -3   2   90.79    3.10
  -9  -3   2   33.20    1.90
  -9  -3   2   33.00    1.50
  -8  -3   2  128.69    4.00
  -8  -3   2  124.39    4.20
  -7  -3   2  338.17    9.80
  -6  -3   2   21.70    1.00
  -5  -3   2  246.18    7.20
   4   3  -2  964.90   28.00
  -4  -3   2  967.20   27.70
   3   3  -2   95.19    2.90
  -3  -3   2   95.19    2.80
   2   3  -2  683.83   19.80
  -2  -3   2  691.13   19.90
   1   3  -2  492.15   14.30
  -1  -3   2  495.75   14.30
   0   3  -2  141.89    4.20
   0  -3   2  142.79    4.40
   0  -3   2  146.39    4.20
  -1   3  -2  194.18    5.60
   1  -3   2  194.68    5.60
   1  -3   2  189.88    5.70
  -2   3  -2  271.17    7.60
   2  -3   2  252.27    7.60
   2  -3   2  263.07    7.60
  -3   3  -2  530.75   15.00
   3  -3   2  516.35   15.00
   3  -3   2  540.65   15.00
  -4   3  -2   31.10    1.30
   4  -3   2   31.10    1.30
  -5   3  -2  453.05   13.30
   5  -3   2  470.95   13.30
  -6   3  -2  147.79    4.60
  -7   3  -2 1024.70   29.10
  -8   3  -2  129.99    4.30
  -9   3  -2   45.40    2.30
 -10   3  -2    9.60    1.70
 -11   3  -2   39.80    2.50
 -12   3  -2  203.78    6.80
 -13   3  -2  218.98    7.30
 -14   3  -2    9.60    1.20
 -15   3  -2  110.29    4.70
 -16  -2   2   18.10    2.40
 -15  -2   2  360.26   11.30
 -14  -2   2  128.69    4.80
 -12  -2   2   23.60    1.60
 -12  -2   2   24.80    2.10
 -11  -2   2  311.27    9.50
 -11  -2   2  318.97    9.40
 -10  -2   2  452.95   13.20
  -9  -2   2    8.30    0.90
  -8  -2   2    2.50    0.40
  -7  -2   2  254.77    7.70
  -6  -2   2  198.68    5.90
  -5  -2   2   49.99    1.70
  -4  -2   2   11.90    0.60
   3   2  -2  201.58    5.80
  -3  -2   2  200.28    5.80
   2   2  -2  704.53   20.30
  -2  -2   2  710.13   20.30
   1   2  -2  219.68    6.60
  -1  -2   2  235.98    6.70
   0  -2   2 2723.63   76.79
  -1   2  -2    5.10    0.60
   2  -2   2  394.96   11.70
   2  -2   2  430.26   11.80
  -3   2  -2 1701.93   48.30
   3  -2   2 1683.23   48.20
  -4   2  -2 1278.37   37.20
   4  -2   2 1317.97   37.20
  -5   2  -2  420.56   12.30
   5  -2   2  434.26   12.30
  -6   2  -2  782.92   22.30
  -7   2  -2    7.60    1.20
  -8   2  -2  149.39    4.80
  -9   2  -2  492.45   14.40
 -10   2  -2  147.89    5.20
 -11   2  -2    2.40    0.80
 -12   2  -2   51.29    2.90
 -13   2  -2    2.50    0.90
 -14   2  -2    0.90    1.00
 -15   2  -2   18.60    2.60
 -16  -1   2   34.30    2.70
 -15  -1   2   22.40    2.40
 -14  -1   2   -0.10    0.80
 -13  -1   2    6.80    1.30
 -12  -1   2  200.38    6.30
 -11  -1   2   20.00    1.40
  -9  -1   2  192.78    5.90
  -8  -1   2  364.26   10.60
  -7  -1   2  635.74   18.10
  -6  -1   2  112.39    3.50
  -5  -1   2  675.53   19.40
  -4  -1   2    2.40    0.40
   3   1  -2 2394.36   69.59
  -3  -1   2 2526.35   69.59
   2   1  -2 1783.32   49.90
  -2  -1   2 1750.52   49.90
   0   1  -2   16.10    0.60
  -1   1  -2   53.49    1.70
   1  -1   2   54.39    1.70
  -2   1  -2  910.51   26.00
   2  -1   2  904.51   26.60
  -3   1  -2  402.56   11.60
   3  -1   2  405.96   11.50
  -4   1  -2  199.98    6.00
   4  -1   2  203.88    6.00
  -5   1  -2  692.83   19.70
  -6   1  -2 2101.79   59.89
  -7   1  -2   33.90    1.70
  -8   1  -2   72.39    2.80
  -9   1  -2  153.68    5.10
 -10   1  -2   16.90    2.40
 -11   1  -2    5.50    0.90
 -12   1  -2    6.40    1.00
 -13   1  -2  379.36   11.80
 -14   1  -2  174.18    6.30
 -15   1  -2    0.00    1.00
 -17   0   2   70.69    5.10
 -16   0   2  148.79    5.60
 -15   0   2   48.00    2.90
 -14   0   2    7.80    1.00
 -13   0   2  115.99    4.20
 -13   0   2  109.89    3.90
 -12   0   2   37.20    1.90
 -11   0   2  249.58    7.20
 -11   0   2  241.68    7.40
 -10   0   2   15.90    1.20
  -9   0   2 1127.19   31.90
  -7   0   2   -0.30    0.30
  -6   0   2   41.30    1.50
  -5   0   2    7.50    0.60
   3   0  -2    0.30    0.10
  -3   0   2    0.50    0.20
   2   0  -2  223.28    6.80
  -2   0   2  242.68    6.70
  -1   0   2 1445.96   41.10
  -1   0  -2   37.10    1.30
   1   0   2   37.20    1.30
   1   0   2   38.90    1.10
  -2   0  -2   98.69    3.00
   2   0   2  102.29    3.20
  -3   0  -2  658.13   19.10
   3   0   2  694.43   19.30
  -4   0  -2  570.54   16.30
  -5   0  -2  532.05   15.30
  -6   0  -2   26.30    1.50
  -7   0  -2  359.26   10.60
  -8   0  -2  530.25   15.40
  -9   0  -2  158.18    5.20
 -10   0  -2  347.27   10.50
 -11   0  -2   62.19    3.00
 -12   0  -2   48.80    2.80
 -13   0  -2    3.50    1.00
 -14   0  -2    7.80    1.30
 -15   0  -2   82.99    4.10
 -17   1   2    8.80    1.20
 -16   1   2    5.70    1.10
 -15   1   2  182.98    6.30
 -14   1   2   14.30    2.00
 -13   1   2  251.37    8.00
 -13   1   2  249.88    7.70
 -12   1   2  105.89    3.70
 -10   1   2  188.68    5.60
  -9   1   2   47.50    1.70
  -8   1   2   17.90    0.90
  -7   1   2  213.88    6.20
  -6   1   2   20.60    0.90
  -5   1   2  986.90   28.00
  -5   1   2  972.80   28.00
  -4   1   2  177.88    5.10
  -4   1   2  161.28    4.90
   2  -1  -2  493.45   14.30
  -2   1   2  494.25   14.30
  -2   1   2  524.25   14.70
   1  -1  -2 1817.02   51.59
  -1   1   2 1858.01   51.69
   0  -1  -2  388.06   10.90
   0  -1  -2  358.36   10.60
   0   1   2  375.66   10.90
   0   1   2  369.66   10.60
  -1  -1  -2  903.31   26.60
  -1  -1  -2  963.90   26.80
   1   1   2  947.71   26.80
   1   1   2  928.61   26.60
  -2  -1  -2 1088.89   30.50
  -2  -1  -2 1062.29   30.70
   2   1   2 1090.09   30.60
   2   1   2 1035.60   30.30
  -3  -1  -2  421.06   12.00
  -4  -1  -2    0.50    0.30
  -5  -1  -2   78.39    2.70
  -6  -1  -2    0.50    0.40
  -7  -1  -2 1786.12   50.39
  -8  -1  -2   45.20    2.10
  -9  -1  -2   78.39    3.10
 -10  -1  -2    5.30    0.80
 -11  -1  -2  200.18    6.60
 -12  -1  -2  126.99    4.80
 -13  -1  -2    3.40    0.90
 -14  -1  -2   37.60    3.00
 -15  -1  -2   64.99    5.10
 -17   2   2    1.70    1.00
 -16   2   2    1.80    0.90
 -15   2   2  124.09    4.80
 -14   2   2  423.96   12.80
 -13   2   2  398.56   12.00
 -13   2   2  395.86   11.80
 -11   2   2  199.38    5.90
 -10   2   2  370.56   10.70
  -9   2   2   15.20    1.00
  -8   2   2    0.80    0.30
  -7   2   2 1124.69   32.00
  -6   2   2 1654.93   47.10
   4  -2  -2 1840.02   50.39
  -4   2   2 1780.92   50.09
  -4   2   2 1681.73   50.29
   3  -2  -2 3477.05   95.99
  -3   2   2 3320.27   96.09
   2  -2  -2 3224.18   90.09
  -2   2   2 3141.19   90.19
   0  -2  -2 4299.47  122.69
   0   2   2 4395.86  122.89
  -1  -2  -2 4200.78  118.39
  -1  -2  -2 4265.17  118.89
   1   2   2 4148.29  118.89
  -2  -2  -2   47.60    1.60
  -2  -2  -2   48.60    1.60
   2   2   2   43.90    1.60
  -3  -2  -2  223.48    6.40
  -3  -2  -2  218.18    6.40
   3   2   2  218.28    6.50
  -4  -2  -2  395.26   11.50
  -4  -2  -2  409.26   11.40
   4   2   2  396.06   11.50
  -5  -2  -2 4241.48  120.29
  -6  -2  -2  823.32   23.50
  -7  -2  -2  380.96   11.20
  -8  -2  -2   28.50    1.80
  -9  -2  -2   46.80    2.40
 -10  -2  -2   44.60    2.50
 -11  -2  -2  188.28    6.30
 -12  -2  -2   -0.50    0.80
 -13  -2  -2   58.09    3.20
 -14  -2  -2   37.10    3.00
 -17   3   2   55.09    3.50
 -16   3   2   67.39    3.50
 -15   3   2   15.60    2.20
 -14   3   2   15.20    2.00
 -14   3   2   13.30    1.50
 -13   3   2  186.48    6.20
 -12   3   2  183.38    6.00
 -11   3   2   14.00    1.50
 -11   3   2   17.30    1.20
 -10   3   2  169.88    5.20
  -9   3   2  520.45   14.90
  -8   3   2  425.56   12.20
  -7   3   2  737.63   20.90
   6  -3  -2  321.87    9.10
  -6   3   2  309.17    9.20
   5  -3  -2 7797.52  216.68
  -5   3   2 7614.94  217.08
   4  -3  -2  119.99    3.50
  -4   3   2  110.69    3.50
   3  -3  -2 1842.12   51.49
  -3   3   2 1768.42   50.59
  -3   3   2 1788.82   51.69
   2  -3  -2  542.25   15.70
   1  -3  -2 2063.99   58.89
  -1   3   2 2027.90   58.59
   0  -3  -2 1120.79   31.80
   0  -3  -2 1032.70   30.70
   0   3   2 1104.29   31.20
  -1  -3  -2 1492.45   42.60
  -1  -3  -2 1515.75   42.90
   1   3   2 1485.95   42.80
  -2  -3  -2  188.98    5.60
  -2  -3  -2  196.58    5.70
   2   3   2  186.28    5.70
  -3  -3  -2  425.16   12.20
  -3  -3  -2  426.06   12.20
   3   3   2  424.66   12.30
  -4  -3  -2 1620.54   45.50
  -4  -3  -2 1648.14   45.50
   4   3   2 1521.55   45.00
  -5  -3  -2 1250.47   34.80
  -5  -3  -2 1186.98   34.40
  -6  -3  -2   52.89    2.20
  -6  -3  -2   55.29    2.00
  -7  -3  -2    2.40    0.60
  -8  -3  -2   24.90    1.70
  -9  -3  -2   21.60    2.40
 -10  -3  -2    0.10    0.80
 -11  -3  -2   42.10    2.60
 -12  -3  -2   90.59    3.90
 -13  -3  -2   54.89    3.20
 -14  -3  -2    1.60    1.10
 -17   4   2  291.47    9.50
 -16   4   2  104.59    4.50
 -15   4   2   20.10    2.40
 -14   4   2   -0.10    0.70
 -13   4   2  168.48    5.70
 -12   4   2    6.10    0.70
 -12   4   2    6.10    0.80
 -11   4   2    7.40    1.30
 -11   4   2    8.60    1.40
 -10   4   2 1474.55   42.50
 -10   4   2 1529.75   42.40
  -9   4   2  234.98    7.10
  -9   4   2  232.88    7.00
   8  -4  -2  242.48    7.10
  -8   4   2  239.68    7.20
   7  -4  -2  178.68    5.20
  -7   4   2  170.78    5.30
   6  -4  -2   13.80    0.90
  -6   4   2   15.90    1.10
   5  -4  -2 1309.07   35.60
  -5   4   2 1184.58   35.20
   4  -4  -2  121.09    3.70
  -4   4   2  116.49    3.70
   3  -4  -2  838.22   23.30
  -3   4   2  776.42   23.00
   2  -4  -2 5040.80  142.29
  -2   4   2 5000.20  142.59
  -1   4   2 9999.00  282.07
   0  -4  -2 5262.77  151.18
   0   4   2 5406.56  151.48
  -1  -4  -2  476.65   13.70
  -1  -4  -2  466.45   13.50
   1   4   2  482.85   13.80
  -2  -4  -2   51.09    1.70
  -2  -4  -2   53.29    1.90
   2   4   2   47.90    2.10
  -3  -4  -2  289.17    8.40
  -3  -4  -2  286.77    8.50
   3   4   2  286.67    8.60
  -4  -4  -2 2392.46   66.29
  -4  -4  -2 2381.86   66.09
   4   4   2 2184.38   65.29
  -5  -4  -2    1.10    0.40
  -5  -4  -2    0.10    0.40
   5   4   2   -0.40    0.50
  -6  -4  -2   85.29    2.90
  -6  -4  -2   83.59    3.00
  -7  -4  -2  390.86   11.80
  -7  -4  -2  407.56   11.70
  -8  -4  -2  306.07    9.40
  -8  -4  -2  316.87    9.20
  -9  -4  -2  118.59    4.30
 -10  -4  -2  207.18    6.80
 -11  -4  -2  464.35   14.00
 -12  -4  -2    1.10    0.90
 -13  -4  -2   17.20    2.40
 -17   5   2   25.60    2.80
 -16   5   2   56.19    3.30
 -15   5   2   61.09    3.20
 -14   5   2  114.99    4.40
 -13   5   2   12.30    1.80
 -13   5   2   10.50    1.80
 -12   5   2  339.17    9.90
 -12   5   2  324.27   10.00
 -11   5   2  571.84   16.90
 -11   5   2  597.44   16.90
 -10   5   2   20.80    1.50
 -10   5   2   19.10    1.50
   9  -5  -2  165.48    5.10
  -9   5   2  169.38    5.30
  -9   5   2  174.78    5.30
   8  -5  -2  363.46   10.40
  -8   5   2  362.66   10.60
  -8   5   2  350.46   10.40
   7  -5  -2  372.56   10.60
  -7   5   2  364.76   10.60
  -7   5   2  366.66   10.80
   6  -5  -2  755.72   21.20
  -6   5   2  756.22   21.30
  -6   5   2  721.93   21.00
   5  -5  -2  544.65   15.30
  -5   5   2  545.05   15.40
  -5   5   2  514.55   15.10
   4  -5  -2  286.87    8.20
  -4   5   2  256.97    7.90
  -4   5   2  286.77    8.30
   3  -5  -2  299.17    8.90
  -3   5   2  303.37    9.00
   2  -5  -2  717.73   20.70
  -2   5   2  731.93   20.80
   1  -5  -2 1210.38   33.70
  -1   5   2 1133.79   33.20
   0  -5  -2   44.90    1.80
   0  -5  -2   40.80    1.40
   0   5   2   44.10    2.00
  -1  -5  -2    2.90    0.50
  -1  -5  -2    2.00    0.30
   1   5   2    3.40    0.60
  -2  -5  -2   13.50    0.90
  -2  -5  -2   14.10    1.20
   2   5   2   13.00    1.50
  -3  -5  -2   72.89    2.70
  -3  -5  -2   73.89    2.50
   3   5   2   73.89    2.90
  -4  -5  -2   27.20    1.50
  -4  -5  -2   23.70    1.30
   4   5   2   25.00    1.80
  -5  -5  -2  446.76   13.00
  -5  -5  -2  435.96   12.90
   5   5   2  448.36   13.10
  -6  -5  -2  171.98    5.50
  -6  -5  -2  181.28    5.60
  -7  -5  -2  760.52   21.50
  -7  -5  -2  736.93   21.50
  -8  -5  -2   13.40    1.70
  -8  -5  -2   14.60    1.70
  -9  -5  -2    6.90    0.80
  -9  -5  -2    6.30    0.90
 -10  -5  -2   15.30    1.50
 -10  -5  -2   16.80    2.00
 -11  -5  -2  148.79    5.40
 -12  -5  -2  134.49    5.10
 -13  -5  -2  123.19    5.00
 -17   6   2    1.30    1.10
 -16   6   2    6.50    1.10
 -15   6   2   32.80    2.60
 -14   6   2  175.28    5.80
 -14   6   2  171.78    5.90
 -13   6   2  337.47    9.70
 -13   6   2  292.47   10.00
 -12   6   2   13.10    1.90
 -12   6   2   11.30    1.80
 -11   6   2  257.47    7.80
 -11   6   2  247.48    7.70
  10  -6  -2  306.27    9.00
 -10   6   2  304.57    9.20
 -10   6   2  313.17    9.30
   9  -6  -2    9.20    1.20
  -9   6   2    8.60    1.20
  -9   6   2    8.70    1.40
   8  -6  -2   70.49    2.50
  -8   6   2   68.89    2.70
  -8   6   2   68.49    2.50
   7  -6  -2   49.80    2.00
  -7   6   2   44.50    1.80
  -7   6   2   49.99    2.20
   6  -6  -2  414.36   11.70
  -6   6   2  404.06   11.90
  -6   6   2  388.66   11.50
   5  -6  -2   67.89    2.40
  -5   6   2   65.79    2.10
  -5   6   2   66.39    2.60
   4  -6  -2  678.83   19.40
  -4   6   2  675.13   19.50
   3  -6  -2  764.82   21.60
  -3   6   2  742.03   21.70
  -2   6   2    4.20    0.60
   1  -6  -2  294.17    8.80
   0  -6  -2  447.76   12.70
   0  -6  -2  445.26   12.70
   0  -6  -2  449.56   13.10
   0   6   2  458.55   13.30
  -1  -6  -2 5121.19  144.89
  -1  -6  -2 5152.68  144.89
  -1  -6  -2 5285.67  146.59
   1   6   2 5039.40  146.49
  -2  -6  -2  219.18    6.40
  -2  -6  -2  222.08    6.50
  -2  -6  -2  229.08    6.80
   2   6   2  217.78    7.00
  -3  -6  -2  126.79    4.20
  -3  -6  -2  125.49    3.90
   3   6   2  128.59    4.40
  -4  -6  -2    0.50    0.50
  -4  -6  -2    0.40    0.40
   4   6   2    0.30    0.70
  -5  -6  -2  741.53   21.60
  -5  -6  -2  761.32   21.80
   5   6   2  766.52   21.90
  -6  -6  -2  111.29    3.90
  -6  -6  -2  117.99    4.00
  -7  -6  -2  152.18    5.10
  -7  -6  -2  157.88    5.20
  -7  -6  -2  152.18    4.90
  -8  -6  -2  322.57    9.60
  -9  -6  -2  325.47    9.90
  -9  -6  -2  323.87    9.80
 -10  -6  -2   37.30    2.50
 -11  -6  -2  334.47   10.50
 -12  -6  -2   -1.20    1.00
 -17   7   2  191.88    6.90
 -16   7   2   72.09    3.80
 -15   7   2    8.40    1.30
 -15   7   2   13.70    2.30
 -14   7   2   61.39    3.10
 -14   7   2   63.29    3.30
 -13   7   2  257.77    8.00
 -13   7   2  239.38    8.40
 -12   7   2  188.38    6.10
 -12   7   2  189.48    6.30
  11  -7  -2  106.09    3.90
 -11   7   2  101.09    3.70
 -11   7   2  106.99    4.00
  10  -7  -2  571.14   16.70
 -10   7   2  572.44   16.70
 -10   7   2  597.74   17.00
   9  -7  -2  527.25   15.00
  -9   7   2  519.85   15.20
  -9   7   2  506.75   14.90
   8  -7  -2  606.64   16.90
  -8   7   2  557.84   16.70
  -8   7   2  590.34   17.10
   7  -7  -2    2.70    0.50
  -7   7   2    2.50    0.70
  -7   7   2    2.90    0.40
   6  -7  -2  181.18    5.60
  -6   7   2  179.78    5.80
  -6   7   2  172.98    5.20
   5  -7  -2  535.45   15.10
  -5   7   2  526.85   15.20
  -5   7   2  495.75   14.70
   4  -7  -2   11.10    1.20
  -4   7   2   10.50    1.50
   3  -7  -2    1.50    0.40
  -3   7   2    0.60    0.60
   2  -7  -2 1288.87   35.80
  -2   7   2 1232.68   35.90
   1  -7  -2 2278.07   60.69
  -1   7   2 1943.31   59.59
   0  -7  -2    0.30    0.50
   0  -7  -2   -0.40    0.20
   0  -7  -2   -0.30    0.20
   0   7   2   -0.30    0.60
  -1  -7  -2  546.95   15.60
  -1  -7  -2  544.75   15.70
   1   7   2  568.24   16.30
  -2  -7  -2  274.77    8.10
  -2  -7  -2  273.67    9.00
  -2  -7  -2  278.77    8.10
   2   7   2  293.57    8.70
  -3  -7  -2   59.09    2.20
  -3  -7  -2   62.99    2.60
  -3  -7  -2   60.99    2.10
   3   7   2   62.09    2.80
  -4  -7  -2    0.60    0.50
  -4  -7  -2    1.60    0.50
   4   7   2    0.00    0.70
  -5  -7  -2   -0.10    0.50
  -5  -7  -2    0.70    0.50
   5   7   2   -1.10    0.80
  -6  -7  -2   -0.50    0.50
  -6  -7  -2    0.70    0.60
  -6  -7  -2    0.70    0.40
  -7  -7  -2  108.89    3.90
  -7  -7  -2  105.29    3.60
  -7  -7  -2  108.79    4.10
  -8  -7  -2  448.36   13.50
  -8  -7  -2  466.75   13.50
  -8  -7  -2  446.66   13.30
  -9  -7  -2    4.60    0.70
  -9  -7  -2    5.10    0.90
  -9  -7  -2    3.80    1.00
 -10  -7  -2   35.40    2.70
 -10  -7  -2   37.30    2.60
 -11  -7  -2   63.29    3.40
 -12  -7  -2    5.60    1.10
 -17   8   2    2.20    1.20
 -16   8   2   13.10    1.60
 -15   8   2    8.20    1.20
 -15   8   2    6.60    1.40
 -14   8   2    5.50    1.20
 -14   8   2    4.40    1.00
 -13   8   2   44.10    2.70
 -13   8   2   46.80    3.00
  12  -8  -2   92.29    3.40
 -12   8   2   97.19    4.00
 -12   8   2   94.59    3.70
  11  -8  -2  580.04   16.60
 -11   8   2  582.14   17.00
 -11   8   2  565.04   16.70
  10  -8  -2  105.89    3.60
 -10   8   2  100.69    4.00
 -10   8   2  100.69    3.50
   9  -8  -2  135.59    4.30
  -9   8   2  122.99    4.10
  -9   8   2  127.79    4.60
   8  -8  -2    3.20    0.60
  -8   8   2    1.90    0.70
  -8   8   2    2.10    0.50
   7  -8  -2    9.70    1.30
  -7   8   2    6.40    1.00
  -7   8   2    7.50    1.00
   6  -8  -2   10.70    1.30
  -6   8   2    9.90    1.60
  -6   8   2    7.60    0.80
   5  -8  -2   23.10    1.50
  -5   8   2   19.80    1.70
   4  -8  -2  129.29    4.30
  -4   8   2  128.09    4.50
  -3   8   2   52.29    2.50
   2  -8  -2  814.22   23.00
  -2   8   2  784.22   23.20
   1  -8  -2 1568.44   44.50
  -1   8   2 1565.44   44.60
   0  -8  -2  685.73   20.00
   0  -8  -2  720.83   20.00
   0  -8  -2  721.83   20.60
   0   8   2  709.93   20.70
  -1  -8  -2   13.10    0.70
  -1  -8  -2   12.50    0.80
  -1  -8  -2   12.50    1.30
   1   8   2   12.20    1.70
  -2  -8  -2  614.74   17.70
  -2  -8  -2  594.44   17.10
  -2  -8  -2  592.04   17.20
   2   8   2  618.74   17.90
  -3  -8  -2  110.89    3.90
  -3  -8  -2  107.29    3.50
  -3  -8  -2  109.49    3.40
   3   8   2  109.49    4.20
  -4  -8  -2   16.90    1.70
  -4  -8  -2   17.30    1.10
  -4  -8  -2   14.40    1.30
   4   8   2   18.80    2.10
  -5  -8  -2    0.50    0.70
  -5  -8  -2    1.00    0.50
  -5  -8  -2    1.40    0.40
   5   8   2    1.60    0.90
  -6  -8  -2  270.97    8.20
  -6  -8  -2  269.67    8.10
  -6  -8  -2  272.97    8.50
  -7  -8  -2  365.36   11.00
  -7  -8  -2  372.96   11.20
  -7  -8  -2  361.86   10.80
  -8  -8  -2  359.66   10.80
  -8  -8  -2  359.56   11.00
  -8  -8  -2  370.66   11.20
  -9  -8  -2   -0.40    0.80
  -9  -8  -2    0.80    0.60
  -9  -8  -2   -0.30    0.90
 -10  -8  -2  215.38    7.10
 -10  -8  -2  208.68    7.30
 -11  -8  -2   72.49    3.70
 -17   9   2   38.60    3.40
 -16   9   2   87.39    4.10
 -16   9   2   89.49    4.70
 -15   9   2  200.78    7.00
 -15   9   2  211.98    7.40
 -14   9   2  198.08    6.90
 -14   9   2  190.98    6.50
  13  -9  -2   22.10    1.90
 -13   9   2   22.60    2.80
 -13   9   2   22.00    2.20
  12  -9  -2  225.78    7.10
 -12   9   2  229.68    7.20
 -12   9   2  235.38    7.70
  11  -9  -2  846.02   23.70
 -11   9   2  836.42   24.10
 -11   9   2  795.62   23.60
  10  -9  -2   57.29    2.50
 -10   9   2   56.39    3.00
 -10   9   2   53.39    2.40
   9  -9  -2   44.50    2.10
  -9   9   2   40.30    2.60
  -9   9   2   42.10    1.90
   8  -9  -2  420.46   11.90
  -8   9   2  388.76   11.60
  -8   9   2  393.66   12.20
   7  -9  -2  675.43   19.70
  -7   9   2  703.93   20.00
  -7   9   2  665.03   19.30
   6  -9  -2    1.40    0.60
  -6   9   2    0.80    0.70
   5  -9  -2  310.27    9.30
  -5   9   2  303.67    9.60
   4  -9  -2  421.36   12.10
  -4   9   2  388.06   12.30
  -3   9   2  605.44   17.90
   2  -9  -2    0.50    0.50
  -2   9   2    0.00    0.70
   1  -9  -2   80.59    3.20
  -1   9   2   83.99    3.60
   0  -9  -2  410.56   11.80
   0  -9  -2  394.46   11.90
   0  -9  -2  429.46   12.50
   0   9   2  433.26   12.70
  -1  -9  -2    8.50    1.40
  -1  -9  -2    7.60    0.60
  -1  -9  -2    8.00    0.80
   1   9   2    5.20    1.00
  -2  -9  -2    8.50    0.90
  -2  -9  -2    7.90    0.70
  -2  -9  -2    7.40    1.40
   2   9   2    6.30    1.00
  -3  -9  -2   29.80    1.30
  -3  -9  -2   32.00    2.00
  -3  -9  -2   29.70    1.50
   3   9   2   29.50    2.50
  -4  -9  -2    1.70    0.40
  -4  -9  -2    1.20    0.50
  -4  -9  -2    0.60    0.70
   4   9   2    0.80    0.90
  -5  -9  -2   18.70    1.50
  -5  -9  -2   17.80    2.00
  -5  -9  -2   17.20    1.20
   5   9   2   19.90    2.50
  -6  -9  -2   55.59    2.50
  -6  -9  -2   53.99    2.20
  -6  -9  -2   53.69    3.00
  -7  -9  -2    1.80    0.90
  -7  -9  -2    3.10    0.60
  -7  -9  -2    2.70    1.40
  -8  -9  -2   61.89    2.90
  -8  -9  -2   59.09    2.50
  -8  -9  -2   60.09    3.40
  -9  -9  -2  112.99    4.70
  -9  -9  -2  108.79    4.30
 -10  -9  -2   58.19    3.30
 -17  10   2   36.00    3.40
 -16  10   2    4.10    1.60
 -16  10   2    7.30    1.30
 -15  10   2    6.10    1.60
  14 -10  -2    1.30    0.80
 -14  10   2    2.60    1.40
  13 -10  -2   21.60    2.00
 -13  10   2   20.20    2.20
 -13  10   2   20.30    3.00
  12 -10  -2    7.00    0.90
 -12  10   2   11.00    1.90
 -12  10   2    6.60    1.30
  11 -10  -2    2.10    0.70
 -11  10   2    3.40    0.80
 -11  10   2    2.00    1.00
  10 -10  -2   12.80    1.80
 -10  10   2   14.10    1.60
 -10  10   2   14.30    2.40
   9 -10  -2    1.50    0.70
  -9  10   2    0.40    0.90
  -9  10   2    1.90    0.60
   8 -10  -2   25.90    1.80
  -8  10   2   21.90    2.20
  -8  10   2   20.90    1.40
   7 -10  -2  138.49    4.70
  -7  10   2  141.69    5.10
  -7  10   2  135.79    4.20
   6 -10  -2    2.00    0.60
  -6  10   2    2.10    0.90
   5 -10  -2   40.50    2.10
  -5  10   2   40.70    2.50
   4 -10  -2   22.30    1.60
  -4  10   2   20.30    2.00
   3 -10  -2  115.39    4.10
  -3  10   2  112.09    4.40
   2 -10  -2    2.30    0.60
  -2  10   2    1.60    0.70
   1 -10  -2  297.07    9.00
  -1  10   2  278.87    9.20
   0 -10  -2  783.52   22.60
   0 -10  -2  755.52   21.80
   0 -10  -2  770.12   21.90
   0  10   2  798.42   22.90
  -1 -10  -2  112.39    3.40
  -1 -10  -2  110.79    4.10
  -1 -10  -2  107.09    3.30
   1  10   2  110.99    4.50
  -2 -10  -2  129.39    4.70
  -2 -10  -2  128.79    4.00
  -2 -10  -2  127.29    3.90
   2  10   2  132.99    5.10
  -3 -10  -2  154.28    5.40
  -3 -10  -2  152.48    4.80
  -3 -10  -2  156.28    4.80
   3  10   2  153.08    5.80
  -4 -10  -2   56.19    2.30
  -4 -10  -2   56.79    2.10
  -4 -10  -2   56.59    2.90
   4  10   2   56.69    3.40
  -5 -10  -2    1.30    0.60
  -5 -10  -2    0.20    0.90
  -5 -10  -2    0.90    0.40
  -6 -10  -2    5.90    0.80
  -6 -10  -2    5.20    1.10
  -6 -10  -2    7.60    1.20
  -7 -10  -2    0.10    0.50
  -7 -10  -2   -1.10    1.00
  -7 -10  -2   -0.20    0.70
  -8 -10  -2  153.08    5.00
  -8 -10  -2  150.18    5.80
  -8 -10  -2  153.18    5.30
  -9 -10  -2  521.15   15.60
  -9 -10  -2  523.75   15.90
 -10 -10  -2    1.20    1.10
 -16  11   2    0.90    1.80
 -16  11   2    3.60    1.30
  15 -11  -2   36.90    2.80
 -15  11   2   49.80    4.30
 -15  11   2   46.60    3.20
  14 -11  -2   43.20    2.70
 -14  11   2   49.60    4.00
 -14  11   2   45.60    3.00
  13 -11  -2  313.77    9.80
 -13  11   2  338.97   10.60
 -13  11   2  315.97    9.80
  12 -11  -2    6.40    0.90
 -12  11   2    7.20    0.90
 -12  11   2    5.00    1.30
  11 -11  -2    3.70    0.80
 -11  11   2    2.00    1.10
 -11  11   2    2.30    0.70
  10 -11  -2   81.79    3.30
 -10  11   2   77.49    3.00
 -10  11   2   75.69    3.90
   9 -11  -2  265.47    8.10
  -9  11   2  248.98    7.70
  -9  11   2  262.87    8.70
   8 -11  -2  632.94   18.80
  -8  11   2  638.64   18.30
  -8  11   2  657.03   19.20
   7 -11  -2  190.88    6.20
  -7  11   2  183.98    6.60
   6 -11  -2   38.40    2.20
  -6  11   2   36.50    2.70
   5 -11  -2   10.40    1.50
  -5  11   2    8.90    1.20
   4 -11  -2    1.70    0.70
  -4  11   2    0.20    0.80
   3 -11  -2  392.26   11.90
  -3  11   2  395.06   12.30
  -2  11   2  199.58    7.00
   1 -11  -2  806.32   23.10
  -1  11   2  778.12   23.40
   0 -11  -2    7.00    0.80
   0 -11  -2    5.80    0.70
   0 -11  -2    4.60    0.80
   0  11   2    3.50    1.20
  -1 -11  -2    8.00    0.70
  -1 -11  -2    8.90    1.00
   1  11   2    5.40    1.10
  -2 -11  -2   59.39    3.00
  -2 -11  -2   59.09    2.00
  -2 -11  -2   58.39    2.20
  -3 -11  -2   35.80    1.60
  -3 -11  -2   37.60    1.80
  -3 -11  -2   36.60    2.50
   3  11   2   40.20    3.50
  -4 -11  -2   19.00    1.30
  -4 -11  -2   18.50    2.30
  -4 -11  -2   21.20    1.60
   4  11   2   21.10    2.80
  -5 -11  -2   40.00    2.20
  -5 -11  -2   39.30    1.80
  -5 -11  -2   37.40    2.80
  -6 -11  -2  259.27    8.00
  -6 -11  -2  255.67    8.60
  -6 -11  -2  263.07    7.80
  -7 -11  -2  266.87    9.10
  -7 -11  -2  287.57    8.60
  -7 -11  -2  271.27    8.30
  -8 -11  -2   -0.10    0.90
  -8 -11  -2   -0.80    1.30
  -9 -11  -2   60.99    3.50
 -16  12   2   92.49    5.80
 -16  12   2   92.29    4.50
  15 -12  -2    9.20    1.30
 -15  12   2   10.90    2.00
 -15  12   2   17.10    2.70
  14 -12  -2   55.09    3.20
 -14  12   2   62.69    4.40
 -14  12   2   61.29    4.50
  13 -12  -2   69.79    3.40
 -13  12   2   74.99    4.40
 -13  12   2   70.69    3.30
  12 -12  -2   91.29    3.80
 -12  12   2   95.09    4.90
 -12  12   2   97.89    3.70
  11 -12  -2   62.09    3.10
 -11  12   2   55.39    4.60
 -11  12   2   67.89    2.80
  10 -12  -2   37.00    2.40
 -10  12   2   39.90    2.00
   9 -12  -2    2.50    0.80
  -9  12   2    2.70    0.60
   8 -12  -2   23.90    2.00
   7 -12  -2   23.60    2.10
   6 -12  -2  335.07   10.40
   5 -12  -2  196.88    6.60
   4 -12  -2  382.06   11.40
  -4  12   2  354.76   12.70
   3 -12  -2   72.99    3.30
  -3  12   2   72.89    3.90
   2 -12  -2    0.90    0.60
  -2  12   2    1.70    0.90
   1 -12  -2  432.16   13.10
  -1  12   2  422.56   13.40
   0 -12  -2   14.90    1.90
   0  12   2   17.90    2.50
  -1 -12  -2    0.30    0.30
  -1 -12  -2    1.20    0.80
  -1 -12  -2    0.40    0.40
   1  12   2    0.10    1.00
  -2 -12  -2    4.10    1.00
  -2 -12  -2    2.90    0.60
  -2 -12  -2    2.40    0.40
   2  12   2    3.60    1.20
  -3 -12  -2   51.99    3.00
  -3 -12  -2   50.89    1.90
  -3 -12  -2   52.59    2.20
   3  12   2   55.09    3.60
  -4 -12  -2  140.99    4.40
  -4 -12  -2  140.69    5.40
  -4 -12  -2  139.19    4.60
   4  12   2  143.29    6.00
  -5 -12  -2    4.40    1.10
  -5 -12  -2    5.30    0.70
  -5 -12  -2    5.30    0.80
  -6 -12  -2  222.28    6.50
  -6 -12  -2  207.88    7.50
  -6 -12  -2  197.88    7.70
  -7 -12  -2  131.69    4.80
  -7 -12  -2  128.99    4.50
  -8 -12  -2   76.89    3.80
 -16  13   2  180.28    6.60
 -16  13   2  180.28    8.00
  15 -13  -2   83.89    4.30
 -15  13   2  101.69    5.90
 -15  13   2   98.79    4.30
  14 -13  -2   16.90    2.80
 -14  13   2   13.40    2.10
 -14  13   2   20.90    2.70
  13 -13  -2    0.50    1.00
 -13  13   2    0.40    0.90
 -13  13   2    2.50    1.60
  12 -13  -2   52.59    3.10
 -12  13   2   55.29    2.80
 -12  13   2   58.39    4.20
  11 -13  -2  107.89    4.40
 -11  13   2  117.29    5.40
 -11  13   2  111.69    3.90
  10 -13  -2  160.48    5.80
 -10  13   2  166.18    5.20
 -10  13   2  172.68    6.60
   9 -13  -2   30.40    2.40
  -9  13   2   31.90    3.20
   8 -13  -2  347.47   10.90
  -8  13   2  359.66   11.50
   7 -13  -2  952.30   27.30
  -7  13   2  924.41   27.70
   6 -13  -2   17.40    2.10
  -6  13   2   20.10    2.90
   5 -13  -2  115.29    4.50
  -5  13   2  122.09    5.20
   4 -13  -2   23.00    2.20
  -4  13   2   25.60    2.90
   3 -13  -2  302.77    9.90
  -3  13   2  324.57   10.50
   2 -13  -2   55.29    2.80
  -2  13   2   53.49    3.50
   1 -13  -2  310.47    9.90
  -1  13   2  309.57   10.40
   0 -13  -2   32.90    2.50
   0  13   2   30.50    3.20
  -1 -13  -2  249.18    8.30
  -1 -13  -2  256.47    7.30
  -1 -13  -2  247.38    7.40
   1  13   2  250.47    8.80
  -2 -13  -2   -0.10    0.50
  -2 -13  -2    0.00    0.40
  -2 -13  -2   -0.40    0.80
   2  13   2    1.10    1.10
  -3 -13  -2    0.10    0.40
  -3 -13  -2    0.10    0.60
   3  13   2    2.00    1.20
  -4 -13  -2   49.30    2.10
  -4 -13  -2   48.90    2.50
   4  13   2   52.39    4.00
  -5 -13  -2   49.99    2.30
  -5 -13  -2   51.39    2.70
  -6 -13  -2   25.30    2.30
  -6 -13  -2   26.40    2.50
  -7 -13  -2    7.40    1.20
 -15  14   2   29.90    3.40
 -15  14   2   29.90    5.20
 -14  14   2   48.10    5.00
 -14  14   2   41.90    3.10
 -13  14   2   40.00    4.50
 -13  14   2   35.40    2.70
 -12  14   2    0.50    0.90
 -12  14   2    2.50    1.60
  11 -14  -2   69.49    3.90
 -11  14   2   67.79    2.90
 -11  14   2   70.29    4.60
  10 -14  -2    4.90    1.00
 -10  14   2    7.90    1.60
 -10  14   2    6.60    0.70
   9 -14  -2   16.10    2.30
  -9  14   2   17.80    3.20
   8 -14  -2   22.70    2.40
  -8  14   2   30.30    3.20
   7 -14  -2   -0.40    0.80
  -7  14   2    1.50    1.10
   6 -14  -2   54.29    3.00
  -6  14   2   59.19    3.70
   5 -14  -2    2.20    0.90
  -5  14   2    1.90    1.10
   4 -14  -2   15.90    2.40
  -4  14   2   14.70    2.80
  -3  14   2   41.30    3.50
  -2  14   2  183.98    7.10
  -1  14   2   -0.90    1.10
   0  14   2    6.80    1.40
   1  14   2    7.90    1.40
  -2 -14  -2   95.09    3.10
  -2 -14  -2   95.09    3.30
   2  14   2   95.49    5.10
  -3 -14  -2    2.50    0.70
  -3 -14  -2    1.40    0.60
   3  14   2    1.50    1.40
  -4 -14  -2   97.29    3.70
  -5 -14  -2    8.50    1.10
 -14  15   2  102.89    6.40
 -12  15   2    5.50    1.90
 -11  15   2   36.40    4.20
 -10  15   2  179.18    7.30
  -9  15   2  172.08    7.10
  -8  15   2   33.80    3.70
  -7  15   2   30.90    3.50
  -6  15   2  201.78    7.70
  -5  15   2   20.50    3.00
  -4  15   2   51.29    3.90
  -3  15   2    7.50    1.40
  -2  15   2   58.59    4.00
  -1  15   2   16.30    3.10
   0  15   2   -2.30    1.20
   1  15   2   94.89    5.10
  -2 -15  -2  104.19    3.70
   2  15   2  111.49    5.60
   3  15   2   10.00    1.90
 -13  16   2   49.40    5.30
 -12  16   2    3.60    1.90
 -11  16   2   35.80    4.40
 -10  16   2    8.60    1.80
  -9  16   2    0.20    1.40
  -8  16   2  103.99    5.30
  -7  16   2  125.99    5.80
  -6  16   2  276.67    9.90
  -5  16   2    1.30    1.20
  -4  16   2    0.30    1.20
  -3  16   2    8.40    1.40
  -2  16   2    0.10    1.30
  -1  16   2   51.59    4.10
   0  16   2   36.60    3.80
   1  16   2    2.00    1.50
   2  16   2  171.88    7.40
 -12  17   2  107.39    6.60
 -11  17   2   14.20    2.30
 -10  17   2   33.00    4.50
  -9  17   2   -0.60    1.60
  -8  17   2  303.47   10.90
  -7  17   2   23.30    3.60
  -6  17   2    8.70    1.60
  -5  17   2    9.50    1.70
  -4  17   2  113.09    5.60
  -3  17   2    8.90    1.70
  -2  17   2   10.50    1.70
  -1  17   2   67.99    4.80
   0  17   2  154.38    7.00
   1  17   2  119.49    6.30
  -9  18   2    1.60    1.60
  -8  18   2    2.40    1.50
  -7  18   2   53.79    4.50
  -6  18   2  108.09    5.70
  -5  18   2   11.20    1.80
  -4  18   2   41.50    3.80
  -3  18   2    4.90    1.60
  -1  17  -3    1.60    0.50
  -2  17  -3    0.10    0.40
   2 -17   3    0.30    0.80
  -3  17  -3   66.29    2.50
   3 -17   3   83.69    3.00
  -4  17  -3   57.79    2.20
   4 -17   3   70.59    2.70
  -5  17  -3  422.96   13.30
  -5  17  -3  336.17   11.30
   5 -17   3  426.56   11.60
  -6  17  -3    1.00    1.40
  -7  17  -3   -0.60    0.60
  -7  17  -3    0.80    1.50
  -8  17  -3   12.00    2.00
  -8  17  -3   12.20    1.80
  -9  17  -3    5.80    0.90
  -9  17  -3    6.90    1.90
 -10  17  -3    1.70    1.00
 -11  17  -3    0.30    1.40
  -3 -16   3   -0.60    0.70
  -2 -16   3   12.10    1.70
  -1 -16   3   20.10    1.80
   0  16  -3  142.39    4.40
  -1  16  -3  178.08    5.30
   1 -16   3  173.18    5.50
  -2  16  -3    0.90    0.40
   2 -16   3    1.90    0.70
  -3  16  -3   47.40    1.80
   3 -16   3   47.60    2.20
  -4  16  -3   30.10    3.40
  -4  16  -3   31.80    1.40
   4 -16   3   33.80    1.90
  -5  16  -3  173.28    7.00
  -5  16  -3  173.48    5.10
   5 -16   3  165.08    5.30
  -6  16  -3   60.99    2.30
  -6  16  -3   63.09    4.30
  -7  16  -3    0.20    0.60
  -7  16  -3   -1.00    1.40
   7 -16   3   -0.80    0.70
  -8  16  -3   68.79    2.80
  -8  16  -3   63.29    4.60
   8 -16   3   65.19    2.90
  -9  16  -3    1.30    0.90
  -9  16  -3   -0.80    1.60
 -10  16  -3   -2.70    1.60
 -10  16  -3   -0.50    0.90
 -11  16  -3    0.60    1.10
 -12  16  -3   48.50    3.50
  -6 -15   3  129.99    4.40
  -5 -15   3  212.08    6.50
  -4 -15   3   75.99    2.90
  -3 -15   3    0.90    0.60
  -2 -15   3   18.90    1.50
  -1 -15   3  261.97    7.80
   0  15  -3  186.98    5.50
   0 -15   3  181.28    5.70
  -1  15  -3   91.19    2.90
   1 -15   3   86.49    3.10
  -2  15  -3  311.47    8.90
   2 -15   3  302.07    9.00
  -3  15  -3   99.09    4.80
  -3  15  -3   99.89    3.10
   3 -15   3   96.79    3.40
  -4  15  -3  153.18    6.40
  -4  15  -3  163.38    4.70
   4 -15   3  155.18    4.90
   4 -15   3  155.78    6.10
  -5  15  -3   53.79    2.00
  -5  15  -3   49.40    3.80
   5 -15   3   48.10    3.20
   5 -15   3   53.49    2.30
  -6  15  -3  419.96   11.70
  -6  15  -3  421.46   13.10
   6 -15   3  378.96   11.90
   6 -15   3  390.56   12.60
  -7  15  -3   54.09    2.30
  -7  15  -3   51.29    3.90
   7 -15   3   52.99    2.40
   7 -15   3   42.40    3.20
  -8  15  -3  117.69    5.60
  -8  15  -3  123.59    4.10
   8 -15   3  117.09    4.10
   8 -15   3  113.09    4.90
  -9  15  -3   48.60    4.10
  -9  15  -3   50.89    2.60
   9 -15   3   44.10    3.40
 -10  15  -3   70.39    3.20
 -10  15  -3   64.59    4.80
  10 -15   3   62.19    4.00
 -11  15  -3   16.20    2.40
  11 -15   3   10.00    1.60
 -12  15  -3  151.78    5.50
  12 -15   3  135.39    5.90
 -13  15  -3    1.50    1.40
  -7 -14   3   38.70    2.10
  -6 -14   3  229.68    7.00
  -5 -14   3   16.60    1.50
  -4 -14   3  221.88    6.70
  -3 -14   3   29.00    1.60
  -2 -14   3   39.00    1.80
   1  14  -3   83.29    2.60
  -1 -14   3   74.79    3.10
  -1 -14   3   72.09    3.60
   0  14  -3   45.70    1.70
   0 -14   3   40.80    2.80
   0 -14   3   41.30    1.90
  -1  14  -3    1.20    0.40
   1 -14   3    1.30    0.50
   1 -14   3    1.70    0.90
  -2  14  -3  491.55   14.00
  -2  14  -3  491.05   15.40
   2 -14   3  498.25   14.10
   2 -14   3  483.05   15.00
  -3  14  -3  296.37    8.40
  -3  14  -3  289.97    9.80
   3 -14   3  289.37    9.40
   3 -14   3  283.67    8.50
  -4  14  -3   28.90    3.00
  -4  14  -3   28.30    1.40
   4 -14   3   31.60    2.50
   4 -14   3   28.10    1.70
  -5  14  -3   -0.10    0.40
  -5  14  -3    0.60    1.00
   5 -14   3    0.70    0.60
   5 -14   3   -0.60    0.80
  -6  14  -3    3.80    1.30
  -6  14  -3    7.50    1.30
   6 -14   3    4.50    1.10
   6 -14   3    5.40    0.80
  -7  14  -3  599.64   18.20
  -7  14  -3  600.64   17.10
   7 -14   3  589.74   17.10
   7 -14   3  586.34   17.80
  -8  14  -3   13.10    1.80
  -8  14  -3    9.30    1.60
   8 -14   3    9.40    1.30
   8 -14   3   13.30    1.70
  -9  14  -3  140.09    4.80
  -9  14  -3  137.59    6.00
   9 -14   3  133.39    5.30
 -10  14  -3  377.26   12.10
 -10  14  -3  374.56   11.10
  10 -14   3  351.26   11.40
 -11  14  -3   82.29    4.90
 -11  14  -3   74.49    3.50
  11 -14   3   66.09    3.80
 -12  14  -3   -1.80    1.10
  12 -14   3   -0.80    1.10
 -13  14  -3   46.10    3.50
  -8 -13   3  514.05   15.00
  -7 -13   3   27.60    1.70
  -6 -13   3    8.00    1.30
  -5 -13   3    8.80    1.20
  -5 -13   3    6.00    1.30
  -4 -13   3  485.35   13.90
  -4 -13   3  481.75   14.90
  -3 -13   3  107.89    3.50
  -3 -13   3  103.59    4.40
   2  13  -3   14.40    1.20
  -2 -13   3   17.90    2.10
  -2 -13   3   17.00    1.20
   1  13  -3 1252.97   36.20
  -1 -13   3 1290.47   36.20
  -1 -13   3 1307.27   37.20
   0  13  -3  952.40   27.10
   0 -13   3  950.20   27.10
   0 -13   3  976.20   28.10
  -1  13  -3  126.89    5.30
  -1  13  -3  129.99    3.90
   1 -13   3  122.69    4.00
   1 -13   3  127.39    4.90
  -2  13  -3  182.48    6.80
  -2  13  -3  194.28    5.50
   2 -13   3  187.88    6.50
   2 -13   3  187.68    5.70
  -3  13  -3   55.69    2.00
  -3  13  -3   52.99    3.60
   3 -13   3   54.19    2.20
   3 -13   3   59.89    3.00
  -4  13  -3  139.69    4.20
   4 -13   3  133.59    5.10
   4 -13   3  137.69    4.30
  -5  13  -3  663.83   18.90
  -5  13  -3  652.03   21.00
   5 -13   3  663.83   18.90
   5 -13   3  674.93   19.70
  -6  13  -3   52.29    3.50
  -6  13  -3   55.49    2.30
   6 -13   3   50.09    2.50
   6 -13   3   53.09    2.90
  -7  13  -3  232.28    7.20
  -7  13  -3  236.48    8.20
   7 -13   3  239.58    7.10
   7 -13   3  230.78    7.80
  -8  13  -3   56.69    3.70
  -8  13  -3   57.89    2.60
   8 -13   3   58.99    2.50
   8 -13   3   53.49    3.10
  -9  13  -3    3.30    0.90
  -9  13  -3    1.30    1.30
   9 -13   3    3.10    0.70
   9 -13   3    2.10    1.00
 -10  13  -3   75.49    4.30
 -10  13  -3   76.79    3.40
  10 -13   3   72.69    3.60
 -11  13  -3    0.50    1.40
 -11  13  -3   -1.10    0.90
  11 -13   3   -1.30    1.00
 -12  13  -3   -0.30    1.00
  12 -13   3    0.10    1.00
 -13  13  -3   66.89    3.70
 -14  13  -3    2.10    1.30
  -8 -12   3   52.59    2.40
  -8 -12   3   65.99    5.70
  -7 -12   3  184.88    6.80
  -7 -12   3  187.98    5.80
  -6 -12   3  150.48    4.70
  -6 -12   3  150.08    5.80
  -5 -12   3   51.69    3.10
  -5 -12   3   60.09    2.20
  -4 -12   3  123.29    3.80
  -4 -12   3  119.19    4.80
  -3 -12   3   41.40    1.70
  -3 -12   3   40.30    2.60
   2  12  -3  621.24   18.20
  -2 -12   3  659.13   19.10
   1  12  -3   17.30    1.10
  -1 -12   3   20.00    1.20
  -1 -12   3   19.80    2.00
   0  12  -3  286.47    8.40
   0 -12   3  285.67    8.50
   0 -12   3  301.57    9.40
  -1  12  -3   37.60    1.40
  -1  12  -3   31.70    2.80
   1 -12   3   37.40    2.40
   1 -12   3   37.80    1.60
  -2  12  -3  319.27   10.30
  -2  12  -3  309.87    9.10
   2 -12   3  316.67    9.20
   2 -12   3  320.37   10.00
  -3  12  -3   72.19    3.60
  -3  12  -3   72.49    2.40
   3 -12   3   69.79    2.50
   3 -12   3   72.69    3.30
  -4  12  -3  512.65   14.60
  -4  12  -3  513.05   15.60
   4 -12   3  513.75   15.30
   4 -12   3  506.35   14.70
  -5  12  -3   24.40    1.50
  -5  12  -3   24.30    2.60
   5 -12   3   23.80    2.20
   5 -12   3   26.00    1.50
  -6  12  -3  131.69    5.20
  -6  12  -3  129.69    4.20
   6 -12   3  133.39    4.80
   6 -12   3  117.39    4.40
  -7  12  -3    5.60    0.80
  -7  12  -3    6.30    1.20
   7 -12   3    4.60    1.00
  -8  12  -3  160.98    5.40
  -8  12  -3  162.38    6.10
   8 -12   3  163.08    5.20
   8 -12   3  166.38    5.70
  -9  12  -3   19.70    3.00
  -9  12  -3   21.50    2.20
   9 -12   3   26.00    1.90
   9 -12   3   24.90    2.30
 -10  12  -3   11.60    2.10
  10 -12   3   11.40    2.20
 -11  12  -3    1.20    0.90
  11 -12   3    1.00    0.90
 -12  12  -3  116.99    4.60
  12 -12   3  118.69    4.40
 -13  12  -3   21.40    2.80
 -14  12  -3    7.20    1.40
 -10 -11   3  194.18    7.40
  -9 -11   3  166.68    6.30
  -9 -11   3  158.28    5.20
  -8 -11   3   55.69    2.30
  -8 -11   3   62.19    3.60
  -7 -11   3    0.70    0.50
  -7 -11   3    1.90    1.00
  -6 -11   3  271.17    9.00
  -6 -11   3  275.27    8.10
  -5 -11   3   97.19    3.20
  -5 -11   3   95.79    4.10
  -4 -11   3   48.40    2.80
  -4 -11   3   50.29    1.90
   3  11  -3  173.98    5.40
  -3 -11   3  176.98    5.30
  -3 -11   3  181.38    6.20
   2  11  -3 1427.56   39.40
  -2 -11   3 1369.56   39.90
  -2 -11   3 1370.46   39.10
   1  11  -3   62.39    2.10
  -1 -11   3   62.59    2.10
   0  11  -3   26.90    1.20
   0 -11   3   27.20    1.30
   0 -11   3   27.00    2.10
  -1  11  -3   83.09    2.50
  -1  11  -3   78.39    3.60
   1 -11   3   81.19    3.40
   1 -11   3   77.19    2.60
  -2  11  -3  660.83   19.50
  -2  11  -3  658.73   18.50
   2 -11   3  637.74   18.60
   2 -11   3  659.73   19.30
  -3  11  -3  133.19    4.00
  -3  11  -3  129.59    4.90
   3 -11   3  126.79    4.10
   3 -11   3  131.39    4.70
  -4  11  -3   43.60    2.80
  -4  11  -3   44.50    1.80
   4 -11   3   47.00    2.50
   4 -11   3   46.70    1.90
  -5  11  -3    9.60    1.20
   5 -11   3   10.80    1.10
   5 -11   3   10.40    1.70
  -6  11  -3  460.65   13.50
  -6  11  -3  467.85   14.20
   6 -11   3  468.85   13.90
  -7  11  -3   88.29    4.10
  -7  11  -3   96.09    3.40
   7 -11   3   92.99    3.70
   7 -11   3   94.39    3.20
  -8  11  -3   24.00    2.70
  -8  11  -3   19.60    2.00
   8 -11   3   22.70    2.10
   8 -11   3   22.10    1.70
  -9  11  -3  204.38    7.10
  -9  11  -3  203.78    6.50
   9 -11   3  204.08    6.60
   9 -11   3  203.58    6.40
 -10  11  -3  312.77   10.00
 -10  11  -3  309.17    9.60
  10 -11   3  311.27    9.50
 -11  11  -3   94.69    4.00
  11 -11   3   98.39    3.70
 -12  11  -3   26.10    2.60
  12 -11   3   23.90    2.10
 -13  11  -3   58.99    3.40
  13 -11   3   59.09    2.90
 -14  11  -3   86.99    4.30
 -15  11  -3  144.19    5.90
 -12 -10   3  141.19    6.60
 -11 -10   3    2.50    1.50
 -10 -10   3    1.10    1.20
  -9 -10   3   48.50    2.20
  -9 -10   3   47.90    3.30
  -8 -10   3  151.58    5.80
  -8 -10   3  157.88    4.90
  -7 -10   3   88.39    3.00
  -7 -10   3   86.29    3.90
  -6 -10   3   39.50    1.70
  -6 -10   3   40.30    2.60
  -5 -10   3   81.09    2.70
  -5 -10   3   80.49    3.50
  -4 -10   3    0.90    0.70
  -4 -10   3    0.70    0.30
   3  10  -3    0.40    0.30
  -3 -10   3    1.00    0.40
  -3 -10   3    1.20    0.60
   2  10  -3  750.52   21.60
  -2 -10   3  782.32   22.30
  -2 -10   3  752.12   21.50
   1  10  -3  140.59    4.20
  -1 -10   3  141.19    4.30
  -1 -10   3  144.29    5.00
   0  10  -3  650.53   18.60
   0 -10   3  657.13   18.70
   0 -10   3  672.13   19.40
  -1  10  -3    7.40    0.70
  -1  10  -3    5.80    0.90
   1 -10   3    8.00    1.40
   1 -10   3    7.10    0.80
  -2  10  -3  136.79    5.10
  -2  10  -3  141.09    4.20
   2 -10   3  145.59    4.30
   2 -10   3  140.09    4.90
  -3  10  -3  220.88    7.40
  -3  10  -3  224.68    6.60
   3 -10   3  225.38    6.70
   3 -10   3  232.38    7.30
  -4  10  -3  116.99    3.60
  -4  10  -3  112.69    4.40
   4 -10   3  115.99    4.20
   4 -10   3  115.49    3.70
  -5  10  -3   14.70    1.20
  -5  10  -3   14.60    2.00
   5 -10   3   15.30    1.60
   5 -10   3   15.90    1.20
  -6  10  -3   74.49    2.70
  -6  10  -3   71.89    3.40
   6 -10   3   72.59    3.00
  -7  10  -3   14.50    1.60
  -7  10  -3   16.90    2.20
   7 -10   3   16.50    1.40
   7 -10   3   14.40    1.70
  -8  10  -3    8.80    1.00
  -8  10  -3   12.40    2.20
   8 -10   3   10.50    1.60
   8 -10   3    9.60    1.40
  -9  10  -3   62.09    2.80
  -9  10  -3   55.69    3.30
   9 -10   3   58.49    2.70
 -10  10  -3  690.53   20.10
 -10  10  -3  683.43   19.90
  10 -10   3  673.43   19.70
 -11  10  -3   40.40    2.70
 -12  10  -3   83.99    3.70
  12 -10   3   74.09    3.00
 -13  10  -3    8.80    1.30
 -14  10  -3   42.30    3.30
 -15  10  -3    2.40    1.20
 -12  -9   3  117.19    5.40
 -11  -9   3    1.10    1.20
 -10  -9   3    8.10    1.40
 -10  -9   3    9.80    1.40
  -9  -9   3   21.20    1.50
  -9  -9   3   24.50    2.50
  -8  -9   3  378.06   11.70
  -8  -9   3  372.66   11.00
  -7  -9   3  961.60   27.80
  -7  -9   3  998.60   28.50
  -6  -9   3   15.30    1.00
  -6  -9   3   14.90    1.90
  -5  -9   3  940.01   27.10
  -5  -9   3  980.70   27.90
   4   9  -3  157.38    4.80
  -4  -9   3  158.38    5.50
  -4  -9   3  161.98    4.80
   3   9  -3   67.79    2.30
  -3  -9   3   72.19    3.00
  -3  -9   3   71.39    2.30
   2   9  -3  344.07    9.90
  -2  -9   3  346.67    9.90
  -2  -9   3  346.67   10.60
   1   9  -3  407.06   11.90
  -1  -9   3  407.76   11.90
  -1  -9   3  441.26   12.70
   0   9  -3  310.37    9.10
   0  -9   3  330.97    9.90
   0  -9   3  319.07    9.20
  -1   9  -3   50.29    2.60
  -1   9  -3   51.69    1.70
   1  -9   3   52.19    2.40
   1  -9   3   50.19    1.80
  -2   9  -3   32.60    2.20
  -2   9  -3   36.00    1.40
   2  -9   3   36.10    2.00
   2  -9   3   36.10    1.50
  -3   9  -3    2.20    0.80
  -3   9  -3    2.00    0.40
   3  -9   3    2.30    0.60
   3  -9   3    2.40    0.40
  -4   9  -3  846.62   24.20
  -4   9  -3  868.91   24.80
   4  -9   3  840.62   24.60
   4  -9   3  859.31   24.20
  -5   9  -3   13.90    1.90
  -5   9  -3   16.10    1.30
   5  -9   3   17.30    1.20
   5  -9   3   17.10    1.90
  -6   9  -3    0.20    0.50
  -6   9  -3    0.40    0.70
  -7   9  -3  243.78    7.50
  -7   9  -3  252.67    7.90
   7  -9   3  247.18    7.60
   7  -9   3  246.08    7.40
  -8   9  -3  758.32   21.90
  -8   9  -3  766.82   22.10
   8  -9   3  752.12   21.80
   8  -9   3  765.22   21.80
  -9   9  -3   90.49    4.00
  -9   9  -3  103.19    3.80
   9  -9   3  108.19    3.60
 -10   9  -3   64.89    3.00
  10  -9   3   63.49    2.60
 -11   9  -3   37.10    2.60
  11  -9   3   36.90    1.90
 -12   9  -3  373.06   11.50
 -13   9  -3   60.49    3.40
 -14   9  -3   61.19    3.50
 -15   9  -3   59.79    3.60
 -12  -8   3   21.70    3.10
 -11  -8   3   79.19    4.00
 -10  -8   3  371.66   11.10
 -10  -8   3  375.66   11.70
  -9  -8   3  609.04   17.50
  -9  -8   3  605.44   18.10
  -8  -8   3  194.88    5.90
  -8  -8   3  190.28    6.60
  -7  -8   3   29.10    2.20
  -7  -8   3   32.20    1.50
  -6  -8   3  361.86   10.60
  -6  -8   3  369.46   11.20
  -5  -8   3  234.78    6.90
  -5  -8   3  239.58    7.60
   4   8  -3  222.18    6.70
  -4  -8   3  221.68    6.60
  -4  -8   3  233.48    7.30
   3   8  -3  652.43   18.60
  -3  -8   3  659.83   19.20
  -3  -8   3  657.73   18.60
   2   8  -3 1299.37   35.00
  -2  -8   3 1239.68   34.90
  -2  -8   3 1141.39   35.00
   1   8  -3  305.57    8.90
  -1  -8   3  310.27    8.90
  -1  -8   3  319.77    9.60
   0   8  -3  375.56   10.70
   0  -8   3  376.96   10.80
  -1   8  -3   99.39    3.80
  -1   8  -3  105.59    3.10
   1  -8   3  105.59    3.20
   1  -8   3   98.09    3.70
  -2   8  -3    0.70    0.30
  -2   8  -3    0.10    0.60
   2  -8   3    1.10    0.60
   2  -8   3    1.40    0.40
  -3   8  -3  111.69    4.10
  -3   8  -3  116.29    3.60
   3  -8   3  115.09    4.00
   3  -8   3  114.49    3.60
  -4   8  -3  245.58    7.20
  -4   8  -3  233.38    7.60
   4  -8   3  248.58    7.10
   4  -8   3  239.28    7.40
  -5   8  -3  218.08    6.50
  -5   8  -3  212.78    6.90
   5  -8   3  215.88    6.70
   5  -8   3  220.18    6.50
  -6   8  -3  358.96   10.80
  -6   8  -3  349.57   10.50
   6  -8   3  363.66   10.60
  -7   8  -3   -0.70    0.60
  -7   8  -3    0.30    0.50
   7  -8   3    0.50    0.50
   7  -8   3    0.30    0.40
  -8   8  -3  102.09    3.80
  -8   8  -3  100.49    3.70
   8  -8   3  101.49    3.50
   8  -8   3  100.49    3.50
  -9   8  -3  279.77    8.70
   9  -8   3  284.47    8.40
 -10   8  -3   96.99    3.80
  10  -8   3   95.89    3.20
 -11   8  -3   53.09    2.80
 -12   8  -3   28.90    2.50
 -13   8  -3   10.30    1.30
 -14   8  -3   19.60    2.70
 -15   8  -3   18.50    2.80
 -13  -7   3    3.10    1.30
 -12  -7   3    0.60    1.10
 -11  -7   3   27.20    2.00
 -11  -7   3   27.90    2.70
 -10  -7   3    1.60    0.50
 -10  -7   3    1.10    0.90
  -9  -7   3   71.39    2.60
  -9  -7   3   68.79    3.40
  -8  -7   3    6.00    1.10
  -8  -7   3    5.80    0.90
  -7  -7   3   71.49    2.50
  -7  -7   3   70.59    3.10
  -6  -7   3   23.60    1.80
  -6  -7   3   23.60    1.20
  -5  -7   3  261.07    7.80
  -5  -7   3  275.47    8.40
   4   7  -3    6.20    0.70
  -4  -7   3    6.60    0.60
   3   7  -3    3.50    0.60
  -3  -7   3    4.20    0.60
   2   7  -3   30.20    1.20
  -2  -7   3   32.30    1.90
  -2  -7   3   33.00    1.20
   1   7  -3  166.08    5.00
  -1  -7   3  173.48    5.00
  -1  -7   3  175.78    5.60
   0   7  -3   27.20    1.10
   0  -7   3   29.30    1.10
   0  -7   3   24.60    1.70
  -1   7  -3  907.61   25.60
   1  -7   3  869.31   25.70
   1  -7   3  908.01   25.50
  -2   7  -3  950.10   26.60
  -2   7  -3  903.31   26.70
   2  -7   3  907.61   26.60
   2  -7   3  964.30   26.50
  -3   7  -3  382.06   10.80
  -3   7  -3  370.96   11.20
   3  -7   3  373.86   10.80
   3  -7   3  372.46   11.10
  -4   7  -3    2.20    0.50
  -4   7  -3    1.70    0.60
   4  -7   3    2.40    0.40
   4  -7   3    1.90    0.50
  -5   7  -3  472.85   13.80
  -5   7  -3  479.55   14.00
   5  -7   3  468.05   13.80
   5  -7   3  486.25   13.70
  -6   7  -3  860.21   24.70
  -6   7  -3  870.51   24.80
   6  -7   3  864.81   24.70
  -7   7  -3   79.39    3.00
  -7   7  -3   75.69    3.00
   7  -7   3   80.29    2.80
   7  -7   3   79.49    2.80
  -8   7  -3   15.10    1.60
   8  -7   3   14.50    1.30
   8  -7   3   16.70    1.40
  -9   7  -3  439.86   13.10
   9  -7   3  446.76   12.70
 -10   7  -3  624.04   18.20
 -11   7  -3   24.40    2.20
 -12   7  -3   -0.60    0.80
 -13   7  -3    5.50    1.10
 -14   7  -3  103.09    4.50
 -15  -6   3   -0.60    0.90
 -13  -6   3  272.77    9.00
 -12  -6   3  136.79    5.30
 -11  -6   3    4.90    0.70
 -11  -6   3    3.50    1.00
 -10  -6   3    0.20    0.80
 -10  -6   3   -0.30    0.40
  -9  -6   3 1056.69   29.40
  -9  -6   3  983.40   29.00
  -8  -6   3  554.24   15.90
  -8  -6   3  553.14   16.40
  -7  -6   3   23.50    1.20
  -7  -6   3   22.70    1.80
  -6  -6   3   61.29    2.10
   5   6  -3  298.97    8.70
  -5  -6   3  303.77    9.10
  -5  -6   3  292.47    8.60
   4   6  -3   37.90    1.40
  -4  -6   3   39.10    1.40
  -4  -6   3   40.30    2.00
   3   6  -3   72.49    2.30
  -3  -6   3   72.89    2.30
  -3  -6   3   71.69    2.90
   2   6  -3  148.09    4.50
  -2  -6   3  161.98    5.10
  -2  -6   3  152.28    4.50
   1   6  -3  267.67    7.90
  -1  -6   3  281.67    8.40
  -1  -6   3  274.97    7.90
   0   6  -3  241.08    7.20
   0  -6   3  253.27    7.30
   0  -6   3  264.97    7.70
  -1   6  -3   57.99    1.90
   1  -6   3   55.29    2.30
   1  -6   3   58.39    1.90
  -2   6  -3  340.77    9.90
   2  -6   3  349.96   10.20
   2  -6   3  338.87    9.90
  -3   6  -3   46.20    1.80
  -3   6  -3   44.50    2.10
   3  -6   3   49.20    2.00
   3  -6   3   45.80    1.70
  -4   6  -3   79.09    3.00
  -4   6  -3   84.49    2.80
   4  -6   3   82.39    2.90
   4  -6   3   83.69    2.80
  -5   6  -3  349.96   10.20
  -5   6  -3  340.97   10.30
   5  -6   3  364.56   10.20
   5  -6   3  344.77   10.20
  -6   6  -3   -0.70    0.50
   6  -6   3    1.60    0.50
  -7   6  -3  362.96   10.90
   7  -6   3  375.36   10.90
   7  -6   3  375.46   10.70
  -8   6  -3  558.84   16.20
  -9   6  -3   62.39    2.80
 -10   6  -3   35.00    2.40
 -11   6  -3   26.90    2.30
 -12   6  -3    0.20    0.90
 -13   6  -3    6.30    1.20
 -14   6  -3   21.50    2.80
 -15   6  -3  582.54   17.60
 -15  -5   3   15.80    2.20
 -14  -5   3   35.00    3.20
 -13  -5   3  249.58    8.20
 -12  -5   3   98.89    4.20
 -11  -5   3    0.30    0.40
 -11  -5   3    0.00    0.90
 -10  -5   3   80.19    2.90
 -10  -5   3   80.69    3.50
  -9  -5   3   27.50    1.40
  -9  -5   3   26.70    2.10
  -8  -5   3    4.10    0.70
  -7  -5   3   42.20    1.60
  -7  -5   3   40.50    2.10
  -6  -5   3   69.89    2.80
  -6  -5   3   69.29    2.30
   5   5  -3  295.97    8.70
  -5  -5   3  296.57    8.70
  -5  -5   3  310.07    9.10
   4   5  -3  195.38    5.70
  -4  -5   3  193.28    5.70
  -4  -5   3  196.18    6.20
   3   5  -3  187.98    5.60
  -3  -5   3  190.78    5.60
  -3  -5   3  196.48    6.00
   2   5  -3   45.70    1.50
  -2  -5   3   48.90    2.00
  -2  -5   3   47.70    1.50
  -1  -5   3    1.30    0.40
  -1  -5   3    1.70    0.20
   0   5  -3  103.29    3.10
   0  -5   3  105.29    3.50
   0  -5   3  107.39    3.20
  -1   5  -3   47.40    1.60
   1  -5   3   45.90    1.90
   1  -5   3   49.90    1.60
  -2   5  -3   41.30    1.50
   2  -5   3   40.30    1.50
   2  -5   3   36.80    1.70
  -3   5  -3  494.65   14.00
   3  -5   3  481.35   14.10
   3  -5   3  494.25   14.00
  -4   5  -3  615.44   17.70
   4  -5   3  620.24   17.70
   4  -5   3  627.14   17.70
  -5   5  -3  445.26   12.90
   5  -5   3  452.45   12.90
   5  -5   3  442.76   12.90
  -6   5  -3   -0.30    0.50
   6  -5   3    0.40    0.60
   6  -5   3    0.40    0.40
  -7   5  -3  137.59    4.50
   7  -5   3  139.79    4.40
  -8   5  -3  304.97    9.20
  -9   5  -3  623.34   18.10
 -11   5  -3  251.17    8.00
 -12   5  -3  445.96   13.50
 -15   5  -3    1.70    1.10
 -16  -4   3   70.69    4.20
 -14  -4   3  319.17   10.00
 -13  -4   3   42.80    3.00
 -12  -4   3    0.00    0.90
 -12  -4   3   -0.20    0.40
 -11  -4   3  106.59    3.70
 -10  -4   3  348.77   10.70
 -10  -4   3  359.66   10.40
  -9  -4   3    3.90    0.70
  -9  -4   3    3.10    0.40
  -8  -4   3   82.89    2.80
  -7  -4   3  856.51   24.30
  -6  -4   3   21.40    1.00
   5   4  -3  354.16   10.20
  -5  -4   3  353.26   10.20
   4   4  -3  106.79    3.20
  -4  -4   3  101.39    3.10
   3   4  -3 1612.74   46.10
  -3  -4   3 1611.44   46.00
   2   4  -3  365.06   10.30
  -2  -4   3  340.17   10.00
   1   4  -3  906.31   26.50
  -1  -4   3  938.81   26.40
   0   4  -3 2388.16   67.79
   0  -4   3 2394.56   67.99
   1  -4   3 6516.65  180.78
   1  -4   3 6331.67  181.48
  -2   4  -3   43.50    1.60
   2  -4   3   44.40    1.60
  -3   4  -3  253.77    7.30
   3  -4   3  240.58    7.30
   3  -4   3  256.37    7.30
  -4   4  -3  681.63   19.40
   4  -4   3  660.23   19.30
   4  -4   3  698.33   19.30
  -5   4  -3 1226.88   37.10
   5  -4   3 1403.16   37.40
  -6   4  -3  784.12   22.20
   6  -4   3  768.92   22.20
  -7   4  -3   30.00    1.70
   7  -4   3   32.60    1.60
  -8   4  -3   73.29    2.90
  -9   4  -3  111.39    4.00
 -10   4  -3  235.78    7.90
 -11   4  -3   69.19    3.20
 -12   4  -3    6.60    1.00
 -13   4  -3    6.30    1.10
 -14   4  -3   21.00    2.50
 -15   4  -3    4.30    1.20
 -16  -3   3  135.79    5.20
 -15  -3   3   33.10    2.50
 -14  -3   3  109.49    6.10
 -13  -3   3    1.30    1.00
 -12  -3   3   45.20    2.70
 -12  -3   3   47.10    2.10
 -11  -3   3    9.40    1.20
 -11  -3   3   10.80    1.70
 -10  -3   3   15.70    1.20
  -9  -3   3  320.37    9.40
  -8  -3   3  429.56   12.40
  -7  -3   3    2.00    0.30
  -6  -3   3   23.50    1.10
   5   3  -3  212.88    6.40
  -5  -3   3  221.18    6.30
   4   3  -3   45.40    1.50
  -4  -3   3   44.90    1.50
   3   3  -3  941.71   27.20
  -3  -3   3  943.21   27.00
   2   3  -3   49.70    1.60
  -2  -3   3   51.29    1.60
   1   3  -3 1291.87   37.50
  -1  -3   3 1340.77   37.60
   0   3  -3  273.97    7.80
   0  -3   3  271.17    7.80
  -1   3  -3   44.80    1.50
   1  -3   3   43.10    1.50
  -2   3  -3 2115.09   58.39
   2  -3   3 1903.51   57.79
   2  -3   3 2125.69   58.39
  -3   3  -3  426.76   12.10
   3  -3   3  410.06   12.00
   3  -3   3  429.16   12.10
  -4   3  -3 1308.17   36.30
   4  -3   3 1239.58   35.90
  -5   3  -3  794.72   23.20
   5  -3   3  834.42   23.10
  -6   3  -3  804.32   23.30
   6  -3   3  829.82   23.30
  -7   3  -3   21.60    1.50
  -8   3  -3    2.70    0.60
  -9   3  -3  103.09    3.80
 -10   3  -3   87.49    3.50
 -11   3  -3    2.50    0.80
 -12   3  -3   50.49    2.90
 -13   3  -3  402.66   12.40
 -14   3  -3   26.30    2.70
 -15   3  -3   30.10    2.80
 -16  -2   3   73.49    3.60
 -15  -2   3   22.00    2.20
 -14  -2   3    4.00    1.00
 -13  -2   3  366.66   11.10
 -12  -2   3   12.20    1.30
 -11  -2   3   74.29    2.70
 -10  -2   3   53.29    2.10
  -9  -2   3  233.98    7.00
  -8  -2   3  484.15   13.90
  -7  -2   3  228.18    7.00
  -6  -2   3  783.22   22.40
   5   2  -3  283.37    8.20
  -4  -2   3   15.20    0.70
   3   2  -3  694.33   19.80
  -3  -2   3  687.93   19.80
   2   2  -3 1139.89   32.30
  -2  -2   3 1129.59   32.30
   1   2  -3  185.18    5.30
  -1  -2   3  184.88    5.30
   0   2  -3  231.88    6.80
   0  -2   3  234.88    6.80
  -1   2  -3 4256.37  121.09
   1  -2   3 4326.37  121.69
  -2   2  -3 1592.04   45.50
   2  -2   3 1594.14   45.50
  -3   2  -3 1941.81   54.99
   3  -2   3 1909.11   54.69
  -4   2  -3   28.30    1.30
   4  -2   3   28.10    1.30
  -5   2  -3   17.40    1.30
   5  -2   3   19.20    1.20
  -6   2  -3   24.00    1.50
  -7   2  -3   51.49    2.20
  -8   2  -3  316.87    9.50
  -9   2  -3   53.79    2.50
 -10   2  -3  207.38    6.70
 -11   2  -3  142.19    5.00
 -12   2  -3  101.89    4.10
 -13   2  -3   12.70    2.30
 -14   2  -3   26.10    2.70
 -15   2  -3  131.29    5.20
 -17  -1   3  148.09    6.80
 -16  -1   3    8.20    1.20
 -15  -1   3  151.98    5.50
 -13  -1   3  583.24   17.00
 -12  -1   3   25.50    1.60
 -11  -1   3  218.68    6.70
 -10  -1   3    5.50    0.90
  -9  -1   3   12.60    1.00
  -8  -1   3   25.30    1.20
  -7  -1   3 1867.91   53.39
  -6  -1   3   33.90    1.30
   5   1  -3    0.70    0.30
   4   1  -3 2344.57   66.49
   3   1  -3   20.60    0.80
  -3  -1   3   20.20    1.00
   2   1  -3  527.65   15.20
  -2  -1   3  529.55   15.20
   1   1  -3    2.80    0.30
  -1  -1   3    2.90    0.40
   0   1  -3  769.72   21.90
   0  -1   3  766.92   21.90
  -1   1  -3    4.10    0.70
  -2   1  -3   66.29    2.20
   2  -1   3   68.19    2.20
  -3   1  -3 2250.87   65.89
   3  -1   3 2382.56   65.99
  -4   1  -3   73.29    2.50
   4  -1   3   74.89    2.50
  -5   1  -3   34.70    1.70
   5  -1   3   36.20    1.60
  -6   1  -3    0.70    0.50
  -7   1  -3  111.69    3.80
  -8   1  -3  595.74   17.30
  -9   1  -3   33.30    2.10
 -10   1  -3   69.79    3.10
 -11   1  -3  321.67   10.00
 -12   1  -3   90.19    3.90
 -13   1  -3   16.10    2.40
 -14   1  -3    6.30    1.20
 -17   0   3   40.40    2.90
 -16   0   3   12.60    2.20
 -15   0   3   20.10    2.10
 -13   0   3   52.29    2.10
 -13   0   3   46.10    2.20
 -12   0   3   29.80    1.50
 -12   0   3   25.70    1.60
 -11   0   3  373.96   11.00
 -10   0   3   10.60    1.00
  -9   0   3   17.10    1.10
  -8   0   3   43.30    1.70
  -7   0   3   17.50    0.90
  -6   0   3  909.61   26.10
   5   0  -3 3321.77   93.89
  -5   0   3 3314.27   93.79
   4   0  -3 1704.33   48.60
  -4   0   3 1715.03   48.40
   3   0  -3   15.50    0.70
  -3   0   3   15.10    0.60
   1   0  -3 1688.53   48.50
  -1   0   3 1734.83   48.50
   0   0  -3 2786.62   79.29
   0   0   3 2833.92   79.39
  -1   0  -3    1.70    0.30
   1   0   3    1.30    0.50
   1   0   3    1.80    0.40
  -2   0  -3 1120.89   32.20
   2   0   3 1137.19   32.30
  -3   0  -3  110.69    3.50
   3   0   3  112.29    3.50
  -4   0  -3  328.47    9.80
   4   0   3  344.77    9.80
  -5   0  -3  788.12   22.40
  -6   0  -3   29.60    1.60
  -7   0  -3  169.98    5.40
  -8   0  -3  371.96   11.10
  -9   0  -3  770.62   22.40
 -10   0  -3    4.10    0.80
 -11   0  -3   51.09    2.80
 -12   0  -3    1.30    0.90
 -13   0  -3  248.28    8.20
 -14   0  -3   28.60    2.70
 -17   1   3   49.50    3.00
 -16   1   3   22.50    2.40
 -15   1   3   11.20    2.00
 -14   1   3    4.00    0.80
 -13   1   3    3.00    0.50
 -13   1   3    3.30    0.60
 -12   1   3   11.90    1.20
 -12   1   3   11.40    1.20
 -11   1   3   58.19    2.30
 -11   1   3   59.69    2.10
 -10   1   3  132.29    4.10
 -10   1   3  131.39    4.20
  -9   1   3  609.84   17.30
  -8   1   3  300.67    8.60
  -8   1   3  291.47    8.70
  -7   1   3   18.50    0.90
  -7   1   3   18.40    1.00
  -6   1   3   77.69    2.50
  -6   1   3   78.39    2.40
  -5   1   3 6482.95  182.28
   4  -1  -3  135.69    3.90
  -4   1   3  134.99    4.00
  -4   1   3  133.49    4.00
   3  -1  -3 1924.11   54.39
  -3   1   3 1934.21   54.39
   2  -1  -3   87.69    3.00
   2  -1  -3  111.59    3.10
  -2   1   3  108.49    3.00
  -2   1   3  105.59    3.10
   1  -1  -3   45.50    1.60
   1  -1  -3   49.30    1.60
  -1   1   3   51.79    1.50
   0  -1  -3 1352.46   37.10
   0  -1  -3 1253.57   36.80
   0   1   3 1301.87   37.10
   0   1   3 1293.37   36.90
  -1  -1  -3  548.25   15.50
  -1  -1  -3  509.45   15.20
   1   1   3  556.94   15.50
  -2  -1  -3   29.50    1.00
  -2  -1  -3   25.10    1.10
   2   1   3   26.50    1.10
   2   1   3   26.70    1.10
  -3  -1  -3  321.47    9.10
   3   1   3  301.37    9.20
   3   1   3  324.17    9.10
  -4  -1  -3   12.30    1.10
  -5  -1  -3 2788.72   79.49
  -6  -1  -3  258.77    7.80
  -7  -1  -3  320.77    9.60
  -8  -1  -3    2.30    0.60
  -9  -1  -3   74.19    3.60
 -10  -1  -3    1.20    0.80
 -11  -1  -3   21.80    2.20
 -12  -1  -3   71.99    3.50
 -13  -1  -3  365.66   11.50
 -14  -1  -3  147.69    5.70
 -17   2   3  116.59    4.70
 -16   2   3    5.50    1.10
 -15   2   3   69.59    3.30
 -14   2   3   76.79    3.30
 -14   2   3   75.19    3.00
 -13   2   3   88.09    3.20
 -13   2   3   87.19    3.10
 -12   2   3   79.09    2.80
 -12   2   3   81.89    2.90
 -11   2   3   -0.30    0.40
 -11   2   3    0.40    0.40
 -10   2   3   27.90    1.40
 -10   2   3   26.90    1.40
  -9   2   3 1350.56   39.30
  -9   2   3 1429.96   39.50
  -8   2   3   92.49    3.00
  -8   2   3   95.49    3.00
  -7   2   3  291.07    8.30
  -7   2   3  282.27    8.30
  -6   2   3    5.00    0.70
  -6   2   3    3.80    0.50
  -5   2   3 5490.45  158.38
  -5   2   3 5750.42  157.98
   4  -2  -3 1446.76   38.50
   4  -2  -3 1319.07   38.00
  -4   2   3 1330.97   38.40
  -4   2   3 1263.37   37.90
  -3   2   3   12.90    0.80
  -3   2   3   12.30    0.50
   2  -2  -3  106.19    3.10
   2  -2  -3  103.89    3.60
  -2   2   3  107.59    3.10
  -2   2   3  112.89    3.30
   1  -2  -3 1702.63   50.69
   1  -2  -3 1921.81   51.99
  -1   2   3 1804.52   51.69
  -1   2   3 1778.62   50.79
   0  -2  -3   36.70    1.30
   0  -2  -3   31.80    1.20
   0   2   3   33.40    1.20
   0   2   3   34.50    1.40
  -1  -2  -3  889.91   25.20
  -1  -2  -3  858.11   25.00
   1   2   3  876.41   25.30
   1   2   3  883.61   25.10
  -2  -2  -3 1255.47   36.40
  -2  -2  -3 1321.87   36.40
   2   2   3 1280.97   36.40
   2   2   3 1243.98   36.20
  -3  -2  -3 1054.69   30.90
  -3  -2  -3 1181.48   31.40
   3   2   3 1053.09   30.90
  -4  -2  -3  229.78    6.60
  -4  -2  -3  224.38    6.70
   4   2   3  223.88    6.70
  -5  -2  -3   -0.20    0.40
  -6  -2  -3  244.58    7.40
  -7  -2  -3   67.49    2.70
  -8  -2  -3    5.10    0.80
  -9  -2  -3   -0.50    0.70
 -10  -2  -3   47.40    2.70
 -11  -2  -3  164.48    5.70
 -12  -2  -3    0.10    0.90
 -13  -2  -3    2.70    1.00
 -14  -2  -3   -0.10    1.00
 -18   3   3   25.30    2.80
 -17   3   3   65.79    3.50
 -16   3   3   14.60    2.30
 -15   3   3  233.28    7.60
 -14   3   3    0.30    0.50
 -14   3   3    0.10    0.70
 -14   3   3    0.60    0.80
 -13   3   3    2.00    0.50
 -13   3   3    3.30    0.60
 -13   3   3    2.90    0.80
 -12   3   3  244.78    7.40
 -12   3   3  246.18    7.40
 -11   3   3  462.55   13.40
 -11   3   3  461.85   13.30
 -10   3   3  157.08    4.80
 -10   3   3  150.18    4.70
  -9   3   3  524.45   15.10
  -9   3   3  527.65   15.10
  -8   3   3  764.32   21.70
  -8   3   3  759.12   21.60
  -7   3   3 2864.31   81.69
  -7   3   3 2901.51   81.89
   6  -3  -3  123.79    3.70
  -6   3   3  115.99    3.60
  -6   3   3  120.59    3.70
   5  -3  -3 2228.28   61.59
  -5   3   3 2166.38   61.89
  -5   3   3 2100.39   61.79
   4  -3  -3   68.29    2.20
  -4   3   3   70.09    2.30
  -4   3   3   66.69    2.00
   3  -3  -3  755.12   19.90
   3  -3  -3  678.43   19.40
  -3   3   3  633.14   19.50
  -3   3   3  675.73   19.30
   2  -3  -3  139.49    4.00
  -2   3   3  140.19    4.30
   1  -3  -3   53.39    1.60
   1  -3  -3   56.69    1.90
  -1   3   3   51.49    1.90
  -1   3   3   52.69    1.60
   0  -3  -3  689.03   19.40
   0  -3  -3  672.13   19.30
   0   3   3  710.13   19.60
   0   3   3  665.43   19.50
  -1  -3  -3 1317.47   37.00
  -1  -3  -3 1278.97   36.60
   1   3   3 1269.87   37.00
  -2  -3  -3   14.30    0.90
  -2  -3  -3   13.80    0.90
   2   3   3   13.60    1.10
  -3  -3  -3  136.39    4.10
  -3  -3  -3  128.59    4.10
   3   3   3  129.39    4.20
  -4  -3  -3    3.20    0.50
  -4  -3  -3    3.30    0.50
  -5  -3  -3    2.30    0.50
  -5  -3  -3    3.30    0.50
   5   3   3    2.80    0.60
  -6  -3  -3  212.78    6.50
  -7  -3  -3  125.99    4.30
  -8  -3  -3  345.57   10.40
  -9  -3  -3  507.15   15.00
 -10  -3  -3   79.99    3.40
 -11  -3  -3  156.38    5.60
 -12  -3  -3   21.00    2.50
 -13  -3  -3    0.90    1.00
 -18   4   3   -1.20    1.10
 -17   4   3   43.60    3.10
 -16   4   3   20.60    2.30
 -15   4   3   53.39    2.90
 -14   4   3  144.29    5.00
 -14   4   3  131.69    4.60
 -14   4   3  139.69    4.70
 -13   4   3   -0.10    0.40
 -13   4   3   -0.20    0.60
 -13   4   3   -0.20    0.70
 -12   4   3    8.40    1.10
 -12   4   3    5.40    0.80
 -12   4   3    6.50    0.70
 -11   4   3  368.76   10.80
 -10   4   3  155.38    4.90
  -9   4   3  687.03   19.70
   8  -4  -3 1007.30   28.80
  -8   4   3 1027.50   28.90
  -8   4   3 1024.30   28.80
   7  -4  -3 3467.95   94.69
  -7   4   3 3250.37   94.89
  -7   4   3 3304.17   94.39
   6  -4  -3  387.06   10.50
  -6   4   3  352.66   10.40
  -6   4   3  352.86   10.60
   5  -4  -3   91.39    2.80
  -5   4   3   85.39    2.60
  -5   4   3   84.69    2.90
   4  -4  -3  236.78    6.70
  -4   4   3  212.28    6.30
   3  -4  -3 1195.18   34.50
  -3   4   3 1191.88   34.60
   2  -4  -3 1790.72   50.99
  -2   4   3 1744.33   50.99
   1  -4  -3 2490.85   69.69
   1  -4  -3 2333.67   68.29
  -1   4   3 2472.25   69.59
   0  -4  -3   87.39    2.60
   0  -4  -3   85.09    2.90
   0   4   3   89.89    3.00
  -1  -4  -3 2088.49   57.69
  -1  -4  -3 1948.61   56.69
   1   4   3 1980.70   56.99
  -2  -4  -3  132.69    4.10
  -2  -4  -3  139.39    4.30
   2   4   3  133.99    4.40
  -3  -4  -3   60.79    2.20
  -3  -4  -3   58.39    2.10
   3   4   3   56.29    2.40
  -4  -4  -3  126.69    3.90
  -4  -4  -3  120.09    3.90
   4   4   3  118.19    4.10
  -5  -4  -3  709.33   20.20
  -5  -4  -3  691.73   20.20
   5   4   3  721.23   20.30
  -6  -4  -3   65.99    2.60
  -6  -4  -3   69.99    2.50
  -7  -4  -3  189.18    6.10
  -7  -4  -3  193.38    5.90
  -8  -4  -3  220.28    7.30
  -9  -4  -3    1.00    0.80
 -10  -4  -3  113.89    4.30
 -11  -4  -3   86.99    3.80
 -12  -4  -3   72.39    3.70
 -13  -4  -3  327.27   10.50
 -18   5   3    8.80    1.40
 -17   5   3   36.70    3.00
 -16   5   3   41.40    2.90
 -15   5   3   24.60    2.40
 -15   5   3   25.00    2.40
 -14   5   3   59.59    2.90
 -14   5   3   62.19    3.00
 -14   5   3   57.19    2.50
 -13   5   3  108.39    5.00
 -13   5   3  105.49    3.70
 -13   5   3  112.89    4.00
 -12   5   3  121.39    4.30
 -12   5   3  123.69    4.20
 -11   5   3   12.20    1.40
 -11   5   3   10.50    1.50
 -10   5   3  197.08    6.10
 -10   5   3  194.58    6.00
   9  -5  -3 1285.47   37.00
  -9   5   3 1336.57   37.20
   8  -5  -3  218.38    6.40
  -8   5   3  210.58    6.60
   7  -5  -3    4.80    0.90
  -7   5   3    2.90    0.30
   6  -5  -3  961.80   26.40
  -6   5   3  937.01   26.40
  -6   5   3  891.21   26.50
   5  -5  -3  995.10   27.90
  -5   5   3  957.80   28.00
  -5   5   3  997.60   27.80
   4  -5  -3  612.14   17.20
  -4   5   3  586.64   17.30
  -3   5   3  533.75   15.50
   2  -5  -3 3875.31  108.69
  -2   5   3 3754.72  109.09
   1  -5  -3 1650.43   46.80
   1  -5  -3 1768.42   48.30
  -1   5   3 1578.64   47.00
   0  -5  -3  264.07    7.80
   0  -5  -3  257.27    7.50
   0   5   3  263.57    7.90
  -1  -5  -3 2139.69   61.49
  -1  -5  -3 2253.27   62.29
   1   5   3 2117.69   62.09
  -2  -5  -3 1027.80   28.50
  -2  -5  -3  977.20   28.30
   2   5   3 1000.20   28.60
  -3  -5  -3  276.17    8.10
  -3  -5  -3  265.77    7.90
   3   5   3  268.67    8.20
  -4  -5  -3  196.08    5.90
  -4  -5  -3  193.28    5.80
   4   5   3  187.88    6.10
  -5  -5  -3    8.90    1.20
  -5  -5  -3    7.70    1.20
   5   5   3    8.40    1.60
  -6  -5  -3   43.50    2.00
  -6  -5  -3   41.80    2.10
  -7  -5  -3   58.89    2.50
  -7  -5  -3   58.19    2.60
  -8  -5  -3   31.70    1.90
  -8  -5  -3   29.30    2.20
  -9  -5  -3   -0.30    0.70
 -10  -5  -3  177.48    6.10
 -11  -5  -3    0.70    0.90
 -12  -5  -3  166.78    6.10
 -18   6   3    1.70    1.10
 -17   6   3    5.20    1.20
 -16   6   3   25.40    2.70
 -15   6   3   22.40    2.30
 -15   6   3   26.50    2.60
 -15   6   3   28.80    1.90
 -14   6   3   40.00    2.50
 -14   6   3   40.10    2.60
 -14   6   3   37.80    2.10
 -13   6   3  286.17    8.90
 -13   6   3  301.37    9.00
 -13   6   3  282.07    8.70
 -12   6   3   33.70    2.30
 -12   6   3   33.50    2.10
 -11   6   3    3.20    0.70
 -11   6   3    4.80    0.70
  10  -6  -3  461.35   13.20
 -10   6   3  453.45   13.40
 -10   6   3  447.56   13.20
   9  -6  -3  903.71   25.40
  -9   6   3  901.81   25.60
  -9   6   3  870.11   25.30
   8  -6  -3  196.58    5.90
  -8   6   3  192.08    6.10
  -8   6   3  189.08    5.80
   7  -6  -3    2.40    0.50
  -7   6   3    2.40    0.40
  -7   6   3    1.80    0.30
  -7   6   3    2.10    0.60
   6  -6  -3  279.77    8.00
  -6   6   3  260.57    7.80
  -6   6   3  270.27    8.20
  -6   6   3  264.07    7.70
   5  -6  -3    3.60    0.50
  -5   6   3    3.50    0.30
  -5   6   3    2.20    0.60
   3  -6  -3   35.20    1.70
  -3   6   3   29.80    1.80
   2  -6  -3 4013.30  115.99
  -2   6   3 4120.89  116.09
   1  -6  -3 3386.06   98.19
  -1   6   3 3495.35   98.99
   0  -6  -3  501.15   14.60
   0  -6  -3  502.55   14.20
   0   6   3  507.25   14.80
  -1  -6  -3  515.45   14.50
  -1  -6  -3  483.75   14.20
   1   6   3  497.55   14.70
  -2  -6  -3  312.27    9.20
  -2  -6  -3  325.77    9.50
   2   6   3  316.37    9.70
  -3  -6  -3  389.46   11.60
  -3  -6  -3  398.86   11.40
   3   6   3  393.56   11.80
  -4  -6  -3  460.65   13.60
  -4  -6  -3  481.75   13.80
   4   6   3  471.45   14.00
  -5  -6  -3    9.70    1.30
  -5  -6  -3   10.40    1.40
   5   6   3   10.40    1.80
  -6  -6  -3  751.52   21.60
  -6  -6  -3  745.23   21.50
  -7  -6  -3 1118.19   32.40
  -7  -6  -3 1128.39   32.00
  -8  -6  -3  131.69    4.60
  -8  -6  -3  128.89    5.60
  -9  -6  -3    7.50    1.10
 -10  -6  -3  286.47    9.10
 -11  -6  -3   67.19    3.50
 -12  -6  -3   73.69    3.90
 -18   7   3   21.60    3.10
 -17   7   3   39.20    3.10
 -16   7   3  218.78    7.40
 -16   7   3  222.38    7.50
 -15   7   3   13.90    1.70
 -15   7   3   13.90    2.20
 -15   7   3   13.60    2.60
 -14   7   3    1.20    0.60
 -14   7   3    2.10    0.90
 -14   7   3    2.20    1.00
 -13   7   3   91.29    3.60
 -13   7   3   95.59    3.90
 -12   7   3  436.26   12.90
 -12   7   3  423.36   12.70
  11  -7  -3  528.65   15.20
 -11   7   3  513.05   15.20
 -11   7   3  528.95   15.50
  10  -7  -3   86.09    3.10
 -10   7   3   84.89    3.00
 -10   7   3   88.39    3.40
   9  -7  -3    1.00    0.50
  -9   7   3    0.70    0.60
  -9   7   3    1.50    0.50
   8  -7  -3   50.39    2.10
  -8   7   3   50.89    2.40
  -8   7   3   48.30    1.90
   7  -7  -3   54.49    2.50
  -7   7   3   56.29    1.90
  -7   7   3   56.59    1.80
  -7   7   3   57.99    2.50
  -6   7   3   22.80    1.00
  -6   7   3   23.50    1.70
  -6   7   3   25.00    0.90
  -5   7   3   41.50    2.10
  -4   7   3  155.88    5.20
  -3   7   3  401.06   12.00
  -2   7   3  226.68    7.20
  -1   7   3  834.02   24.10
   0  -7  -3   21.80    1.00
   0  -7  -3   22.50    1.50
   0  -7  -3   24.50    1.00
   0   7   3   24.90    1.90
  -1  -7  -3  267.97    8.30
  -1  -7  -3  272.47    7.90
  -1  -7  -3  269.07    7.80
   1   7   3  279.17    8.50
  -2  -7  -3   98.79    3.20
  -2  -7  -3  100.89    3.60
   2   7   3  102.09    3.80
  -3  -7  -3   20.80    1.60
  -3  -7  -3   19.60    1.20
   3   7   3   19.70    1.90
  -4  -7  -3  581.34   17.20
  -4  -7  -3  586.34   16.90
   4   7   3  598.74   17.40
  -5  -7  -3  108.09    3.80
  -5  -7  -3  113.79    4.00
   5   7   3  108.69    4.30
  -6  -7  -3   88.69    3.30
  -6  -7  -3   87.29    3.40
  -6  -7  -3   89.59    3.10
  -7  -7  -3    1.40    0.50
  -7  -7  -3    2.10    0.70
  -7  -7  -3    0.70    0.70
  -8  -7  -3  291.67    9.00
  -8  -7  -3  305.77    9.20
  -8  -7  -3  297.27    9.20
  -9  -7  -3  132.59    4.80
  -9  -7  -3  129.09    4.70
 -10  -7  -3    1.50    0.90
 -11  -7  -3   71.29    3.70
 -18   8   3    2.90    1.40
 -17   8   3   29.00    3.10
 -17   8   3   28.20    4.60
 -16   8   3    2.80    1.40
 -16   8   3    2.80    1.10
 -15   8   3    1.30    1.20
 -15   8   3    1.50    1.00
 -15   8   3    1.10    0.70
 -14   8   3  268.17    8.60
 -14   8   3  276.27    8.90
 -14   8   3  281.57    8.40
 -13   8   3   19.00    2.50
 -13   8   3   17.70    2.00
  12  -8  -3   47.00    2.30
 -12   8   3   48.90    2.90
 -12   8   3   44.90    2.40
  11  -8  -3  356.56   10.20
 -11   8   3  338.97   10.60
 -11   8   3  332.27   10.10
  10  -8  -3  320.27    9.60
 -10   8   3  314.77    9.50
 -10   8   3  329.87   10.00
   9  -8  -3  207.48    6.20
  -9   8   3  195.88    6.00
  -9   8   3  198.18    6.60
   8  -8  -3   73.09    2.70
  -8   8   3   68.39    3.00
  -8   8   3   66.59    2.40
   7  -8  -3  561.34   15.30
  -7   8   3  531.75   15.50
  -7   8   3  504.55   14.80
  -7   8   3  499.95   14.90
   6  -8  -3  139.59    4.60
  -6   8   3  135.69    4.80
   5  -8  -3  136.99    4.50
  -5   8   3  132.29    4.70
   4  -8  -3 1505.65   42.30
  -4   8   3 1478.65   42.50
   3  -8  -3  570.44   16.60
  -3   8   3  569.54   16.80
   2  -8  -3  133.59    4.50
  -2   8   3  133.09    4.80
  -1   8   3    6.20    0.90
   0  -8  -3  744.43   21.60
   0  -8  -3  745.43   21.40
   0  -8  -3  761.92   21.90
   0   8   3  783.92   22.20
  -1  -8  -3   21.60    0.90
  -1  -8  -3   21.60    1.60
  -1  -8  -3   21.10    1.10
   1   8   3   19.90    1.90
  -2  -8  -3  123.19    4.30
  -2  -8  -3  125.79    3.80
  -2  -8  -3  124.49    3.90
   2   8   3  128.09    4.70
  -3  -8  -3    1.10    0.50
  -3  -8  -3    1.70    0.40
  -3  -8  -3    1.10    0.60
   3   8   3    2.50    0.90
  -4  -8  -3  137.99    4.80
  -4  -8  -3  145.19    4.30
  -4  -8  -3  134.29    4.40
   4   8   3  135.49    5.10
  -5  -8  -3   25.50    1.40
  -5  -8  -3   22.90    1.70
  -5  -8  -3   25.10    2.00
   5   8   3   21.90    2.50
  -6  -8  -3    0.40    0.80
  -6  -8  -3    1.20    0.70
  -6  -8  -3    1.50    0.50
  -7  -8  -3    8.10    1.20
  -7  -8  -3    7.40    1.00
  -8  -8  -3  244.68    7.80
  -8  -8  -3  236.58    7.40
  -8  -8  -3  237.98    7.60
  -9  -8  -3  470.45   14.00
  -9  -8  -3  462.05   14.00
 -10  -8  -3    1.00    1.00
 -17   9   3   81.29    5.20
 -17   9   3   84.79    4.20
 -16   9   3    3.80    1.10
 -16   9   3    2.30    1.50
 -15   9   3   49.60    2.50
 -15   9   3   49.90    3.70
 -15   9   3   49.99    3.00
 -14   9   3   19.60    1.70
 -14   9   3   13.30    2.00
 -14   9   3   23.10    3.00
  13  -9  -3  245.58    7.80
 -13   9   3  258.87    8.40
 -13   9   3  253.87    7.90
  12  -9  -3   23.50    1.90
 -12   9   3   24.10    1.90
 -12   9   3   22.40    2.60
  11  -9  -3   -0.70    0.60
 -11   9   3    0.40    1.00
 -11   9   3    1.00    0.60
  10  -9  -3  262.47    8.00
 -10   9   3  270.47    8.50
 -10   9   3  253.57    7.80
   9  -9  -3   42.60    2.10
  -9   9   3   38.70    1.80
  -9   9   3   39.90    2.50
   8  -9  -3   28.70    1.80
  -8   9   3   25.90    2.20
  -8   9   3   26.80    1.40
  -8   9   3   27.00    1.10
   7  -9  -3    2.90    0.70
  -7   9   3    3.00    0.70
  -7   9   3    3.00    0.40
   6  -9  -3  533.25   15.60
  -6   9   3  535.25   15.90
   5  -9  -3  304.37    9.00
  -5   9   3  287.47    9.30
   4  -9  -3   13.60    1.50
  -4   9   3   14.70    1.80
   3  -9  -3   25.20    1.70
  -3   9   3   22.10    1.90
   2  -9  -3 1045.60   30.20
  -2   9   3 1059.59   30.40
   1  -9  -3  255.17    7.90
  -1   9   3  254.67    8.20
   0  -9  -3  521.75   15.00
   0  -9  -3  543.25   15.70
   0  -9  -3  517.65   15.00
   0   9   3  542.75   16.00
  -1  -9  -3   24.20    1.00
  -1  -9  -3   21.70    1.20
  -1  -9  -3   23.80    1.70
   1   9   3   23.10    2.20
  -2  -9  -3  273.27    7.80
  -2  -9  -3  263.97    7.90
  -2  -9  -3  270.67    8.40
   2   9   3  268.97    8.70
  -3  -9  -3  351.96   10.10
  -3  -9  -3  352.76   10.60
  -3  -9  -3  318.57   10.40
   3   9   3  355.76   10.90
  -4  -9  -3   20.80    1.60
  -4  -9  -3   24.50    2.00
  -4  -9  -3   24.30    1.30
   4   9   3   24.40    2.70
  -5  -9  -3   83.59    2.80
  -5  -9  -3   74.59    3.00
  -5  -9  -3   80.89    3.40
   5   9   3   78.69    3.90
  -6  -9  -3  229.58    7.30
  -6  -9  -3  233.88    7.10
  -6  -9  -3  237.38    7.60
  -7  -9  -3   43.50    2.90
  -7  -9  -3   44.90    2.10
  -7  -9  -3   43.70    2.50
  -8  -9  -3   33.60    2.40
  -8  -9  -3   26.80    2.90
  -8  -9  -3   27.50    1.90
  -9  -9  -3    5.30    1.10
 -10  -9  -3  137.99    5.40
 -17  10   3    5.10    1.30
 -17  10   3    1.80    1.90
 -16  10   3   27.60    3.00
 -16  10   3   28.00    4.00
 -15  10   3   80.09    3.20
 -15  10   3   74.59    3.70
 -15  10   3   79.19    4.50
  14 -10  -3   57.59    2.90
 -14  10   3   61.29    3.30
 -14  10   3   66.49    2.70
 -14  10   3   66.49    4.00
  13 -10  -3    1.10    0.70
 -13  10   3    1.00    0.60
 -13  10   3    1.60    1.10
 -13  10   3    2.10    0.80
  12 -10  -3   -0.10    0.70
 -12  10   3    0.10    1.00
  11 -10  -3    5.80    0.80
 -11  10   3    9.30    1.60
 -11  10   3    5.60    1.20
  10 -10  -3  205.38    6.40
 -10  10   3  203.48    7.00
 -10  10   3  194.58    6.10
   9 -10  -3   38.00    2.20
  -9  10   3   37.50    2.70
  -9  10   3   35.70    1.50
  -9  10   3   40.60    1.80
   8 -10  -3   53.39    2.50
  -8  10   3   53.79    1.70
  -8  10   3   53.99    3.00
  -8  10   3   52.19    2.00
   7 -10  -3   47.00    2.30
  -7  10   3   43.50    2.70
   6 -10  -3  279.77    8.60
  -6  10   3  273.77    8.90
   5 -10  -3    2.10    0.60
  -5  10   3    1.30    0.70
   4 -10  -3   96.29    3.60
  -4  10   3   92.59    3.90
   3 -10  -3  140.99    4.90
  -3  10   3  146.29    5.30
   2 -10  -3  282.87    8.80
  -2  10   3  287.67    9.20
   1 -10  -3  665.93   18.90
  -1  10   3  619.54   19.10
   0 -10  -3   92.59    2.90
   0 -10  -3   95.59    2.80
   0 -10  -3   93.69    3.60
   0  10   3   89.19    4.00
  -1 -10  -3   17.90    1.20
  -1 -10  -3   19.00    1.80
  -1 -10  -3   17.80    0.90
   1  10   3   16.90    2.30
  -2 -10  -3  123.39    3.90
  -2 -10  -3  126.39    3.80
  -2 -10  -3  123.49    4.50
   2  10   3  125.79    5.00
  -3 -10  -3   20.00    1.50
  -3 -10  -3   22.50    2.00
  -3 -10  -3   22.10    1.20
   3  10   3   21.80    2.70
  -4 -10  -3    5.20    1.00
  -4 -10  -3    5.40    0.70
  -4 -10  -3    7.80    1.00
   4  10   3    4.90    1.30
  -5 -10  -3   59.69    2.60
  -5 -10  -3   63.49    2.30
  -5 -10  -3   59.09    3.10
   5  10   3   58.69    3.80
  -6 -10  -3  739.33   21.10
  -6 -10  -3  722.13   21.40
  -6 -10  -3  728.73   20.90
  -7 -10  -3  315.47   10.20
  -7 -10  -3  320.17    9.70
  -7 -10  -3  336.07   10.00
  -8 -10  -3    1.40    0.90
  -8 -10  -3   -1.10    1.20
  -9 -10  -3    7.90    1.30
 -17  11   3   79.49    4.30
 -16  11   3  243.08    7.90
 -16  11   3  229.08    7.90
  15 -11  -3    7.20    1.10
 -15  11   3   10.90    2.00
  14 -11  -3   34.30    2.60
 -14  11   3   39.00    2.10
 -14  11   3   29.80    5.70
 -14  11   3   33.20    2.70
  13 -11  -3    9.00    1.10
 -13  11   3   11.60    2.00
 -13  11   3    8.60    1.70
  12 -11  -3  459.35   13.40
 -12  11   3  445.56   14.00
 -12  11   3  436.36   13.20
 -12  11   3  460.65   13.00
  11 -11  -3  102.89    3.90
 -11  11   3   99.29    3.60
 -11  11   3  103.59    4.60
  10 -11  -3   17.40    2.00
 -10  11   3   16.90    2.60
 -10  11   3   18.00    1.60
 -10  11   3   20.20    1.20
   9 -11  -3  370.46   11.10
  -9  11   3  363.86   10.60
  -9  11   3  377.26   11.60
  -9  11   3  353.86   10.40
   8 -11  -3   37.30    2.20
  -8  11   3   36.70    2.80
   7 -11  -3   87.29    3.50
  -7  11   3   88.19    4.00
   6 -11  -3   78.99    3.30
  -6  11   3   79.29    3.80
   5 -11  -3   68.39    3.00
  -5  11   3   67.49    3.50
   4 -11  -3  500.75   14.80
  -4  11   3  487.45   15.10
   3 -11  -3   74.59    3.10
  -3  11   3   72.99    3.60
  -2  11   3   19.40    2.40
   1 -11  -3  159.58    5.60
  -1  11   3  165.58    6.10
   0 -11  -3    1.90    0.80
   0  11   3    2.70    1.10
  -1 -11  -3  116.59    4.30
  -1 -11  -3  114.69    3.40
  -1 -11  -3  111.59    3.50
   1  11   3   94.29    6.60
  -2 -11  -3  313.67    9.20
  -2 -11  -3  311.07    9.90
  -2 -11  -3  321.07    9.10
   2  11   3  314.97   10.40
  -3 -11  -3   -0.60    0.70
  -3 -11  -3    0.00    0.40
  -3 -11  -3   -0.50    0.50
   3  11   3   -1.20    1.00
  -4 -11  -3  250.67    8.20
  -4 -11  -3  248.98    7.40
  -4 -11  -3  246.38    7.60
   4  11   3  259.17    8.80
  -5 -11  -3  260.57    7.70
  -5 -11  -3  247.98    8.40
  -5 -11  -3  260.97    7.90
   5  11   3  257.47    9.00
  -6 -11  -3   89.79    3.20
  -6 -11  -3   88.79    4.20
  -6 -11  -3   81.49    4.60
  -7 -11  -3   -0.50    1.20
  -7 -11  -3   -0.10    0.90
  -7 -11  -3    0.20    0.70
  -8 -11  -3    0.80    1.00
 -16  12   3   73.69    4.00
 -16  12   3   72.59    5.30
 -16  12   3   62.09    3.40
  15 -12  -3   17.20    2.80
 -15  12   3   21.80    2.20
 -15  12   3   23.40    2.80
  14 -12  -3    7.30    1.10
 -14  12   3   10.20    1.80
  13 -12  -3  113.29    4.50
 -13  12   3  118.99    5.50
 -13  12   3  116.99    4.40
 -13  12   3  128.69    4.00
  12 -12  -3    5.30    0.90
 -12  12   3    6.10    0.90
 -12  12   3    5.30    1.40
 -12  12   3    4.80    0.60
  11 -12  -3   24.90    2.20
 -11  12   3   29.20    1.90
 -11  12   3   26.80    3.20
 -11  12   3   26.40    1.40
  10 -12  -3   78.69    3.40
 -10  12   3   84.19    2.90
 -10  12   3   75.39    2.60
 -10  12   3   82.99    4.20
   9 -12  -3    0.10    0.60
  -9  12   3   -0.10    0.90
  -8  12   3    7.40    1.20
   7 -12  -3  209.38    6.90
  -7  12   3  212.48    7.50
   6 -12  -3  682.33   19.80
  -6  12   3  662.43   20.20
   5 -12  -3   57.99    2.90
  -5  12   3   57.49    3.50
   4 -12  -3   40.70    2.50
  -4  12   3   36.50    3.00
   3 -12  -3   27.30    2.10
  -3  12   3   25.70    2.70
   2 -12  -3    1.90    0.80
  -2  12   3    3.30    1.20
   1 -12  -3   24.90    2.10
  -1  12   3   26.90    2.80
   0 -12  -3  376.76   11.80
   0  12   3  387.56   12.30
  -1 -12  -3    9.60    1.20
  -1 -12  -3    7.90    0.80
   1  12   3    6.80    1.30
  -2 -12  -3   63.19    2.50
  -2 -12  -3   63.59    3.20
  -2 -12  -3   65.79    2.20
   2  12   3   67.69    4.00
  -3 -12  -3  228.48    7.00
  -3 -12  -3  233.88    6.80
  -3 -12  -3  223.28    7.70
   3  12   3  233.18    8.30
  -4 -12  -3  146.19    4.80
  -4 -12  -3  147.29    4.60
  -4 -12  -3  140.29    5.60
   4  12   3  150.68    6.20
  -5 -12  -3   54.79    2.70
  -5 -12  -3   46.50    3.40
  -5 -12  -3   52.19    2.30
  -6 -12  -3    4.60    0.80
  -6 -12  -3    6.90    1.10
  -7 -12  -3   29.70    2.70
  -7 -12  -3   35.00    2.90
 -16  13   3   34.30    5.20
 -16  13   3   38.60    3.50
 -15  13   3   26.90    3.10
 -15  13   3   23.90    4.60
  14 -13  -3    0.20    1.10
 -14  13   3    0.20    1.60
 -14  13   3    3.20    0.80
 -14  13   3    2.30    1.00
  13 -13  -3  238.48    8.00
 -13  13   3  253.07    9.00
 -13  13   3  243.48    7.70
 -13  13   3  252.17    7.40
  12 -13  -3  113.49    4.50
 -12  13   3  116.99    5.60
 -12  13   3  115.59    4.10
 -12  13   3  120.19    3.80
  11 -13  -3    0.90    0.80
 -11  13   3    2.10    0.70
 -11  13   3    2.60    0.50
 -11  13   3    1.40    1.40
  10 -13  -3   -0.10    0.70
 -10  13   3    1.10    1.20
 -10  13   3    1.50    0.40
   9 -13  -3   12.10    2.00
  -9  13   3    7.10    1.30
   8 -13  -3   95.49    4.00
  -8  13   3   95.49    4.60
   7 -13  -3  139.29    5.10
  -7  13   3  144.19    5.80
   6 -13  -3   42.10    2.60
  -6  13   3   42.50    3.30
   5 -13  -3   92.89    3.90
  -5  13   3   94.09    4.50
   4 -13  -3   73.19    3.50
  -4  13   3   79.39    4.20
   3 -13  -3  275.77    8.90
  -3  13   3  276.27    9.50
   2 -13  -3   25.10    2.10
  -2  13   3   22.60    2.90
  -1  13   3  713.33   21.60
   0 -13  -3   -0.40    0.70
   0  13   3    0.50    1.20
  -1 -13  -3    0.50    1.00
  -1 -13  -3    0.50    0.40
   1  13   3    1.10    1.10
  -2 -13  -3  116.09    3.90
  -2 -13  -3  114.49    3.60
   2  13   3  119.89    5.40
  -3 -13  -3   28.10    1.60
  -3 -13  -3   28.10    2.00
   3  13   3   26.90    3.60
  -4 -13  -3   38.70    1.90
  -4 -13  -3   41.20    2.40
   4  13   3   38.10    3.90
  -5 -13  -3   17.20    2.30
  -6 -13  -3  351.56   10.80
 -15  14   3   -1.40    2.00
 -15  14   3    1.00    1.60
 -14  14   3   22.40    4.40
 -14  14   3   26.30    2.80
 -13  14   3   74.49    4.90
 -13  14   3   68.89    3.30
 -12  14   3    0.40    0.80
 -12  14   3   -1.20    1.40
 -11  14   3    0.40    0.40
 -11  14   3    0.30    1.30
 -10  14   3   94.59    4.90
  -9  14   3   24.30    3.20
  -8  14   3  170.58    6.80
  -7  14   3   57.39    3.80
  -6  14   3  328.17   11.00
  -5  14   3  180.28    7.00
  -4  14   3  116.69    5.30
  -3  14   3    4.60    1.20
  -2  14   3   89.99    4.60
  -1  14   3    2.40    1.20
   0  14   3    4.30    1.30
   1  14   3   84.09    4.80
  -2 -14  -3  161.68    5.20
   2  14   3  170.58    7.00
   3  14   3   10.60    1.80
  -4 -14  -3   46.60    2.60
   4  14   3   43.10    4.50
 -14  15   3    2.70    2.10
 -13  15   3    9.10    2.00
 -12  15   3   60.19    4.90
 -11  15   3   27.40    4.00
 -10  15   3   -1.00    1.40
  -9  15   3   91.49    5.00
  -8  15   3  596.14   18.60
  -7  15   3    4.10    1.50
  -6  15   3    6.10    1.50
  -4  15   3    7.20    1.30
  -3  15   3    9.60    1.60
  -2  15   3   -0.20    1.10
  -1  15   3  246.48    9.10
   0  15   3  124.79    5.90
   1  15   3    1.60    1.30
   2  15   3   86.19    5.20
   3  15   3   54.29    4.70
 -13  16   3    5.00    2.10
 -12  16   3   -1.00    1.80
 -11  16   3   98.89    5.80
 -10  16   3   56.19    4.50
  -9  16   3   42.30    4.00
  -8  16   3   26.70    3.40
  -7  16   3   40.90    3.90
  -6  16   3    3.60    1.30
  -5  16   3    0.50    1.40
  -4  16   3    2.70    1.30
  -3  16   3   -0.30    1.30
  -2  16   3  157.18    6.70
  -1  16   3   28.20    3.70
   0  16   3   22.60    3.70
   1  16   3    8.00    1.70
   2  16   3   49.60    4.80
 -11  17   3   38.50    4.80
 -10  17   3  116.09    6.20
  -9  17   3  101.49    5.60
  -8  17   3    2.10    1.40
  -7  17   3  176.88    7.40
  -6  17   3   94.69    5.20
  -5  17   3   -1.40    1.30
  -4  17   3    4.00    1.50
  -3  17   3    4.30    1.40
  -2  17   3  134.09    6.40
  -1  17   3   -1.90    1.40
   0  17   3   57.99    4.90
  -9  18   3   29.70    4.40
  -8  18   3  127.79    6.70
  -7  18   3   32.00    3.80
  -6  18   3    2.80    1.60
  -5  18   3    5.20    2.40
  -1  18  -4   -0.10    0.70
  -2  18  -4   -0.10    0.50
  -3  18  -4   -0.60    0.50
  -4  18  -4   -0.80    0.50
  -5  18  -4   -0.50    0.50
  -6  18  -4   -0.50    0.70
   0  17  -4   -0.20    0.50
   0 -17   4    0.00    0.80
  -1  17  -4    0.30    0.50
   1 -17   4    0.00    0.80
  -2  17  -4   31.60    1.60
   2 -17   4   31.80    2.20
  -3  17  -4   87.89    2.90
   3 -17   4   87.49    3.30
  -4  17  -4   -0.10    0.50
   4 -17   4    0.90    0.80
  -5  17  -4  176.98    5.20
   5 -17   4  164.18    5.50
  -6  17  -4   74.59    2.70
   6 -17   4   66.79    3.10
  -7  17  -4   -0.80    0.70
   7 -17   4    0.40    1.20
  -8  17  -4    0.50    0.80
  -9  17  -4   75.29    3.40
 -10  17  -4   11.90    1.40
  -5 -16   4    0.10    1.30
  -4 -16   4   14.80    1.80
  -3 -16   4    9.40    1.70
  -2 -16   4   45.40    2.30
   1  16  -4    1.30    0.50
  -1 -16   4    0.70    0.70
   0  16  -4   35.50    1.70
   0 -16   4   33.10    2.00
  -1  16  -4   91.79    3.00
   1 -16   4   85.89    3.30
  -2  16  -4   24.50    1.40
   2 -16   4   25.40    1.90
  -3  16  -4   -0.20    0.40
   3 -16   4    0.40    0.70
  -4  16  -4   51.09    2.00
   4 -16   4   52.49    2.50
  -5  16  -4  109.69    3.60
   5 -16   4  107.19    3.90
  -6  16  -4  180.28    5.50
   6 -16   4  173.08    5.70
  -7  16  -4   13.20    1.70
   7 -16   4   13.50    2.10
  -8  16  -4   20.20    2.00
   8 -16   4   20.00    2.20
  -9  16  -4    1.70    0.90
   9 -16   4    1.70    0.90
 -10  16  -4   17.60    2.50
 -11  16  -4   -1.60    1.10
  -7 -15   4    3.50    0.80
  -6 -15   4   -0.70    0.70
  -5 -15   4   52.49    2.40
  -4 -15   4  214.48    6.60
  -3 -15   4   32.10    1.80
   2  15  -4   35.60    1.70
  -2 -15   4   34.10    1.90
   1  15  -4  214.58    6.30
  -1 -15   4  206.58    6.40
   0  15  -4  212.28    6.20
   0 -15   4  202.08    6.30
  -1  15  -4   23.20    1.30
   1 -15   4   22.00    1.60
  -2  15  -4  295.47    8.20
   2 -15   4  264.07    8.70
  -3  15  -4   76.49    2.60
   3 -15   4   85.39    5.50
   3 -15   4   73.39    3.10
  -4  15  -4  836.52   23.20
   4 -15   4  796.72   24.20
   4 -15   4  817.72   23.30
  -5  15  -4   75.69    2.70
   5 -15   4   76.99    3.90
   5 -15   4   72.79    3.00
  -6  15  -4   11.50    1.50
   6 -15   4   10.00    1.80
   6 -15   4    8.50    1.30
  -7  15  -4   10.00    1.70
   7 -15   4   12.40    1.90
   7 -15   4    8.30    1.40
  -8  15  -4   14.60    1.90
   8 -15   4   14.10    1.90
   8 -15   4    8.80    1.50
  -9  15  -4    4.30    1.00
   9 -15   4    5.20    0.90
   9 -15   4    5.10    1.30
 -10  15  -4    1.40    1.00
  10 -15   4    4.00    1.40
 -11  15  -4   52.89    3.20
  11 -15   4   48.80    3.90
 -12  15  -4  402.16   12.40
  -7 -14   4   -0.10    0.60
  -6 -14   4    2.50    0.60
  -5 -14   4  429.76   12.50
  -4 -14   4    1.10    0.50
   3  14  -4   19.30    1.30
  -3 -14   4   15.70    1.40
   2  14  -4    9.00    1.00
  -2 -14   4    7.20    1.20
   1  14  -4   22.50    1.20
  -1 -14   4   22.50    2.30
  -1 -14   4   20.60    1.50
   0  14  -4  177.08    5.20
   0 -14   4  170.78    6.30
   0 -14   4  172.48    5.30
  -1  14  -4   -0.30    0.30
   1 -14   4    0.80    0.80
  -2  14  -4  221.18    6.40
   2 -14   4  212.28    6.90
   2 -14   4  215.48    7.40
  -3  14  -4   98.79    3.10
   3 -14   4   86.39    4.00
  -4  14  -4    1.50    0.50
   4 -14   4    1.30    0.60
   4 -14   4    2.10    1.00
  -5  14  -4   33.00    1.70
   5 -14   4   31.90    2.70
   5 -14   4   35.20    1.90
  -6  14  -4    4.90    0.70
   6 -14   4    5.80    0.80
   6 -14   4    5.20    1.20
  -7  14  -4   22.50    1.90
   7 -14   4   24.50    1.90
   7 -14   4   18.10    2.50
  -8  14  -4  159.48    5.30
   8 -14   4  157.28    5.20
   8 -14   4  154.48    5.80
  -9  14  -4   46.40    2.70
   9 -14   4   43.60    3.20
   9 -14   4   47.40    2.50
 -10  14  -4   89.59    3.80
  10 -14   4   89.89    4.30
 -11  14  -4    5.70    1.20
  11 -14   4    6.30    1.40
 -12  14  -4  268.17    8.80
  12 -14   4  267.17    9.80
 -13  14  -4   94.19    4.60
  -8 -13   4   72.59    2.90
  -7 -13   4   19.90    1.50
  -6 -13   4  187.28    5.80
  -5 -13   4   26.70    1.60
  -5 -13   4   26.60    2.90
  -4 -13   4   12.60    2.10
  -4 -13   4    9.70    1.20
   3  13  -4  778.12   22.50
  -3 -13   4  805.12   22.40
  -3 -13   4  783.42   23.40
   2  13  -4  758.92   21.60
  -2 -13   4  753.32   21.60
  -2 -13   4  765.72   22.60
   1  13  -4   12.80    1.00
  -1 -13   4   13.70    2.00
  -1 -13   4   10.00    1.20
   0  13  -4   60.29    2.10
   0 -13   4   59.59    3.20
  -1  13  -4   26.30    1.20
   1 -13   4   26.50    2.30
   1 -13   4   24.70    1.50
  -2  13  -4  221.08    6.50
   2 -13   4  212.78    6.60
   2 -13   4  223.58    7.40
  -3  13  -4    2.70    0.50
   3 -13   4    2.00    0.80
   3 -13   4    3.50    0.60
  -4  13  -4   32.20    1.60
   4 -13   4   32.80    2.50
   4 -13   4   26.50    2.20
  -5  13  -4   91.39    3.10
   5 -13   4   88.79    3.90
   5 -13   4   90.09    3.20
  -6  13  -4  440.26   12.80
   6 -13   4  442.06   12.80
   6 -13   4  430.76   13.40
  -7  13  -4   16.20    1.80
   7 -13   4   17.90    1.70
   7 -13   4   12.50    2.30
  -8  13  -4    3.00    0.90
   8 -13   4    2.00    1.00
   8 -13   4    3.00    0.80
  -9  13  -4    3.90    1.00
   9 -13   4    3.60    1.00
   9 -13   4    4.70    0.80
 -10  13  -4   95.69    4.00
  10 -13   4   97.19    4.20
 -11  13  -4   32.80    2.80
  11 -13   4   36.00    2.90
 -12  13  -4    0.00    1.10
  12 -13   4   -0.10    1.10
 -13  13  -4  101.49    4.60
  -8 -12   4  308.47    9.20
  -7 -12   4  148.99    5.80
  -7 -12   4  147.89    4.70
  -6 -12   4   53.19    3.10
  -6 -12   4   52.79    2.10
  -5 -12   4  224.38    7.80
  -5 -12   4  235.08    6.90
   4  12  -4  256.27    7.60
  -4 -12   4  255.77    8.50
  -4 -12   4  254.67    7.60
   3  12  -4   94.79    3.10
  -3 -12   4   94.69    4.00
  -3 -12   4   96.39    3.10
   2  12  -4  182.78    5.60
  -2 -12   4  184.68    6.50
  -2 -12   4  188.08    5.60
   1  12  -4   88.49    2.90
  -1 -12   4   91.69    3.90
   0  12  -4  403.46   11.70
   0 -12   4  405.96   11.80
   0 -12   4  416.46   12.60
  -1  12  -4  103.59    3.30
   1 -12   4  108.29    4.20
   1 -12   4  104.29    3.40
  -2  12  -4  155.28    4.70
   2 -12   4  155.38    5.60
   2 -12   4  159.58    4.90
  -3  12  -4    7.40    1.00
   3 -12   4   10.00    1.80
   3 -12   4    8.30    1.20
  -4  12  -4  464.25   13.40
   4 -12   4  470.45   14.20
  -5  12  -4   43.80    2.00
   5 -12   4   43.50    2.70
   5 -12   4   46.20    2.00
  -6  12  -4   36.60    2.00
   6 -12   4   36.90    1.90
   6 -12   4   36.30    2.60
  -7  12  -4   34.00    2.10
   7 -12   4   33.40    2.50
   7 -12   4   36.90    2.00
  -8  12  -4    2.00    0.90
   8 -12   4    2.40    0.70
   8 -12   4    0.50    0.90
  -9  12  -4    2.90    0.90
   9 -12   4    3.60    1.00
   9 -12   4    5.10    0.80
 -10  12  -4    9.10    1.10
  10 -12   4    8.70    1.10
 -11  12  -4    2.10    1.00
  11 -12   4    2.50    1.00
 -12  12  -4   -0.10    1.00
  12 -12   4   -1.00    0.90
 -13  12  -4   72.49    3.80
 -14  12  -4   44.70    3.50
 -10 -11   4   59.69    4.10
  -9 -11   4  201.38    6.30
  -9 -11   4  205.48    7.40
  -8 -11   4  337.27   10.10
  -8 -11   4  346.07   11.00
  -7 -11   4  440.96   12.60
  -7 -11   4  429.66   13.60
  -6 -11   4    1.50    0.50
  -6 -11   4    1.10    0.80
  -5 -11   4  257.67    7.40
  -5 -11   4  241.98    8.30
   4  11  -4   95.99    3.20
  -4 -11   4   93.29    4.00
  -4 -11   4   97.79    3.10
   3  11  -4    6.30    0.90
  -3 -11   4    6.80    0.90
  -3 -11   4    5.50    1.00
   2  11  -4   26.70    1.30
  -2 -11   4   26.60    2.10
   1  11  -4 1444.56   40.10
  -1 -11   4 1367.26   39.70
  -1 -11   4 1417.26   40.50
   0  11  -4 1532.45   41.40
   0 -11   4 1437.56   41.70
   0 -11   4 1397.76   41.00
  -1  11  -4    4.60    0.50
   1 -11   4    5.30    0.90
   1 -11   4    4.20    0.50
  -2  11  -4  451.15   13.00
   2 -11   4  455.85   13.70
   2 -11   4  451.95   13.00
  -3  11  -4  152.68    4.70
   3 -11   4  159.48    4.80
   3 -11   4  152.68    5.40
  -4  11  -4  138.19    4.30
   4 -11   4  138.29    4.40
   4 -11   4  138.59    4.90
  -5  11  -4    8.90    1.30
   5 -11   4    9.00    1.80
   5 -11   4   12.20    1.30
  -6  11  -4    0.50    0.60
   6 -11   4    0.70    0.60
   6 -11   4    0.90    0.70
  -7  11  -4  456.95   13.60
   7 -11   4  466.75   13.50
   7 -11   4  464.05   13.80
  -8  11  -4  280.27    8.60
   8 -11   4  274.67    8.70
   8 -11   4  278.27    8.40
  -9  11  -4   33.70    2.40
   9 -11   4   37.10    2.40
   9 -11   4   36.30    2.10
 -10  11  -4  148.09    5.20
  10 -11   4  147.39    5.10
 -11  11  -4   18.40    2.30
  11 -11   4   16.00    2.00
 -12  11  -4  138.59    5.10
  12 -11   4  128.09    4.60
 -13  11  -4  199.28    7.00
 -14  11  -4    9.10    1.40
 -12 -10   4   55.49    4.40
 -11 -10   4   77.89    4.40
 -10 -10   4   51.79    3.60
  -9 -10   4  220.68    7.80
  -9 -10   4  231.68    6.90
  -8 -10   4  321.17    9.40
  -8 -10   4  312.17   10.20
  -7 -10   4   22.90    1.30
  -7 -10   4   18.90    2.30
  -6 -10   4   86.29    2.90
  -6 -10   4   83.69    3.80
   5  10  -4  343.67   10.10
  -5 -10   4  345.47   10.00
  -5 -10   4  348.97   10.90
   4  10  -4    0.00    0.30
  -4 -10   4    0.30    0.30
  -4 -10   4    0.20    0.60
   3  10  -4  613.24   17.10
  -3 -10   4  582.24   17.10
  -3 -10   4  599.34   17.80
   2  10  -4  881.21   24.90
  -2 -10   4  893.81   24.90
  -2 -10   4  864.61   25.60
   1  10  -4   30.50    1.30
  -1 -10   4   31.70    2.20
  -1 -10   4   34.20    1.40
   0  10  -4   41.50    1.50
   0 -10   4   39.60    1.60
   0 -10   4   38.90    2.30
  -1  10  -4   11.40    0.90
   1 -10   4   13.40    1.60
   1 -10   4   13.20    1.00
  -2  10  -4  168.48    5.10
   2 -10   4  176.48    5.80
   2 -10   4  170.38    5.20
  -3  10  -4   35.30    1.50
   3 -10   4   36.20    1.60
   3 -10   4   34.40    2.10
  -4  10  -4   18.80    1.30
   4 -10   4   19.40    1.30
   4 -10   4   20.20    1.70
  -5  10  -4  230.68    6.90
   5 -10   4  226.88    7.30
   5 -10   4  230.58    6.90
  -6  10  -4  224.78    6.90
   6 -10   4  224.58    7.20
   6 -10   4  229.28    6.90
  -7  10  -4  331.27    9.90
   7 -10   4  333.47    9.80
   7 -10   4  327.97   10.10
  -8  10  -4  419.16   12.30
   8 -10   4  411.56   12.40
   8 -10   4  416.76   12.20
  -9  10  -4   58.49    2.90
   9 -10   4   60.59    2.60
   9 -10   4   60.19    2.80
 -10  10  -4   22.70    2.20
  10 -10   4   19.90    2.30
 -11  10  -4  138.29    5.10
  11 -10   4  141.49    4.60
 -12  10  -4   57.89    3.20
 -13  10  -4   27.40    2.80
 -14  10  -4    0.80    1.20
 -13  -9   4   46.90    5.00
 -12  -9   4  164.58    6.50
 -11  -9   4    1.10    1.20
 -10  -9   4  703.03   20.70
 -10  -9   4  682.13   19.90
  -9  -9   4    4.10    1.10
  -8  -9   4  123.29    4.80
  -8  -9   4  122.99    4.00
  -7  -9   4  382.76   11.40
  -7  -9   4  403.06   12.20
  -6  -9   4  294.97    8.70
  -6  -9   4  303.27    9.50
   5   9  -4  183.38    5.50
  -5  -9   4  180.88    6.20
  -5  -9   4  182.78    5.50
   4   9  -4    3.40    0.40
  -4  -9   4    3.60    0.80
  -4  -9   4    3.00    0.40
   3   9  -4  499.95   14.50
  -3  -9   4  498.05   14.50
  -3  -9   4  523.25   15.20
   2   9  -4 2112.39   59.19
  -2  -9   4 2151.38   59.19
  -2  -9   4 1984.10   59.09
   1   9  -4  166.48    4.90
  -1  -9   4  169.78    5.70
  -1  -9   4  165.58    5.00
   0   9  -4  149.99    4.50
   0  -9   4  152.48    5.20
   0  -9   4  152.18    4.60
  -1   9  -4  224.68    6.60
   1  -9   4  228.18    6.70
   1  -9   4  228.18    7.20
  -2   9  -4   97.99    3.10
   2  -9   4   97.99    3.20
   2  -9   4   97.69    3.70
  -3   9  -4  147.09    4.50
   3  -9   4  143.99    5.00
   3  -9   4  149.09    4.50
  -4   9  -4   77.29    2.60
   4  -9   4   75.39    2.60
   4  -9   4   71.39    3.10
  -5   9  -4  572.44   15.50
   5  -9   4  498.95   15.60
  -6   9  -4  791.62   22.90
   6  -9   4  820.12   22.80
   6  -9   4  784.82   23.10
  -7   9  -4   54.09    2.50
   7  -9   4   53.19    2.50
   7  -9   4   53.79    2.30
  -8   9  -4    1.50    0.80
   8  -9   4    3.20    0.70
   8  -9   4    2.40    0.60
  -9   9  -4  229.68    7.30
   9  -9   4  229.98    7.00
   9  -9   4  228.78    7.10
 -10   9  -4   57.89    2.90
  10  -9   4   57.79    2.40
 -11   9  -4  119.19    4.60
 -12   9  -4   27.30    2.60
 -13   9  -4  115.89    4.80
 -14   9  -4    5.30    1.30
 -15   9  -4    3.80    1.30
 -13  -8   4    1.30    1.40
 -12  -8   4  198.98    7.20
 -11  -8   4   27.50    2.90
 -10  -8   4   45.90    3.00
 -10  -8   4   44.20    2.00
  -9  -8   4    8.80    1.10
  -9  -8   4    8.10    1.20
  -8  -8   4    2.90    0.50
  -8  -8   4    3.10    0.90
  -7  -8   4   -0.60    0.70
  -7  -8   4    0.30    0.40
  -6  -8   4   76.79    2.50
  -6  -8   4   66.79    3.10
   5   8  -4  871.61   25.40
  -5  -8   4  927.31   26.00
  -5  -8   4  890.41   25.30
   4   8  -4   58.59    2.00
  -4  -8   4   50.89    2.40
  -4  -8   4   60.09    2.70
   3   8  -4   22.90    1.10
  -3  -8   4   22.70    1.10
  -3  -8   4   21.80    1.70
   2   8  -4   17.80    0.90
  -2  -8   4   15.90    1.60
  -2  -8   4   16.30    0.90
   1   8  -4   52.69    1.80
  -1  -8   4   52.79    2.50
  -1  -8   4   54.69    1.80
   0   8  -4   41.90    1.50
   0  -8   4   39.30    2.50
   0  -8   4   44.90    1.60
  -1   8  -4  215.48    6.20
   1  -8   4  224.88    6.30
   1  -8   4  198.38    7.00
  -2   8  -4  185.18    5.50
   2  -8   4  182.78    5.50
   2  -8   4  181.78    5.90
  -3   8  -4   40.80    1.70
   3  -8   4   40.50    1.70
   3  -8   4   38.70    2.10
  -4   8  -4  415.06   12.10
   4  -8   4  426.46   12.10
   4  -8   4  409.26   12.30
  -5   8  -4   87.69    3.10
   5  -8   4   85.79    3.20
  -6   8  -4  187.28    5.80
   6  -8   4  189.98    5.80
   6  -8   4  183.48    5.90
  -7   8  -4  502.85   14.80
   7  -8   4  507.75   14.70
   7  -8   4  508.15   14.70
  -8   8  -4  186.68    6.00
   8  -8   4  184.58    5.80
   8  -8   4  186.88    5.90
  -9   8  -4  398.46   11.80
   9  -8   4  390.06   11.50
   9  -8   4  394.56   11.70
 -10   8  -4  116.59    4.40
 -11   8  -4  162.98    5.70
 -12   8  -4  106.59    4.30
 -13   8  -4   24.60    2.60
 -14   8  -4    9.40    1.40
 -15   8  -4   22.20    3.00
 -13  -7   4    9.10    1.50
 -12  -7   4    6.60    1.30
 -11  -7   4  176.28    5.60
 -11  -7   4  174.98    6.40
 -10  -7   4  246.28    8.20
 -10  -7   4  249.68    7.50
  -9  -7   4  781.02   22.80
  -9  -7   4  773.92   22.20
  -8  -7   4   54.29    2.90
  -8  -7   4   56.09    2.10
  -7  -7   4   23.90    1.90
  -7  -7   4   24.60    1.30
   6   7  -4  122.39    3.80
  -6  -7   4  120.79    3.80
  -6  -7   4  120.59    4.40
   5   7  -4 1069.09   31.50
  -5  -7   4 1107.09   32.00
  -5  -7   4 1165.68   31.90
   4   7  -4   46.60    1.70
  -4  -7   4   45.30    2.30
  -4  -7   4   45.90    1.60
   3   7  -4  294.97    8.60
  -3  -7   4  301.37    8.60
   2   7  -4  295.07    8.70
  -2  -7   4  314.07    9.40
  -2  -7   4  303.57    8.70
   1   7  -4   25.10    1.10
  -1  -7   4   25.70    1.80
  -1  -7   4   25.30    1.10
   0   7  -4  764.12   21.30
   0  -7   4  741.63   21.50
   0  -7   4  725.43   21.00
  -1   7  -4   23.90    1.10
   1  -7   4   22.60    1.20
   1  -7   4   20.40    1.70
  -2   7  -4  198.98    5.80
   2  -7   4  195.58    5.90
   2  -7   4  195.38    6.20
  -3   7  -4   31.40    1.50
   3  -7   4   29.10    1.80
   3  -7   4   30.00    1.40
  -4   7  -4    1.20    0.50
   4  -7   4    1.00    0.50
   4  -7   4    0.60    0.40
  -5   7  -4    8.00    1.30
   5  -7   4    8.60    1.20
  -6   7  -4    6.60    0.70
   6  -7   4    7.70    1.20
   6  -7   4    8.40    1.20
  -7   7  -4 1584.34   45.30
   7  -7   4 1628.94   45.30
   7  -7   4 1593.44   45.20
  -8   7  -4  735.53   21.20
   8  -7   4  735.43   21.10
   8  -7   4  731.93   20.90
  -9   7  -4   72.39    3.10
 -10   7  -4    0.90    0.80
 -11   7  -4   47.50    2.70
 -12   7  -4   18.60    2.30
 -13   7  -4  116.99    4.80
 -14   7  -4  172.78    6.30
 -15   7  -4  472.85   14.60
 -14  -6   4   52.29    3.80
 -13  -6   4    1.20    1.20
 -12  -6   4   19.70    2.70
 -11  -6   4  408.96   12.30
 -11  -6   4  429.76   12.90
 -10  -6   4  676.43   19.20
 -10  -6   4  659.33   19.70
  -9  -6   4   37.90    1.80
  -9  -6   4   40.60    2.50
  -8  -6   4  336.97   10.30
  -8  -6   4  332.27    9.80
  -7  -6   4   71.59    2.40
  -7  -6   4   70.19    3.00
   6   6  -4  281.27    8.70
  -6  -6   4  304.67    9.20
  -6  -6   4  303.17    8.60
   5   6  -4   34.30    1.30
  -5  -6   4   28.00    2.10
  -5  -6   4   33.10    1.30
   4   6  -4   38.80    1.50
  -4  -6   4   40.10    2.10
  -4  -6   4   40.20    1.40
   3   6  -4  278.47    8.10
  -3  -6   4  287.07    8.70
  -3  -6   4  279.77    8.10
   2   6  -4  294.27    8.50
  -2  -6   4  295.37    8.50
  -2  -6   4  301.47    9.00
   1   6  -4  174.38    5.20
  -1  -6   4  181.18    5.70
  -1  -6   4  182.28    5.30
   0   6  -4  963.20   26.90
   0  -6   4  910.41   27.10
   0  -6   4  966.20   26.90
  -1   6  -4  812.92   23.30
   1  -6   4  798.32   23.60
   1  -6   4  864.71   23.60
  -2   6  -4  300.57    8.60
   2  -6   4  294.47    8.60
   2  -6   4  287.77    8.80
  -3   6  -4 1800.92   49.30
   3  -6   4 1783.62   49.10
   3  -6   4 1596.84   48.70
  -4   6  -4  474.95   13.90
   4  -6   4  476.95   13.90
   4  -6   4  491.05   13.80
  -5   6  -4 4332.07  120.39
   5  -6   4 4147.08  119.49
  -6   6  -4  239.28    7.30
   6  -6   4  245.08    7.20
   6  -6   4  238.08    7.10
  -7   6  -4    0.90    0.60
   7  -6   4    0.50    0.40
   7  -6   4    0.90    0.40
  -8   6  -4    0.10    0.60
   8  -6   4    0.50    0.50
  -9   6  -4   21.00    1.90
 -10   6  -4   -0.70    0.70
 -11   6  -4    1.90    0.80
 -12   6  -4   64.19    3.40
 -13   6  -4  728.33   21.50
 -14   6  -4   16.10    2.70
 -15   6  -4   49.90    3.50
 -14  -5   4  168.48    6.40
 -13  -5   4    5.20    1.20
 -12  -5   4    1.90    0.50
 -12  -5   4    2.40    1.00
 -11  -5   4   50.99    2.20
 -11  -5   4   47.90    2.90
 -10  -5   4   -0.70    0.70
 -10  -5   4    0.80    0.40
  -9  -5   4    1.80    0.40
  -9  -5   4    1.40    0.70
  -8  -5   4  440.86   12.70
  -7  -5   4  239.68    7.10
   6   5  -4  156.48    4.80
  -6  -5   4  157.58    4.70
   5   5  -4  108.89    3.40
  -5  -5   4  109.69    3.30
   4   5  -4   54.69    1.90
  -4  -5   4   57.99    1.90
   3   5  -4   87.49    2.70
  -3  -5   4   92.39    2.80
   2   5  -4  384.96   11.00
  -2  -5   4  385.76   11.00
   1   5  -4   40.70    1.40
  -1  -5   4   43.30    1.50
   0   5  -4  156.48    4.70
   0  -5   4  160.38    4.70
  -1   5  -4  427.76   12.30
   1  -5   4  428.46   12.50
   1  -5   4  434.76   12.30
  -2   5  -4  703.53   19.80
   2  -5   4  707.23   19.80
   2  -5   4  685.03   20.00
  -3   5  -4   36.80    1.60
   3  -5   4   34.90    1.50
   3  -5   4   35.30    1.70
  -4   5  -4    1.30    0.50
   4  -5   4    1.70    0.50
   4  -5   4    0.80    0.40
  -5   5  -4  495.85   14.40
   5  -5   4  502.85   14.50
  -6   5  -4   89.09    3.20
   6  -5   4   90.19    3.10
  -7   5  -4   49.30    2.30
   7  -5   4   52.29    2.20
  -8   5  -4   30.70    2.00
   8  -5   4   31.80    1.80
  -9   5  -4  413.66   12.30
 -10   5  -4    5.70    1.00
 -11   5  -4   69.39    3.30
 -12   5  -4    8.40    1.20
 -13   5  -4  190.18    6.70
 -14   5  -4  129.99    5.30
 -15   5  -4   66.69    3.80
 -14  -4   4    0.20    1.10
 -13  -4   4  559.74   16.70
 -12  -4   4   47.00    2.80
 -12  -4   4   50.39    2.20
 -11  -4   4    0.30    0.40
  -9  -4   4  750.42   21.40
  -8  -4   4  126.59    4.00
  -7  -4   4  102.89    3.30
   6   4  -4   63.89    2.20
  -6  -4   4   63.79    2.10
   5   4  -4  409.16   11.80
  -5  -4   4  418.06   11.80
   4   4  -4  625.84   17.80
  -4  -4   4  613.24   17.60
   3   4  -4  109.29    3.30
  -3  -4   4  110.19    3.30
   2   4  -4  208.38    6.10
  -2  -4   4  212.38    6.10
   1   4  -4  714.23   20.20
  -1  -4   4  678.03   19.90
   0   4  -4 1047.50   30.10
   0  -4   4 1045.80   30.10
  -1   4  -4 3643.84  103.39
   1  -4   4 3656.43  103.39
  -2   4  -4  529.75   15.20
   2  -4   4  533.25   15.20
  -3   4  -4  136.29    4.20
   3  -4   4  137.19    4.20
   3  -4   4  129.39    4.20
  -4   4  -4  649.54   18.70
   4  -4   4  644.54   18.60
   4  -4   4  670.03   18.70
  -5   4  -4   28.90    1.60
  -6   4  -4  364.16   10.90
   6  -4   4  375.86   10.80
  -7   4  -4  281.97    8.60
   7  -4   4  288.17    8.50
  -8   4  -4  377.16   11.30
  -9   4  -4   81.29    3.30
 -10   4  -4    0.60    0.80
 -11   4  -4   62.59    3.10
 -12   4  -4   84.99    3.80
 -13   4  -4   -0.30    1.00
 -14   4  -4    4.80    1.20
 -15   4  -4  226.68    9.60
 -15  -3   4   56.89    3.60
 -14  -3   4   23.70    2.80
 -12  -3   4   13.30    1.30
 -11  -3   4  522.15   15.10
 -10  -3   4    1.30    0.40
  -9  -3   4  150.38    4.70
  -8  -3   4    6.80    0.80
  -7  -3   4 1431.56   40.90
   6   3  -4  304.67    9.00
  -6  -3   4  315.57    8.90
   5   3  -4    1.20    0.30
  -5  -3   4    0.80    0.20
   4   3  -4  327.57    9.40
  -4  -3   4  326.47    9.40
   3   3  -4   31.30    1.10
  -3  -3   4   34.50    1.20
   2   3  -4  140.49    4.10
  -2  -3   4  143.39    4.20
   1   3  -4 1070.39   30.60
  -1  -3   4 1058.19   30.40
   0   3  -4    0.50    0.30
   0  -3   4    0.40    0.30
  -1   3  -4  604.04   17.10
   1  -3   4  601.54   17.10
  -2   3  -4 3711.53  104.89
   2  -3   4 3686.83  104.79
  -3   3  -4  594.94   17.30
   3  -3   4  615.44   17.20
  -4   3  -4  240.48    7.30
   4  -3   4  250.57    7.30
   5  -3   4   68.39    3.10
  -6   3  -4   68.19    2.60
   6  -3   4   70.19    2.60
  -7   3  -4   41.80    2.00
   7  -3   4   42.50    1.90
  -8   3  -4  280.17    8.60
  -9   3  -4  144.29    5.30
 -10   3  -4  168.08    5.70
 -11   3  -4   46.10    2.70
 -12   3  -4    6.50    1.10
 -13   3  -4    5.50    1.10
 -14   3  -4    2.00    1.10
 -17  -2   4    9.80    1.80
 -15  -2   4  326.47   10.20
 -13  -2   4  232.58    7.20
 -12  -2   4   15.90    1.40
 -11  -2   4  270.37    8.10
 -10  -2   4  207.58    6.30
  -9  -2   4  131.29    4.10
  -8  -2   4   95.19    3.10
  -7  -2   4   56.39    2.00
   6   2  -4   74.09    2.50
  -6  -2   4   77.79    2.40
   5   2  -4    8.40    0.60
  -5  -2   4    8.10    0.60
   4   2  -4    3.90    0.40
  -4  -2   4    3.50    0.40
   3   2  -4 1922.41   54.79
  -3  -2   4 1936.01   54.79
   2   2  -4 1839.02   52.79
  -2  -2   4 1886.61   52.89
   1   2  -4 1756.42   50.49
  -1  -2   4 1791.52   50.59
   0   2  -4 1084.59   31.70
   0  -2   4 1127.29   31.60
  -1   2  -4  439.96   12.60
   1  -2   4  440.76   12.60
  -2   2  -4  951.00   27.30
   2  -2   4  953.70   27.10
  -3   2  -4  459.65   13.30
   3  -2   4  464.15   13.30
  -4   2  -4  214.78    6.50
   4  -2   4  220.18    6.50
  -5   2  -4 1310.77   36.60
   5  -2   4 1275.67   36.60
  -6   2  -4  234.38    7.30
   6  -2   4  244.98    7.20
  -7   2  -4    4.30    0.60
  -8   2  -4  479.45   14.10
 -10   2  -4  103.19    4.00
 -11   2  -4    7.00    1.00
 -12   2  -4   57.79    3.10
 -14   2  -4   22.50    2.70
 -17  -1   4  381.26   12.00
 -15  -1   4   17.10    1.80
 -14  -1   4    7.10    0.80
 -13  -1   4    1.00    0.50
 -12  -1   4   57.59    2.30
 -11  -1   4    0.70    0.40
 -10  -1   4  139.99    4.40
  -9  -1   4  310.87    9.10
  -8  -1   4  155.48    4.70
  -7  -1   4 1617.04   46.20
  -6  -1   4   67.09    2.20
  -5  -1   4  966.60   27.70
  -4  -1   4  328.27    9.40
  -3  -1   4    2.90    0.40
  -2  -1   4    2.00    0.40
   1   1  -4 1045.40   29.80
   0   1  -4 1662.43   48.00
   0  -1   4 1718.53   48.10
  -1   1  -4 1416.56   40.70
   1  -1   4 1436.96   40.80
  -2   1  -4  252.97    7.40
   2  -1   4  257.07    7.40
  -3   1  -4   15.40    1.10
   3  -1   4   15.60    1.10
  -4   1  -4  169.68    5.20
   4  -1   4  171.38    5.20
  -5   1  -4    3.50    0.50
   5  -1   4    3.70    0.50
  -6   1  -4   57.69    2.30
  -7   1  -4    1.20    0.50
  -8   1  -4   91.49    3.40
  -9   1  -4  714.53   20.80
 -10   1  -4   88.79    3.60
 -11   1  -4   13.50    2.10
 -12   1  -4   62.49    3.30
 -13   1  -4  201.58    7.00
 -14   1  -4   30.50    2.80
 -17   0   4   87.29    4.00
 -16   0   4   73.99    3.50
 -15   0   4    1.00    0.60
 -14   0   4  531.95   15.30
 -13   0   4  472.65   14.00
 -13   0   4  482.75   13.80
 -12   0   4    2.20    0.50
 -12   0   4    1.50    0.50
 -11   0   4   39.80    1.70
 -10   0   4  238.68    7.10
  -9   0   4  112.69    3.60
  -7   0   4   31.40    1.20
   6   0  -4  245.78    7.10
  -6   0   4  244.98    7.10
   5   0  -4  197.58    5.70
  -5   0   4  194.78    5.70
   4   0  -4 2041.50   57.79
  -4   0   4 2039.00   57.69
   3   0  -4   38.80    1.30
  -3   0   4   37.90    1.40
   2   0  -4    4.10    0.40
  -2   0   4    4.90    0.50
   1   0  -4   11.50    0.60
  -1   0   4    7.80    0.70
  -1   0  -4  199.88    5.90
   1   0   4  192.48    5.80
   1   0   4  203.48    5.90
  -2   0  -4   13.00    0.90
   2   0   4   15.60    0.70
   2   0   4   15.80    0.90
  -3   0  -4  620.14   18.00
   3   0   4  640.74   18.00
  -4   0  -4    8.80    1.10
   4   0   4   10.70    1.00
  -5   0  -4  429.06   12.50
  -6   0  -4  150.18    4.80
  -7   0  -4  516.05   15.10
  -8   0  -4    0.70    0.60
  -9   0  -4  272.47    8.50
 -10   0  -4   20.80    2.10
 -11   0  -4  225.58    7.40
 -12   0  -4    0.30    0.80
 -13   0  -4    1.20    1.00
 -14   0  -4    0.10    1.00
 -17   1   4    0.20    0.80
 -16   1   4  137.59    5.10
 -15   1   4  106.89    3.70
 -14   1   4    8.30    1.40
 -14   1   4    7.40    1.30
 -13   1   4  163.08    5.20
 -13   1   4  165.38    5.10
 -12   1   4    0.60    0.50
 -12   1   4    0.80    0.40
 -11   1   4  269.87    7.90
 -11   1   4  264.87    8.00
 -10   1   4  160.18    4.80
 -10   1   4  155.98    4.90
  -9   1   4    8.30    0.90
  -9   1   4    8.70    1.00
  -8   1   4  424.96   12.20
  -8   1   4  422.76   12.20
  -7   1   4 1153.28   33.20
  -7   1   4 1169.58   33.10
   6  -1  -4   48.40    1.70
  -6   1   4   48.00    1.60
  -6   1   4   47.70    1.70
   5  -1  -4  439.26   12.30
  -5   1   4  423.76   12.30
  -5   1   4  437.86   12.40
   4  -1  -4    8.20    0.50
  -4   1   4    7.10    0.50
  -4   1   4    7.40    0.60
   3  -1  -4  983.30   27.90
  -3   1   4  978.40   28.30
  -3   1   4  995.80   27.90
   2  -1  -4  356.56   10.50
  -2   1   4  376.56   10.50
  -2   1   4  377.56   10.60
   1  -1  -4  333.57    9.90
  -1   1   4  348.57    9.90
  -1   1   4  366.26   10.00
   0  -1  -4 2218.18   60.69
   0  -1  -4 2060.59   60.29
   0   1   4 2232.68   60.79
   0   1   4 2026.20   60.99
  -1  -1  -4  382.96   10.90
  -1  -1  -4  374.06   10.90
   1   1   4  378.36   10.90
   1   1   4  392.96   10.90
  -2  -1  -4  180.18    5.10
  -2  -1  -4  170.48    5.30
   2   1   4  178.88    5.20
   2   1   4  176.58    5.30
  -3  -1  -4 2265.67   63.19
  -3  -1  -4 2196.78   63.59
   3   1   4 2266.87   63.49
   3   1   4 2219.88   63.19
  -4  -1  -4  119.59    3.80
  -5  -1  -4  288.87    8.60
  -6  -1  -4  991.50   28.20
  -7  -1  -4   90.09    3.30
  -8  -1  -4    1.40    0.70
  -9  -1  -4  192.48    6.30
 -10  -1  -4   83.29    3.60
 -11  -1  -4  469.95   14.20
 -12  -1  -4   40.00    2.80
 -13  -1  -4    2.30    1.10
 -18   2   4    1.20    0.90
 -17   2   4   -0.30    0.90
 -16   2   4  121.49    4.70
 -15   2   4  158.38    5.10
 -14   2   4    3.80    0.70
 -14   2   4    4.40    0.70
 -13   2   4   63.29    2.50
 -13   2   4   61.59    2.50
 -12   2   4  262.27    7.90
 -12   2   4  260.77    7.80
 -11   2   4  477.05   13.80
 -11   2   4  485.15   13.90
 -10   2   4   24.00    1.40
 -10   2   4   27.90    1.30
  -9   2   4    0.80    0.30
  -9   2   4    0.40    0.40
  -8   2   4   14.70    1.00
  -8   2   4   10.50    0.80
  -7   2   4  810.52   23.10
  -7   2   4  820.82   23.00
  -6   2   4   13.10    0.70
  -6   2   4   12.90    0.90
   5  -2  -4    8.40    0.50
  -5   2   4    9.70    0.70
   4  -2  -4   78.89    2.40
   4  -2  -4   71.99    2.20
  -4   2   4   75.99    2.40
  -4   2   4   74.69    2.20
   3  -2  -4   41.00    1.30
   3  -2  -4   41.00    1.50
  -3   2   4   40.40    1.50
  -3   2   4   44.00    1.30
   2  -2  -4  169.18    4.90
  -2   2   4  170.78    5.10
  -2   2   4  173.28    4.90
   1  -2  -4   14.00    0.80
   1  -2  -4   13.00    0.70
  -1   2   4   12.60    0.70
  -1   2   4   13.10    0.80
   0  -2  -4   78.79    2.40
   0  -2  -4   74.69    2.40
   0   2   4   76.49    2.50
  -1  -2  -4  787.72   23.10
  -1  -2  -4  881.41   23.60
   1   2   4  804.32   23.20
   1   2   4  789.72   23.10
  -2  -2  -4  115.49    3.50
  -2  -2  -4  114.29    3.60
   2   2   4  115.29    3.60
   2   2   4  113.19    3.60
  -3  -2  -4  228.08    6.60
  -3  -2  -4  206.08    6.50
   3   2   4  232.78    6.60
  -4  -2  -4  879.51   25.20
   4   2   4  894.61   25.10
  -5  -2  -4  497.55   14.40
  -6  -2  -4    7.70    1.30
  -7  -2  -4   70.29    2.80
  -8  -2  -4  798.62   23.40
  -9  -2  -4  718.03   20.90
 -10  -2  -4    0.30    0.80
 -11  -2  -4    5.00    1.00
 -12  -2  -4    4.30    1.10
 -13  -2  -4  228.08    7.80
 -18   3   4   90.89    4.20
 -17   3   4   62.59    3.40
 -16   3   4   22.30    2.40
 -16   3   4   25.50    2.30
 -15   3   4   38.40    2.50
 -15   3   4   42.20    2.40
 -14   3   4  257.17    7.70
 -14   3   4  249.78    7.70
 -13   3   4   29.40    1.80
 -13   3   4   30.90    1.70
 -12   3   4   51.79    2.20
 -12   3   4   51.59    2.10
 -11   3   4   18.20    1.40
 -11   3   4   17.00    1.20
 -10   3   4  254.17    7.70
 -10   3   4  261.67    7.60
  -9   3   4 2188.38   62.39
  -8   3   4 1060.69   30.10
  -8   3   4 1069.89   30.00
  -7   3   4  123.89    3.70
  -7   3   4  119.89    3.80
   6  -3  -4  516.95   14.80
  -6   3   4  503.15   14.70
  -6   3   4  534.85   14.90
   5  -3  -4  128.69    3.80
   5  -3  -4  136.19    4.00
  -5   3   4  126.89    4.00
   4  -3  -4 1268.87   36.80
   4  -3  -4 1363.06   37.40
  -4   3   4 1301.27   37.40
  -4   3   4 1283.47   36.80
   3  -3  -4   16.70    0.90
  -3   3   4   15.30    0.90
  -3   3   4   15.00    0.60
   2  -3  -4 1023.30   28.50
  -2   3   4  954.30   27.90
   1  -3  -4  321.97    9.10
   1  -3  -4  329.57    9.30
  -1   3   4  309.87    9.40
  -1   3   4  325.97    9.20
   0  -3  -4   42.10    1.50
   0  -3  -4   43.50    1.60
   0   3   4   46.80    1.80
   0   3   4   41.80    1.70
  -1  -3  -4  594.94   16.80
  -1  -3  -4  578.24   16.90
   1   3   4  594.14   16.80
   1   3   4  605.34   17.00
  -2  -3  -4  759.52   21.70
  -2  -3  -4  761.32   21.70
   2   3   4  774.72   21.80
  -3  -3  -4  196.58    5.90
  -3  -3  -4  198.38    5.80
   3   3   4  192.08    6.00
  -4  -3  -4  471.45   13.40
  -4  -3  -4  460.55   13.50
   4   3   4  473.15   13.60
  -5  -3  -4   85.59    2.70
  -5  -3  -4   82.79    3.00
   5   3   4   81.09    3.00
  -6  -3  -4    0.80    0.50
  -7  -3  -4    2.00    0.70
  -8  -3  -4  128.79    4.80
  -9  -3  -4    6.00    1.00
 -10  -3  -4   92.79    3.80
 -11  -3  -4   51.79    3.00
 -12  -3  -4   44.60    3.00
 -13  -3  -4  163.08    6.10
 -18   4   4   60.59    3.60
 -17   4   4   16.60    2.50
 -16   4   4    3.20    0.90
 -16   4   4    0.60    0.90
 -15   4   4   17.80    2.10
 -15   4   4   19.80    2.00
 -15   4   4   18.50    2.10
 -14   4   4  388.16   11.80
 -14   4   4  393.26   11.60
 -14   4   4  390.56   11.60
 -13   4   4  263.67    7.90
 -13   4   4  252.57    7.80
 -12   4   4   76.69    3.00
 -12   4   4   80.39    2.80
 -11   4   4  274.57    8.30
 -11   4   4  276.67    8.20
 -10   4   4  209.28    6.30
 -10   4   4  212.98    6.50
  -9   4   4 2250.97   63.59
  -9   4   4 2252.97   63.99
   8  -4  -4 1891.31   53.49
  -8   4   4 1884.21   53.09
  -8   4   4 1841.62   52.89
   7  -4  -4   15.80    1.20
  -7   4   4   16.60    1.30
   6  -4  -4  172.68    5.10
  -6   4   4  165.98    5.10
  -6   4   4  158.48    4.80
   5  -4  -4  696.83   19.30
  -5   4   4  641.84   19.40
  -5   4   4  693.23   19.10
   4  -4  -4  382.96   10.50
  -4   4   4  355.56   10.20
  -4   4   4  348.97   10.60
   2  -4  -4  706.13   19.80
   2  -4  -4  680.13   19.60
  -2   4   4  701.73   19.60
  -2   4   4  692.13   19.90
   1  -4  -4 1067.99   29.70
   1  -4  -4 1000.00   28.90
  -1   4   4 1063.39   29.00
  -1   4   4  970.10   29.10
   0  -4  -4   58.49    2.10
   0  -4  -4   54.79    1.90
   0   4   4   55.09    2.20
   0   4   4   58.29    2.00
  -1  -4  -4   90.99    3.00
  -1  -4  -4   89.99    2.90
   1   4   4   91.69    3.20
  -2  -4  -4 1351.66   35.80
  -2  -4  -4 1182.58   35.20
   2   4   4 1216.28   35.40
  -3  -4  -4  553.04   15.70
  -3  -4  -4  536.95   15.70
   3   4   4  550.44   15.80
  -4  -4  -4   67.59    2.50
  -4  -4  -4   64.09    2.40
   4   4   4   66.09    2.70
  -5  -4  -4  961.70   27.20
  -5  -4  -4  937.61   27.30
   5   4   4  978.80   27.40
  -6  -4  -4  363.26   10.80
  -6  -4  -4  364.46   10.60
   6   4   4  368.06   10.90
  -7  -4  -4  170.08    5.20
  -7  -4  -4  168.78    5.60
  -8  -4  -4    1.50    0.80
  -9  -4  -4    2.20    0.80
 -10  -4  -4   68.29    3.30
 -11  -4  -4   51.39    3.10
 -12  -4  -4    1.30    1.00
 -18   5   4   39.00    3.20
 -17   5   4    5.80    1.10
 -16   5   4  206.38    6.90
 -16   5   4  204.88    6.80
 -15   5   4  131.29    4.60
 -15   5   4  140.49    5.00
 -15   5   4  136.29    4.90
 -14   5   4    3.30    0.60
 -14   5   4    3.80    0.90
 -14   5   4    5.20    0.90
 -13   5   4   74.39    2.80
 -13   5   4   71.49    3.10
 -13   5   4   75.59    3.20
 -12   5   4  459.15   13.30
 -12   5   4  460.55   13.50
 -11   5   4  331.17    9.50
 -11   5   4  317.67    9.70
 -10   5   4   23.30    1.30
 -10   5   4   29.80    1.70
   9  -5  -4  666.13   19.20
  -9   5   4  670.53   19.30
  -9   5   4  674.33   19.00
   8  -5  -4 1812.42   48.30
  -8   5   4 1561.74   48.00
  -8   5   4 1730.43   48.30
   7  -5  -4    1.50    0.40
  -7   5   4    1.70    0.50
  -7   5   4    1.30    0.20
   6  -5  -4  553.94   15.30
  -6   5   4  540.55   15.10
  -6   5   4  506.55   15.50
  -5   5   4    6.50    0.40
   4  -5  -4  486.55   13.80
  -4   5   4  467.65   13.90
   3  -5  -4  229.48    6.80
  -3   5   4  221.88    6.90
   1  -5  -4   61.39    2.00
   1  -5  -4   64.09    2.30
  -1   5   4   62.29    2.60
   0  -5  -4  381.06   11.00
   0  -5  -4  373.06   10.70
   0   5   4  373.76   11.10
  -1  -5  -4 1131.89   32.40
  -1  -5  -4 1165.28   32.70
   1   5   4 1159.18   32.80
  -2  -5  -4    5.30    1.00
  -2  -5  -4    3.00    0.40
   2   5   4    3.10    0.60
  -3  -5  -4   51.89    2.10
  -3  -5  -4   49.60    2.00
   3   5   4   48.00    2.30
  -4  -5  -4   52.39    2.10
  -4  -5  -4   53.69    2.10
   4   5   4   49.99    2.40
  -5  -5  -4   74.59    2.90
  -5  -5  -4   78.69    2.80
   5   5   4   74.19    3.10
  -6  -5  -4  526.45   15.00
  -6  -5  -4  507.35   15.10
   6   5   4  518.45   15.20
  -7  -5  -4   23.10    1.90
  -7  -5  -4   22.80    1.70
  -8  -5  -4  598.24   17.40
  -8  -5  -4  586.34   17.00
  -9  -5  -4   70.79    3.30
 -10  -5  -4   95.09    4.00
 -11  -5  -4  430.46   13.20
 -12  -5  -4    1.80    1.10
 -18   6   4    5.90    1.30
 -17   6   4    6.20    1.30
 -17   6   4    6.30    1.20
 -16   6   4   37.70    3.00
 -16   6   4   36.70    2.70
 -15   6   4    1.30    0.90
 -15   6   4    2.00    0.60
 -15   6   4    1.60    1.00
 -14   6   4  165.48    5.60
 -14   6   4  168.48    5.70
 -14   6   4  160.18    5.30
 -13   6   4   34.80    2.40
 -13   6   4   35.60    2.30
 -13   6   4   34.40    1.80
 -12   6   4 1046.60   29.10
 -12   6   4  988.90   28.90
 -12   6   4 1003.20   28.70
 -11   6   4  425.16   12.40
 -11   6   4  432.36   12.70
 -11   6   4  429.06   12.50
  10  -6  -4    0.80    0.50
 -10   6   4    2.00    0.60
   9  -6  -4   -0.10    0.40
  -9   6   4    0.30    0.30
  -9   6   4    0.40    0.50
   8  -6  -4   65.79    3.20
  -8   6   4   64.19    2.10
  -8   6   4   68.49    2.70
   7  -6  -4    3.30    0.60
  -7   6   4    3.00    0.60
   6  -6  -4    2.50    0.50
  -6   6   4    2.70    0.60
  -6   6   4    3.40    0.40
   5  -6  -4   11.50    1.10
  -5   6   4   12.20    1.30
   4  -6  -4 1660.03   44.60
  -4   6   4 1456.85   44.20
   3  -6  -4 2448.56   68.89
  -3   6   4 2348.36   69.09
   2  -6  -4  174.38    5.60
  -2   6   4  182.68    5.80
   1  -6  -4   41.20    1.50
   1  -6  -4   48.50    2.00
  -1   6   4   44.10    2.20
   0  -6  -4    8.10    1.10
   0  -6  -4   12.10    0.80
   0   6   4    8.40    1.50
  -1  -6  -4  298.47    8.90
  -1  -6  -4  293.17    8.50
   1   6   4  295.77    9.10
  -2  -6  -4  267.27    7.80
  -2  -6  -4  247.08    7.50
   2   6   4  252.27    8.00
  -3  -6  -4  174.68    5.40
  -3  -6  -4  178.78    5.60
   3   6   4  175.88    5.80
  -4  -6  -4  663.43   19.80
  -4  -6  -4  675.13   19.40
   4   6   4  692.93   19.80
  -5  -6  -4  489.35   15.80
  -5  -6  -4  520.15   14.90
   5   6   4  532.95   15.30
  -6  -6  -4   29.20    2.00
   6   6   4   28.90    2.40
  -7  -6  -4   23.80    3.00
  -8  -6  -4    2.70    0.90
  -9  -6  -4    0.80    0.90
  -9  -6  -4   -0.20    0.80
 -10  -6  -4    1.40    0.90
 -11  -6  -4  103.49    4.50
 -18   7   4   58.89    3.70
 -17   7   4    1.70    1.10
 -17   7   4   -0.80    1.30
 -16   7   4    8.30    1.30
 -16   7   4    8.40    1.20
 -15   7   4  151.08    5.00
 -15   7   4  150.78    5.60
 -15   7   4  151.28    5.30
 -14   7   4  264.37    9.20
 -14   7   4  303.67    9.10
 -14   7   4  289.27    8.60
 -13   7   4  380.66   11.50
 -13   7   4  394.96   11.80
 -13   7   4  384.26   11.30
 -12   7   4   73.59    3.00
 -12   7   4   75.99    2.70
 -12   7   4   75.69    3.40
  11  -7  -4   18.90    1.60
 -11   7   4   16.40    1.90
 -11   7   4   18.60    1.60
 -11   7   4   18.20    1.20
  10  -7  -4   11.90    1.40
 -10   7   4   12.80    1.70
 -10   7   4   13.60    1.00
 -10   7   4   13.50    1.30
   9  -7  -4  470.65   13.20
  -9   7   4  446.96   13.00
  -9   7   4  434.26   12.80
  -9   7   4  451.25   13.40
   8  -7  -4   77.29    2.80
  -8   7   4   75.79    2.40
  -8   7   4   74.59    3.10
  -8   7   4   74.79    2.50
   7  -7  -4  295.67    8.40
  -7   7   4  265.47    7.90
  -7   7   4  275.67    8.60
  -7   7   4  277.87    8.00
   6  -7  -4 1397.96   39.60
   5  -7  -4  208.08    6.30
  -5   7   4  200.18    6.50
   4  -7  -4  130.79    4.20
  -4   7   4  122.39    4.40
   3  -7  -4   54.39    2.30
  -3   7   4   56.09    2.60
   2  -7  -4 3911.71  107.69
  -2   7   4 3613.84  106.89
   1  -7  -4 1837.12   51.59
  -1   7   4 1809.52   51.69
   0  -7  -4   53.19    2.20
   0  -7  -4   49.99    1.80
   0   7   4   51.89    2.50
  -1  -7  -4   36.80    1.50
  -1  -7  -4   36.20    1.90
   1   7   4   37.30    2.20
  -2  -7  -4  732.13   21.00
  -2  -7  -4  723.83   20.70
   2   7   4  730.83   21.30
  -3  -7  -4  403.36   12.00
  -3  -7  -4  398.56   11.70
   3   7   4  404.26   12.20
  -4  -7  -4  423.86   12.50
  -4  -7  -4  436.56   12.70
   4   7   4  428.36   13.00
  -5  -7  -4   15.80    1.60
  -5  -7  -4   16.70    1.70
   5   7   4   14.70    2.30
  -6  -7  -4  111.19    4.10
  -6  -7  -4  112.09    4.00
   6   7   4  112.19    4.50
  -7  -7  -4   48.80    2.70
  -7  -7  -4   51.89    2.60
  -8  -7  -4  226.88    7.30
  -8  -7  -4  233.38    7.40
  -9  -7  -4   -0.60    0.90
  -9  -7  -4   -0.10    0.90
 -10  -7  -4   20.40    2.50
 -11  -7  -4   23.30    2.80
 -18   8   4   92.69    4.70
 -17   8   4    1.60    1.10
 -17   8   4    0.20    1.40
 -16   8   4   51.89    3.80
 -16   8   4   47.90    3.10
 -15   8   4    2.40    0.90
 -15   8   4    3.00    0.70
 -15   8   4    2.30    1.20
 -14   8   4   91.19    4.10
 -14   8   4   83.39    3.80
 -14   8   4   87.29    3.20
 -13   8   4   99.09    3.40
 -13   8   4  101.19    4.30
 -13   8   4  102.49    3.80
  12  -8  -4   -0.90    0.60
 -12   8   4    0.10    0.40
 -12   8   4   -0.50    0.80
 -12   8   4   -0.50    0.60
  11  -8  -4  127.89    4.30
 -11   8   4  127.59    4.20
 -11   8   4  131.89    4.80
 -11   8   4  123.09    4.00
  10  -8  -4   34.70    1.90
 -10   8   4   28.80    2.20
 -10   8   4   31.40    1.30
 -10   8   4   26.70    1.60
   9  -8  -4   10.10    1.40
  -9   8   4   11.10    1.10
  -9   8   4   13.90    1.70
  -9   8   4   10.90    0.80
   8  -8  -4   50.89    2.20
  -8   8   4   48.00    2.50
  -8   8   4   46.90    1.60
  -8   8   4   48.60    1.80
   7  -8  -4  197.98    5.90
  -7   8   4  183.08    5.40
  -7   8   4  180.68    5.40
  -7   8   4  188.08    6.20
   6  -8  -4  546.65   15.70
  -6   8   4  528.75   15.90
   5  -8  -4  373.56   10.80
  -5   8   4  349.47   11.00
   4  -8  -4    6.50    1.20
  -4   8   4    5.30    0.80
   3  -8  -4    0.30    0.50
  -3   8   4    0.00    0.70
   2  -8  -4 1493.05   42.90
  -2   8   4 1530.25   43.20
   1  -8  -4  593.34   17.50
  -1   8   4  606.84   17.70
   0  -8  -4   14.70    0.80
   0  -8  -4   15.40    1.40
   0  -8  -4   16.10    1.00
   0   8   4   16.20    1.80
  -1  -8  -4   77.99    2.60
  -1  -8  -4   82.79    2.50
  -1  -8  -4   82.49    3.10
   1   8   4   76.29    3.40
  -2  -8  -4  455.45   13.40
  -2  -8  -4  468.95   13.40
  -2  -8  -4  474.45   13.90
   2   8   4  472.25   14.10
  -3  -8  -4   35.40    2.10
  -3  -8  -4   31.50    1.70
   3   8   4   34.60    2.50
  -4  -8  -4   22.20    1.90
  -4  -8  -4   22.90    1.30
  -4  -8  -4   22.70    1.70
   4   8   4   23.90    2.50
  -5  -8  -4   39.60    2.20
  -5  -8  -4   39.90    2.40
  -5  -8  -4   40.40    1.80
   5   8   4   41.60    3.00
  -6  -8  -4  597.04   17.40
  -6  -8  -4  581.84   17.30
  -6  -8  -4  613.94   17.60
   6   8   4  604.74   17.90
  -7  -8  -4   32.30    1.80
  -7  -8  -4   32.30    2.30
  -7  -8  -4   33.10    2.50
  -8  -8  -4   21.30    2.60
  -8  -8  -4   28.00    1.90
  -8  -8  -4   27.30    2.50
  -9  -8  -4   -0.10    0.90
 -10  -8  -4  244.28    8.10
 -18   9   4    0.80    1.30
 -17   9   4   19.40    3.00
 -17   9   4   11.60    1.80
 -16   9   4  220.98    7.40
 -16   9   4  224.38    7.90
 -16   9   4  219.38    7.10
 -15   9   4   17.10    2.50
 -15   9   4   17.60    1.70
 -14   9   4  150.68    4.90
 -14   9   4  150.38    5.80
 -14   9   4  149.19    5.20
  13  -9  -4    1.30    0.70
 -13   9   4    1.90    0.80
 -13   9   4    1.70    0.50
 -13   9   4    1.00    1.00
  12  -9  -4  126.39    4.40
 -12   9   4  126.29    5.00
 -12   9   4  126.59    4.30
 -12   9   4  130.69    4.10
  11  -9  -4  172.38    5.50
 -11   9   4  163.68    5.90
 -11   9   4  167.58    5.30
  10  -9  -4    0.30    0.50
 -10   9   4    0.50    0.30
 -10   9   4    1.10    0.50
 -10   9   4    0.50    0.80
   9  -9  -4  444.96   12.50
  -9   9   4  407.66   12.00
  -9   9   4  426.06   12.90
  -9   9   4  409.46   12.10
   8  -9  -4  293.97    8.60
  -8   9   4  278.17    8.90
  -8   9   4  274.57    8.10
  -8   9   4  272.97    8.00
   7  -9  -4   74.09    2.90
  -7   9   4   68.39    3.20
  -6   9   4  111.59    4.30
   5  -9  -4  572.24   16.60
  -5   9   4  564.94   16.90
   4  -9  -4  836.62   23.90
  -4   9   4  821.32   24.20
   3  -9  -4  530.25   15.40
  -3   9   4  519.25   15.70
   2  -9  -4  583.14   17.10
   1  -9  -4  493.65   14.30
  -1   9   4  472.55   14.60
   0  -9  -4  103.09    3.30
   0  -9  -4  111.69    4.00
   0  -9  -4  111.19    3.20
   0   9   4  106.69    4.30
  -1  -9  -4  185.78    6.10
  -1  -9  -4  185.68    5.40
  -1  -9  -4  185.68    5.50
   1   9   4  184.68    6.50
  -2  -9  -4    7.50    1.20
  -2  -9  -4    9.30    1.60
  -2  -9  -4   10.80    0.90
   2   9   4    6.00    1.10
  -3  -9  -4  255.87    8.00
  -3  -9  -4  246.28    7.60
  -3  -9  -4  248.98    7.50
   3   9   4  263.87    8.50
  -4  -9  -4   64.59    2.40
  -4  -9  -4   64.89    2.60
  -4  -9  -4   64.79    3.10
   4   9   4   67.19    3.60
  -5  -9  -4   52.39    2.10
  -5  -9  -4   51.19    2.50
  -5  -9  -4   49.40    2.80
   5   9   4   50.39    3.40
  -6  -9  -4  249.88    7.90
  -6  -9  -4  245.98    7.40
  -6  -9  -4  236.68    7.70
  -7  -9  -4    1.10    1.00
  -7  -9  -4    1.10    0.90
  -7  -9  -4    1.70    0.60
  -8  -9  -4   82.79    4.10
  -8  -9  -4   92.99    3.90
  -9  -9  -4    2.60    1.10
 -17  10   4   61.99    3.80
 -16  10   4   55.09    7.30
 -16  10   4   50.79    2.80
 -16  10   4   56.09    3.40
 -15  10   4   51.09    4.10
 -15  10   4   50.79    3.00
 -15  10   4   49.00    2.40
  14 -10  -4   20.20    2.20
 -14  10   4   23.40    2.30
 -14  10   4   20.60    3.10
 -14  10   4   22.90    1.70
  13 -10  -4   87.69    3.60
 -13  10   4   95.79    3.60
 -13  10   4   91.89    4.40
 -13  10   4   94.59    3.20
  12 -10  -4   39.80    2.40
 -12  10   4   39.30    1.70
 -12  10   4   35.70    3.10
 -12  10   4   36.10    2.20
  11 -10  -4  241.28    7.50
 -11  10   4  233.98    7.20
 -11  10   4  239.58    7.00
 -11  10   4  243.88    8.10
  10 -10  -4   51.09    2.50
 -10  10   4   52.69    2.20
 -10  10   4   52.19    3.20
 -10  10   4   52.09    1.90
  -9  10   4  276.87    8.10
  -9  10   4  293.47    9.20
  -9  10   4  276.07    8.20
   8 -10  -4   16.90    1.70
  -8  10   4   16.30    2.20
   7 -10  -4    3.40    0.60
  -7  10   4    2.40    0.90
   6 -10  -4  433.66   12.90
  -6  10   4  430.06   13.20
   5 -10  -4    0.30    0.50
  -5  10   4    0.90    0.80
   4 -10  -4  566.04   16.50
  -4  10   4  552.64   16.80
   3 -10  -4   22.00    1.80
  -3  10   4   20.20    2.20
   2 -10  -4   87.79    3.50
  -2  10   4   93.29    4.00
   1 -10  -4  183.98    6.10
  -1  10   4  183.68    6.50
   0 -10  -4  839.42   24.30
   0 -10  -4  887.81   25.10
   0 -10  -4  854.41   24.40
   0  10   4  883.71   25.50
  -1 -10  -4   12.80    0.90
  -1 -10  -4   14.60    1.70
  -1 -10  -4   12.70    1.20
   1  10   4   13.70    2.40
  -2 -10  -4    0.70    0.50
  -2 -10  -4    1.20    0.70
  -2 -10  -4    0.80    0.40
   2  10   4    0.70    1.00
  -3 -10  -4   72.59    2.50
  -3 -10  -4   74.69    2.80
  -3 -10  -4   71.59    3.30
   3  10   4   73.69    3.90
  -4 -10  -4  282.17    8.50
  -4 -10  -4  285.07    9.00
  -4 -10  -4  284.97    8.40
   4  10   4  277.47   10.00
  -5 -10  -4  402.76   12.40
  -5 -10  -4  402.96   11.80
  -5 -10  -4  404.16   12.00
  -6 -10  -4    5.60    1.00
  -6 -10  -4    4.50    1.10
  -6 -10  -4    5.00    0.70
  -7 -10  -4  100.79    3.70
  -7 -10  -4   99.79    4.50
  -7 -10  -4  105.99    4.10
  -8 -10  -4   80.99    3.80
 -17  11   4   33.50    3.40
 -17  11   4   27.70    4.70
 -16  11   4   42.40    3.20
 -16  11   4   39.70    2.50
 -16  11   4   38.30    4.30
  15 -11  -4    0.20    0.90
 -15  11   4    0.90    0.70
 -15  11   4    0.30    1.00
 -15  11   4   -0.30    1.50
  14 -11  -4    2.20    0.90
 -14  11   4    2.10    0.60
 -14  11   4    1.50    1.30
 -14  11   4    1.40    0.90
  13 -11  -4    6.10    1.00
 -13  11   4    7.40    1.00
 -13  11   4    5.30    1.40
  12 -11  -4  442.36   13.20
 -12  11   4  449.56   12.80
 -12  11   4  456.45   13.90
 -12  11   4  429.66   13.00
  11 -11  -4  240.88    7.70
 -11  11   4  241.18    8.60
 -11  11   4  247.48    7.10
 -11  11   4  239.78    7.30
  10 -11  -4  244.58    7.50
 -10  11   4  238.38    7.00
 -10  11   4  236.48    6.80
 -10  11   4  214.98    9.90
   9 -11  -4   33.60    2.20
   8 -11  -4    1.10    0.60
  -8  11   4    1.10    1.20
   7 -11  -4   14.50    1.70
  -7  11   4   15.60    2.60
   6 -11  -4 1059.89   29.80
  -6  11   4 1008.70   30.40
   5 -11  -4  304.47    9.10
  -5  11   4  274.47    9.70
   4 -11  -4    1.90    0.70
  -4  11   4    0.20    1.00
   3 -11  -4  625.34   16.30
  -3  11   4  461.35   17.70
   2 -11  -4   69.19    3.10
   1 -11  -4  293.27    8.80
  -1  11   4  258.87    9.80
   0 -11  -4   29.40    1.20
   0 -11  -4   34.50    2.30
   0  11   4   35.00    2.90
  -1 -11  -4   15.80    1.00
  -1 -11  -4   16.90    1.30
  -1 -11  -4   14.40    1.90
   1  11   4   13.30    2.60
  -2 -11  -4  453.35   13.00
  -2 -11  -4  458.25   13.80
  -2 -11  -4  444.06   13.10
   2  11   4  465.85   14.30
  -3 -11  -4   34.90    2.60
  -3 -11  -4   40.40    2.00
  -3 -11  -4   38.60    1.70
   3  11   4   33.80    3.30
  -4 -11  -4   71.89    2.90
  -4 -11  -4   62.49    3.50
  -4 -11  -4   67.99    2.50
   4  11   4   68.79    4.20
  -5 -11  -4    5.60    1.20
  -5 -11  -4    6.70    0.90
  -5 -11  -4    8.80    1.40
   5  11   4    5.60    1.50
  -6 -11  -4  123.29    4.50
  -6 -11  -4  117.19    4.10
  -6 -11  -4  116.09    5.00
  -7 -11  -4    0.40    0.80
  -7 -11  -4   -0.80    1.30
  -7 -11  -4    1.50    1.00
 -16  12   4  156.08    5.90
 -16  12   4  161.18    5.70
 -16  12   4  156.98    7.20
  15 -12  -4    3.10    1.10
 -15  12   4    3.00    1.30
 -15  12   4    3.60    0.80
 -15  12   4    0.20    1.60
  14 -12  -4   26.00    2.70
 -14  12   4   25.10    3.70
 -14  12   4   31.30    2.60
 -14  12   4   33.50    2.00
  13 -12  -4  249.68    8.30
 -13  12   4  263.47    7.80
 -13  12   4  261.57    8.00
 -13  12   4  268.77    9.20
  12 -12  -4    5.10    1.00
 -12  12   4    6.60    1.50
  11 -12  -4    0.20    0.80
 -11  12   4   -0.10    1.10
 -11  12   4    1.30    0.60
 -11  12   4    0.30    0.40
  10 -12  -4  259.87    8.40
 -10  12   4  267.57    9.00
   9 -12  -4    0.30    0.70
  -9  12   4   -0.90    1.00
   8 -12  -4   13.20    1.80
  -8  12   4   11.20    1.50
   7 -12  -4  110.19    4.30
  -7  12   4  108.69    4.80
  -6  12   4  112.89    4.90
   5 -12  -4    0.30    0.80
  -5  12   4   -0.10    1.00
   4 -12  -4    0.10    0.70
  -4  12   4    0.40    0.90
   3 -12  -4  122.59    4.60
  -3  12   4  123.39    5.20
   2 -12  -4   93.29    3.90
  -2  12   4   94.09    4.50
   1 -12  -4  554.44   16.70
  -1  12   4  564.44   17.20
   0 -12  -4   59.69    3.10
   0  12   4   65.49    3.80
  -1 -12  -4   12.20    0.90
  -1 -12  -4   13.60    1.30
   1  12   4    8.90    1.50
  -2 -12  -4   54.39    2.00
  -2 -12  -4   47.50    3.10
  -2 -12  -4   54.69    2.30
   2  12   4   53.69    3.80
  -3 -12  -4   22.80    2.60
  -3 -12  -4   29.30    2.00
  -3 -12  -4   27.40    1.50
   3  12   4   24.60    3.50
  -4 -12  -4   46.40    2.40
  -4 -12  -4   31.90    3.10
  -4 -12  -4   39.40    2.00
   4  12   4   42.20    3.90
  -5 -12  -4   14.60    1.60
   5  12   4    9.40    1.80
  -6 -12  -4  158.68    5.60
 -16  13   4    9.20    2.20
 -15  13   4    8.40    2.00
 -14  13   4   -1.70    1.50
 -14  13   4   -0.60    1.00
 -14  13   4   -0.40    0.70
 -13  13   4   86.19    3.50
 -13  13   4   84.29    3.10
 -13  13   4   86.19    4.90
  12 -13  -4   52.29    3.50
 -12  13   4   53.79    2.00
 -12  13   4   50.79    4.00
 -12  13   4   49.70    2.50
  11 -13  -4   63.69    3.30
 -11  13   4   70.59    2.20
 -11  13   4   63.59    4.10
  10 -13  -4    5.90    1.00
 -10  13   4    8.10    1.40
   9 -13  -4  144.89    5.20
  -9  13   4  149.09    6.00
   8 -13  -4  477.25   14.50
  -8  13   4  489.85   15.20
   7 -13  -4   87.89    3.80
  -7  13   4   88.69    4.40
   6 -13  -4    8.40    1.00
  -6  13   4   10.40    1.50
   5 -13  -4  168.38    6.10
  -5  13   4  180.18    6.70
   4 -13  -4  435.66   13.50
  -4  13   4  447.36   14.00
   3 -13  -4  112.39    4.40
  -3  13   4  112.59    5.10
   2 -13  -4   95.29    4.10
  -2  13   4   97.39    4.80
   1 -13  -4   65.39    3.90
  -1  13   4   65.69    4.00
   0  13   4   52.99    3.80
   1  13   4   36.20    3.50
  -2 -13  -4  106.89    3.60
  -2 -13  -4  102.59    3.40
   2  13   4  107.09    5.30
  -3 -13  -4   69.59    2.70
  -3 -13  -4   70.59    2.90
   3  13   4   67.99    4.70
  -4 -13  -4  293.77    8.90
   4  13   4  294.07   10.40
  -5 -13  -4  102.29    4.40
 -15  14   4    1.10    2.00
 -14  14   4    1.10    0.90
 -14  14   4    0.80    1.70
 -13  14   4  111.89    5.80
 -12  14   4   -1.20    1.40
 -11  14   4   19.60    3.40
 -10  14   4   91.89    4.80
  -9  14   4   -2.00    1.10
  -8  14   4  165.98    6.60
  -7  14   4    4.00    1.40
  -6  14   4  139.19    5.80
  -5  14   4   85.69    4.50
  -4  14   4    8.40    1.60
  -3  14   4   29.00    3.20
  -2  14   4   18.70    3.00
  -1  14   4  194.38    7.60
   0  14   4  523.45   16.60
   1  14   4   28.10    3.70
  -2 -14  -4  244.08    7.40
   2  14   4  240.68    9.10
   3  14   4   12.00    2.00
   4  14   4  162.48    7.30
 -14  15   4   -0.40    1.80
 -13  15   4    0.40    1.80
 -12  15   4    2.80    1.60
 -11  15   4  234.58    8.80
 -10  15   4  142.09    6.20
  -9  15   4   33.50    3.50
  -8  15   4    0.30    1.20
  -7  15   4    9.50    1.70
  -6  15   4    2.10    1.30
  -5  15   4   45.60    3.70
  -4  15   4   75.19    4.40
  -3  15   4  154.28    6.50
  -2  15   4  215.98    8.30
  -1  15   4    6.50    1.50
   0  15   4   58.09    4.30
   1  15   4    1.40    1.60
   2  15   4  115.89    6.20
 -13  16   4  224.28    9.20
 -12  16   4  264.27   10.10
 -11  16   4    4.80    1.80
 -10  16   4    6.70    1.70
  -9  16   4    3.10    1.50
  -8  16   4   32.20    3.70
  -7  16   4    0.80    1.20
  -6  16   4   19.80    3.20
  -4  16   4    8.60    1.50
  -3  16   4    7.40    1.70
  -2  16   4   82.99    5.10
  -1  16   4   48.40    4.20
   0  16   4    5.60    1.80
   1  16   4    1.70    1.90
 -11  17   4    1.60    1.80
 -10  17   4    1.10    1.60
  -9  17   4  156.58    7.00
  -8  17   4  132.49    6.40
  -7  17   4    3.70    1.30
  -6  17   4   65.69    4.50
  -5  17   4   49.10    4.10
  -4  17   4   -0.60    1.40
  -3  17   4   -1.70    1.40
  -2  17   4    6.10    1.60
   1  18  -5    1.50    0.70
   0  18  -5   10.30    1.50
  -1  18  -5   24.60    1.60
  -2  18  -5   55.09    2.20
  -3  18  -5    2.30    0.60
  -4  18  -5   60.19    2.40
  -5  18  -5  178.48    5.50
  -6  18  -5   30.20    2.00
  -7  18  -5   51.49    2.60
  -8  18  -5   39.60    3.10
   2  17  -5   63.29    2.60
  -2 -17   5   63.69    3.30
   1  17  -5   63.19    2.50
  -1 -17   5   59.89    2.90
   0  17  -5   32.30    1.70
   0 -17   5   31.90    2.20
  -1  17  -5    0.50    0.50
   1 -17   5    1.00    0.80
  -2  17  -5   47.70    2.00
   2 -17   5   47.10    2.60
  -3  17  -5  267.67    7.70
   3 -17   5  253.27    8.00
  -4  17  -5  377.26   10.60
   4 -17   5  350.96   10.80
  -5  17  -5   37.10    2.00
   5 -17   5   29.80    2.40
  -6  17  -5    8.40    0.90
   6 -17   5    8.40    1.10
  -7  17  -5    3.20    0.80
   7 -17   5    3.30    1.00
  -8  17  -5   20.50    2.20
  -9  17  -5   24.30    2.50
 -10  17  -5   93.89    4.20
  -6 -16   5    2.20    1.10
  -5 -16   5   26.40    2.10
  -4 -16   5   76.49    3.10
   3  16  -5   12.90    1.50
  -3 -16   5   11.40    1.80
   2  16  -5   44.50    2.00
  -2 -16   5   40.20    2.30
   1  16  -5   95.89    3.20
  -1 -16   5   90.19    3.40
   0  16  -5    0.60    0.50
   0 -16   5    1.10    0.70
  -1  16  -5   10.80    1.20
   1 -16   5   12.90    1.70
  -2  16  -5  179.28    5.30
   2 -16   5  171.68    5.60
  -3  16  -5   59.89    2.30
   3 -16   5   61.19    2.70
  -4  16  -5  109.99    3.60
   4 -16   5  108.19    3.90
  -5  16  -5    2.30    0.60
   5 -16   5    1.50    0.80
  -6  16  -5  158.58    5.00
   6 -16   5  150.08    5.20
  -7  16  -5   24.80    2.00
   7 -16   5   24.00    2.30
  -8  16  -5   87.99    3.50
   8 -16   5   88.79    3.70
  -9  16  -5    8.70    1.20
   9 -16   5   14.70    2.50
 -10  16  -5    2.20    1.10
 -11  16  -5   67.09    3.80
  -7 -15   5    6.20    0.90
  -6 -15   5   57.39    2.60
  -5 -15   5   56.89    2.50
  -4 -15   5   23.50    1.70
   3  15  -5  125.09    4.10
  -3 -15   5  123.39    4.10
   2  15  -5   91.59    3.10
  -2 -15   5   86.29    3.20
   1  15  -5    2.70    0.50
  -1 -15   5    2.70    0.60
   0  15  -5   24.60    1.40
   0 -15   5   26.00    1.70
  -1  15  -5  180.78    5.40
   1 -15   5  179.88    5.60
  -2  15  -5  252.57    7.30
   2 -15   5  245.48    7.50
  -3  15  -5  160.88    4.80
   3 -15   5  149.29    5.00
   3 -15   5  153.58    6.50
  -4  15  -5  224.48    6.40
   4 -15   5  202.48    7.40
   4 -15   5  203.08    6.50
  -5  15  -5  608.44   17.00
   5 -15   5  587.04   17.00
   5 -15   5  572.94   17.90
  -6  15  -5   43.80    2.20
   6 -15   5   45.40    2.40
   6 -15   5   43.30    3.40
  -7  15  -5   -0.60    0.70
   7 -15   5    1.80    0.80
   7 -15   5   -1.10    1.10
  -8  15  -5   -0.50    0.90
   8 -15   5   -1.90    1.20
   8 -15   5    1.10    0.80
  -9  15  -5   20.00    2.30
   9 -15   5   18.50    3.20
   9 -15   5   21.10    2.40
 -10  15  -5  251.17    8.00
  10 -15   5  248.78    8.50
  10 -15   5  238.78    7.90
 -11  15  -5    9.70    1.40
  11 -15   5    9.10    1.70
 -12  15  -5   19.20    3.10
  -7 -14   5   34.90    2.00
  -6 -14   5   12.30    1.40
  -5 -14   5   20.50    1.60
   4  14  -5   21.80    1.50
  -4 -14   5   20.70    1.50
   3  14  -5    1.10    0.50
  -3 -14   5    1.30    0.50
   2  14  -5   18.60    1.30
  -2 -14   5   16.80    1.40
   1  14  -5   21.70    1.20
  -1 -14   5   18.70    1.50
  -1 -14   5   20.90    2.40
   0  14  -5  113.09    3.50
   0 -14   5  102.99    4.50
   0 -14   5  110.09    3.60
  -1  14  -5   84.09    2.70
   1 -14   5   75.49    3.70
   1 -14   5   76.29    2.90
  -2  14  -5  282.37    8.10
   2 -14   5  271.67    9.10
   2 -14   5  270.37    8.20
  -3  14  -5   55.09    2.10
   3 -14   5   54.29    2.40
   3 -14   5   52.29    3.20
  -4  14  -5  175.18    5.30
   4 -14   5  161.88    6.20
   4 -14   5  176.78    5.50
  -5  14  -5   85.49    3.10
   5 -14   5   83.99    4.00
   5 -14   5   85.69    3.20
  -6  14  -5    5.40    0.80
   6 -14   5    5.90    0.80
   6 -14   5    5.10    1.10
   7 -14   5    0.30    0.70
  -8  14  -5  109.29    4.10
   8 -14   5  106.89    4.70
   8 -14   5  106.69    4.00
  -9  14  -5   58.79    3.00
   9 -14   5   54.99    2.90
   9 -14   5   54.99    3.60
 -10  14  -5   70.19    3.40
  10 -14   5   65.29    3.90
  10 -14   5   67.29    3.30
 -11  14  -5   11.60    1.40
  11 -14   5   18.70    3.20
 -12  14  -5    9.90    1.50
  -8 -13   5    1.80    0.60
  -7 -13   5    5.30    0.70
  -6 -13   5   33.10    1.80
   5  13  -5  318.67    9.70
  -5 -13   5  347.47   11.70
  -5 -13   5  323.27    9.70
   4  13  -5  346.57   10.10
  -4 -13   5  342.07   10.10
  -4 -13   5  344.47   11.10
   3  13  -5   76.99    2.70
  -3 -13   5   76.89    3.70
  -3 -13   5   79.19    2.80
   2  13  -5   52.59    2.00
  -2 -13   5   51.69    2.10
  -2 -13   5   51.99    3.00
   1  13  -5   82.69    2.70
  -1 -13   5   79.29    3.80
  -1 -13   5   80.59    2.80
   0  13  -5  960.30   27.90
   0 -13   5 1010.00   28.90
   0 -13   5  995.00   28.00
  -1  13  -5    3.20    0.50
   1 -13   5    4.00    0.60
   1 -13   5    4.10    0.80
  -2  13  -5   23.20    1.30
   2 -13   5   27.20    2.30
   2 -13   5   23.90    1.60
  -3  13  -5   21.70    1.40
   3 -13   5   24.10    1.60
   3 -13   5   22.30    2.20
  -4  13  -5  328.37    9.60
   4 -13   5  321.27   10.40
   4 -13   5  329.77    9.70
  -5  13  -5   -0.30    0.60
   5 -13   5   -0.10    0.90
   5 -13   5   -0.30    0.60
  -6  13  -5   54.39    2.50
   6 -13   5   54.29    2.40
   6 -13   5   49.80    3.20
  -7  13  -5 1083.99   31.50
   7 -13   5 1116.39   31.90
   7 -13   5 1113.29   31.50
  -8  13  -5  122.19    4.50
   8 -13   5  124.19    4.90
   8 -13   5  122.79    4.30
  -9  13  -5    1.10    0.90
   9 -13   5   -0.10    0.70
   9 -13   5    0.30    1.00
 -10  13  -5   49.40    3.10
  10 -13   5   50.89    2.80
  10 -13   5   50.79    3.30
 -11  13  -5   99.19    4.30
  11 -13   5  100.29    4.30
 -12  13  -5   35.10    3.10
 -13  13  -5   29.50    3.20
  -8 -12   5    1.60    0.60
  -7 -12   5    6.10    1.20
  -7 -12   5    8.90    1.20
  -6 -12   5  429.26   13.50
  -6 -12   5  435.76   12.60
   5  12  -5    0.50    0.50
  -5 -12   5   -0.10    0.40
  -5 -12   5   -0.50    0.70
   4  12  -5    8.30    1.00
  -4 -12   5    5.90    1.00
   3  12  -5  107.29    3.40
  -3 -12   5  101.99    4.30
  -3 -12   5  107.29    3.40
   2  12  -5   38.70    1.60
  -2 -12   5   37.30    1.70
  -2 -12   5   39.80    2.60
   1  12  -5  119.69    3.80
  -1 -12   5  119.99    3.90
  -1 -12   5  122.99    4.80
   0  12  -5  187.88    5.70
   0 -12   5  191.78    5.80
   0 -12   5  199.38    6.70
  -1  12  -5   56.59    2.00
   1 -12   5   50.89    2.20
   1 -12   5   58.19    2.90
  -2  12  -5    7.70    1.00
   2 -12   5    9.20    1.20
  -3  12  -5   36.80    1.70
   3 -12   5   36.20    1.80
   3 -12   5   37.70    2.50
  -4  12  -5   22.90    1.50
   4 -12   5   24.30    1.60
   4 -12   5   21.70    2.20
  -5  12  -5   37.90    2.00
   5 -12   5   38.90    2.00
   5 -12   5   40.30    2.60
  -6  12  -5  318.97    9.60
   6 -12   5  323.47   10.10
   6 -12   5  316.87    9.50
  -7  12  -5  210.48    6.70
   7 -12   5  207.18    7.10
   7 -12   5  217.68    6.60
  -8  12  -5   40.50    2.60
   8 -12   5   43.70    2.80
   8 -12   5   43.60    2.30
  -9  12  -5   28.20    2.50
   9 -12   5   29.00    2.10
   9 -12   5   31.80    2.60
 -10  12  -5   -0.40    0.90
  10 -12   5    0.40    0.90
  10 -12   5    0.00    0.70
 -11  12  -5  226.28    7.50
  11 -12   5  219.78    7.20
 -12  12  -5  108.79    4.60
 -13  12  -5    1.60    1.10
 -10 -11   5  260.87   10.10
  -9 -11   5    1.00    1.20
  -9 -11   5    1.60    0.50
  -8 -11   5   68.09    3.80
  -8 -11   5   77.39    2.70
  -7 -11   5  646.74   18.60
  -7 -11   5  651.73   19.60
   6  11  -5   13.90    1.20
  -6 -11   5   12.10    1.10
   5  11  -5   63.59    2.40
  -5 -11   5   63.39    3.20
  -5 -11   5   64.39    2.30
   4  11  -5    1.30    0.40
  -4 -11   5    1.50    0.40
  -4 -11   5    1.20    0.80
   3  11  -5 2075.19   57.69
  -3 -11   5 2076.89   57.59
  -3 -11   5 1944.61   57.89
   2  11  -5 1070.59   30.60
  -2 -11   5 1074.59   30.70
  -2 -11   5 1110.19   31.50
   1  11  -5  743.23   20.70
  -1 -11   5  681.83   20.90
  -1 -11   5  761.32   21.60
   0  11  -5  194.18    5.80
   0 -11   5  198.88    6.60
   0 -11   5  189.08    6.00
  -1  11  -5  326.67    9.50
   1 -11   5  316.57    9.70
   1 -11   5  344.37   10.30
  -2  11  -5  269.17    8.10
   2 -11   5  281.77    8.80
  -3  11  -5   57.09    2.20
   3 -11   5   60.99    2.90
   3 -11   5   58.19    2.30
  -4  11  -5  419.36   12.40
   4 -11   5  432.16   13.00
   4 -11   5  434.56   12.50
  -5  11  -5  607.34   17.70
   5 -11   5  611.24   18.10
   5 -11   5  622.54   17.70
  -6  11  -5  276.77    8.40
   6 -11   5  281.17    8.40
   6 -11   5  277.17    8.80
  -7  11  -5   15.50    1.90
   7 -11   5    9.90    1.10
  -8  11  -5   -1.40    0.80
   8 -11   5   -0.60    0.80
   8 -11   5    0.00    0.60
  -9  11  -5    4.40    0.90
   9 -11   5    2.90    0.90
   9 -11   5    3.80    0.80
 -10  11  -5   40.20    2.70
  10 -11   5   39.20    2.60
  10 -11   5   40.10    2.40
 -11  11  -5    5.50    1.10
  11 -11   5    6.20    0.90
 -12  11  -5   16.70    2.50
 -13  11  -5  171.48    6.30
 -14  11  -5   26.30    3.10
 -12 -10   5  245.88    9.00
 -11 -10   5    3.30    1.30
 -10 -10   5   10.30    1.60
  -9 -10   5  132.69    4.40
  -9 -10   5  138.19    5.40
  -8 -10   5   30.40    1.60
  -8 -10   5   32.50    2.70
  -7 -10   5  476.05   14.50
  -7 -10   5  464.05   13.60
   6  10  -5  164.08    5.20
  -6 -10   5  167.38    5.10
  -6 -10   5  168.78    6.00
   5  10  -5 1094.69   31.70
  -5 -10   5 1133.59   32.40
  -5 -10   5 1126.59   31.60
   4  10  -5  366.86   10.60
  -4 -10   5  363.46   10.60
  -4 -10   5  367.86   11.40
   3  10  -5  442.36   12.90
  -3 -10   5  443.56   12.90
  -3 -10   5  466.55   13.80
  -2 -10   5    4.70    0.90
  -2 -10   5    4.20    0.60
  -1 -10   5    2.20    0.40
  -1 -10   5    1.30    0.70
   0  10  -5  390.66   11.50
   0 -10   5  413.66   12.30
   0 -10   5  401.26   11.60
  -1  10  -5   95.49    3.10
   1 -10   5   97.49    3.20
   1 -10   5   94.29    3.80
  -2  10  -5   64.79    2.30
   2 -10   5   67.59    2.40
   2 -10   5   69.59    3.00
  -3  10  -5  409.26   12.00
   3 -10   5  421.36   12.50
  -4  10  -5   23.80    1.50
   4 -10   5   23.30    1.90
   4 -10   5   23.00    1.50
  -5  10  -5   86.79    3.20
   5 -10   5   87.99    3.50
   5 -10   5   87.09    3.10
  -6  10  -5  394.36   11.70
   6 -10   5  390.36   11.90
   6 -10   5  399.86   11.60
  -7  10  -5   13.40    1.90
   7 -10   5   17.30    1.60
   7 -10   5   14.80    1.90
  -8  10  -5   54.39    2.80
   8 -10   5   55.99    2.50
   8 -10   5   56.49    2.70
  -9  10  -5   23.00    2.20
   9 -10   5   23.10    1.90
 -10  10  -5  126.59    4.80
  10 -10   5  128.59    4.50
  10 -10   5  128.69    4.40
 -11  10  -5   42.60    2.90
 -12  10  -5   -0.60    1.00
 -13  10  -5   96.09    4.40
 -14  10  -5    8.50    1.40
 -13  -9   5    3.80    1.60
 -12  -9   5   77.29    4.50
 -11  -9   5  128.99    5.50
 -10  -9   5   38.10    3.20
 -10  -9   5   34.10    1.80
  -9  -9   5  700.63   20.70
  -9  -9   5  684.03   19.80
  -8  -9   5   12.80    2.20
  -8  -9   5    8.40    1.10
  -7  -9   5    0.50    0.70
  -7  -9   5    0.70    0.40
   6   9  -5   13.70    1.10
  -6  -9   5   11.40    1.90
  -6  -9   5   13.10    1.00
   5   9  -5  800.12   23.70
  -5  -9   5  878.21   24.50
  -5  -9   5  824.92   23.70
   4   9  -5  771.22   22.40
  -4  -9   5  823.62   23.20
  -4  -9   5  773.32   22.40
   3   9  -5    1.80    0.30
  -3  -9   5    1.30    0.40
  -3  -9   5    1.30    0.70
   2   9  -5  326.27    9.60
  -2  -9   5  326.57    9.60
  -2  -9   5  347.87   10.40
   1   9  -5  741.73   21.90
  -1  -9   5  808.12   22.70
  -1  -9   5  779.12   22.00
   0   9  -5  213.98    6.50
   0  -9   5  223.28    7.10
   0  -9   5  224.38    6.50
  -1   9  -5  191.78    5.80
   1  -9   5  196.18    5.90
   1  -9   5  199.08    6.40
  -2   9  -5   10.80    1.00
   2  -9   5   10.00    1.50
   2  -9   5   10.60    1.10
  -3   9  -5  399.56   11.50
   3  -9   5  399.16   11.50
   3  -9   5  387.36   11.90
  -4   9  -5  170.48    5.30
   4  -9   5  171.58    5.20
   4  -9   5  164.08    5.60
  -5   9  -5   35.40    1.90
   5  -9   5   37.20    1.80
  -6   9  -5   20.20    1.70
   6  -9   5   22.80    1.60
   6  -9   5   20.00    1.80
  -7   9  -5  500.75   14.80
   7  -9   5  510.25   14.80
   7  -9   5  509.55   14.80
  -8   9  -5   14.50    1.90
   8  -9   5   15.40    1.70
   8  -9   5   17.40    1.60
  -9   9  -5   18.10    2.20
   9  -9   5   20.40    1.70
   9  -9   5   21.40    1.80
 -10   9  -5    6.90    1.00
 -11   9  -5   35.40    2.70
 -12   9  -5   63.39    3.50
 -13   9  -5    0.40    1.10
 -14   9  -5   67.39    3.90
 -13  -8   5   51.39    4.10
 -12  -8   5    3.10    1.30
 -11  -8   5  187.08    6.80
 -10  -8   5  170.98    6.30
 -10  -8   5  175.28    5.50
  -9  -8   5  171.38    6.10
  -9  -8   5  167.08    5.30
  -8  -8   5    1.50    0.40
  -8  -8   5    0.90    0.80
   7   8  -5  618.24   18.70
  -7  -8   5  683.13   19.40
  -7  -8   5  656.53   18.60
   6   8  -5  117.59    3.70
  -6  -8   5  121.19    3.70
  -6  -8   5  108.49    4.40
   5   8  -5   45.60    1.80
  -5  -8   5   47.30    1.70
  -5  -8   5   47.50    2.50
   4   8  -5   43.30    1.70
  -4  -8   5   45.10    1.70
  -4  -8   5   49.80    2.40
   3   8  -5  781.82   22.50
  -3  -8   5  812.52   23.20
  -3  -8   5  789.42   22.50
   2   8  -5  948.01   26.80
  -2  -8   5  954.20   26.70
  -2  -8   5  904.91   27.00
   1   8  -5   30.30    1.30
  -1  -8   5   32.60    1.40
  -1  -8   5   32.40    2.00
   0   8  -5  129.29    3.90
   0  -8   5  131.59    4.00
   0  -8   5  126.99    4.50
  -1   8  -5    5.60    0.80
   1  -8   5    5.10    0.90
  -2   8  -5  212.88    6.30
   2  -8   5  210.98    6.80
   2  -8   5  214.68    6.40
  -3   8  -5 1487.05   40.20
   3  -8   5 1380.66   40.20
   3  -8   5 1376.36   39.90
  -4   8  -5   15.80    1.40
   4  -8   5   15.00    1.30
   4  -8   5   14.00    1.50
  -5   8  -5  452.85   13.20
   5  -8   5  457.25   13.20
   5  -8   5  450.05   13.30
  -6   8  -5    3.60    0.70
   6  -8   5    3.60    0.60
   6  -8   5    3.60    0.70
  -7   8  -5  919.81   26.70
   7  -8   5  951.80   26.60
   7  -8   5  924.51   26.60
  -8   8  -5  163.78    5.50
   8  -8   5  162.68    5.30
   8  -8   5  163.48    5.10
  -9   8  -5   68.59    3.20
   9  -8   5   65.79    2.80
 -10   8  -5   -0.40    0.80
 -11   8  -5   30.50    2.60
 -12   8  -5   22.60    2.60
 -13   8  -5   15.10    2.70
 -14   8  -5    7.30    1.40
 -14  -7   5   19.30    3.60
 -13  -7   5    4.00    1.40
 -12  -7   5    5.20    1.20
 -11  -7   5   62.59    3.50
 -11  -7   5   53.89    2.40
 -10  -7   5  170.18    6.10
 -10  -7   5  170.08    5.30
  -9  -7   5    5.50    0.60
  -9  -7   5    6.40    1.00
  -8  -7   5  977.10   27.60
  -8  -7   5  923.81   27.00
   7   7  -5 1657.03   49.80
  -7  -7   5 1796.02   50.39
  -7  -7   5 1847.72   50.49
   6   7  -5   74.99    2.60
  -6  -7   5   79.19    2.50
  -6  -7   5   74.89    3.20
   5   7  -5    0.50    0.30
  -5  -7   5    0.10    0.50
  -5  -7   5    0.40    0.30
   4   7  -5  203.68    6.00
  -4  -7   5  207.48    6.70
  -4  -7   5  202.98    6.00
   3   7  -5   89.59    2.90
  -3  -7   5   88.99    3.50
  -3  -7   5   94.89    2.90
   2   7  -5 2183.08   63.59
  -2  -7   5 2280.67   63.59
   1   7  -5  156.98    4.80
  -1  -7   5  160.88    4.80
  -1  -7   5  161.68    5.40
   0   7  -5 1120.79   31.50
   0  -7   5 1036.50   31.30
   0  -7   5 1125.39   31.20
  -1   7  -5  279.27    8.20
   1  -7   5  282.67    8.20
   1  -7   5  279.17    8.60
  -2   7  -5   58.79    2.20
   2  -7   5   58.99    2.20
   2  -7   5   57.39    2.50
  -3   7  -5 1084.59   30.80
   3  -7   5 1091.79   31.10
   3  -7   5 1089.69   30.80
  -4   7  -5    1.80    0.60
   4  -7   5    2.90    0.60
   4  -7   5    2.10    0.60
  -5   7  -5 1290.47   36.90
   5  -7   5 1286.67   36.90
   5  -7   5 1327.97   36.80
  -6   7  -5   37.20    2.00
   6  -7   5   37.40    1.90
   6  -7   5   37.80    1.90
  -7   7  -5    1.20    0.70
   7  -7   5    2.30    0.60
   7  -7   5    1.80    0.50
  -8   7  -5  303.67    9.40
   8  -7   5  311.97    9.30
  -9   7  -5    1.00    0.80
   9  -7   5    2.10    0.70
 -10   7  -5   15.70    2.10
 -11   7  -5    2.40    1.00
 -12   7  -5  345.57   10.90
 -13   7  -5  391.26   12.20
 -14   7  -5   87.49    4.30
 -14  -6   5   45.60    3.90
 -13  -6   5    0.70    1.20
 -12  -6   5  176.98    6.40
 -11  -6   5   22.40    2.50
 -11  -6   5   23.20    1.50
 -10  -6   5 1423.86   40.00
 -10  -6   5 1359.36   39.40
  -9  -6   5  508.85   14.70
  -8  -6   5   17.30    1.10
   7   6  -5   41.60    1.70
  -7  -6   5   42.10    1.60
   6   6  -5   19.80    1.10
  -6  -6   5   20.10    1.00
   5   6  -5  543.15   15.50
   4   6  -5  202.88    6.00
  -4  -6   5  204.78    6.00
   3   6  -5  718.23   20.10
  -3  -6   5  682.73   19.80
   2   6  -5  647.44   18.10
  -2  -6   5  609.24   17.80
   1   6  -5 2940.61   84.49
  -1  -6   5 3014.70   84.59
   0   6  -5  836.02   23.40
   0  -6   5  795.92   23.10
  -1   6  -5  377.06   11.00
   1  -6   5  385.66   11.00
   1  -6   5  385.46   11.40
  -2   6  -5   48.60    1.90
   2  -6   5   46.90    1.90
   2  -6   5   43.70    2.10
  -3   6  -5  180.88    5.40
   3  -6   5  164.28    5.50
   3  -6   5  176.08    5.30
  -4   6  -5  328.57    9.60
   4  -6   5  323.17    9.70
  -5   6  -5  254.07    7.60
   5  -6   5  250.97    7.50
   5  -6   5  248.78    7.50
  -6   6  -5    8.10    1.40
   6  -6   5   10.00    1.30
   6  -6   5    8.10    1.10
  -7   6  -5   48.50    2.40
   7  -6   5   48.50    2.20
  -8   6  -5    0.90    0.70
   8  -6   5    2.10    0.60
  -9   6  -5  509.95   15.10
 -10   6  -5   -0.20    0.80
 -11   6  -5   61.69    3.10
 -12   6  -5    4.90    1.10
 -13   6  -5  203.18    7.10
 -14   6  -5   22.30    2.80
 -15  -5   5   20.00    3.80
 -14  -5   5   19.70    3.20
 -13  -5   5    7.30    1.30
 -12  -5   5   96.49    3.50
 -12  -5   5  100.39    4.20
 -11  -5   5  133.29    4.40
 -10  -5   5  425.86   12.40
  -9  -5   5  719.93   20.50
  -8  -5   5  291.27    8.50
   7   5  -5    1.30    0.30
  -7  -5   5    1.70    0.30
   6   5  -5   61.69    2.10
   5   5  -5   17.30    1.00
  -5  -5   5   21.10    1.00
   4   5  -5  112.99    3.50
  -4  -5   5  117.99    3.50
   3   5  -5  140.49    4.20
  -3  -5   5  140.79    4.20
   2   5  -5    0.90    0.30
  -2  -5   5    0.80    0.30
   1   5  -5  403.96   11.60
  -1  -5   5  409.66   11.60
   0   5  -5    4.20    0.70
   0  -5   5    4.80    0.80
  -1   5  -5  211.68    6.30
   1  -5   5  212.58    6.30
  -2   5  -5  407.76   11.80
   2  -5   5  413.76   11.80
   2  -5   5  404.36   11.90
  -3   5  -5 1840.62   49.40
   3  -5   5 1721.03   48.70
   3  -5   5 1630.34   48.80
  -4   5  -5  422.66   12.20
   4  -5   5  417.46   12.20
  -5   5  -5    1.30    0.60
   5  -5   5    1.40    0.50
   5  -5   5    1.30    0.40
  -6   5  -5  183.28    5.90
   6  -5   5  192.88    5.90
  -7   5  -5  408.06   12.20
   7  -5   5  418.96   12.20
  -8   5  -5  228.18    7.30
   8  -5   5  234.88    7.20
  -9   5  -5   44.50    2.50
 -10   5  -5   45.10    2.70
 -11   5  -5  170.68    6.00
 -12   5  -5   26.30    2.70
 -13   5  -5    2.70    1.10
 -14   5  -5   52.99    3.50
 -15  -4   5   46.80    3.70
 -14  -4   5    1.30    1.10
 -12  -4   5  723.43   20.80
 -11  -4   5  424.36   12.40
 -10  -4   5  418.06   12.20
  -9  -4   5  268.57    7.90
  -8  -4   5  119.59    3.80
  -7  -4   5  128.49    3.90
   6   4  -5   68.99    2.30
  -6  -4   5   66.99    2.30
   5   4  -5  242.78    7.10
  -5  -4   5  247.38    7.10
   4   4  -5 1179.98   34.00
  -4  -4   5 1189.78   34.00
   3   4  -5   21.60    0.90
  -3  -4   5   19.50    0.90
   2   4  -5  484.15   13.80
  -2  -4   5  486.65   13.80
   1   4  -5   92.09    2.80
  -1  -4   5   93.29    2.90
  -1   4  -5 2656.53   76.59
   1  -4   5 2725.53   76.49
  -2   4  -5  360.76   10.50
   2  -4   5  357.36   10.40
  -3   4  -5  968.90   27.60
   3  -4   5  981.50   27.60
  -4   4  -5   15.60    1.40
   4  -4   5   16.90    1.10
  -5   4  -5  571.44   17.00
   5  -4   5  605.44   16.90
  -6   4  -5  154.18    5.00
   6  -4   5  156.38    4.90
  -7   4  -5  302.77    9.30
   7  -4   5  316.17    9.30
  -8   4  -5    0.60    0.60
   8  -4   5    0.10    0.50
  -9   4  -5  201.88    6.60
 -10   4  -5   36.90    2.50
 -11   4  -5   86.69    3.80
 -12   4  -5  111.49    4.60
 -13   4  -5  225.18    7.70
 -14   4  -5   47.40    3.30
 -15  -3   5   76.99    4.10
 -13  -3   5   71.89    2.90
 -12  -3   5  124.89    4.20
 -11  -3   5    1.70    0.40
 -10  -3   5    0.80    0.40
  -9  -3   5    6.30    0.90
  -8  -3   5  139.99    4.30
   7   3  -5   83.09    2.70
   6   3  -5  110.09    3.50
  -6  -3   5  113.09    3.50
   5   3  -5  553.34   15.60
  -5  -3   5  544.55   15.60
   4   3  -5  274.67    7.90
   3   3  -5   39.50    1.30
  -2  -3   5   19.90    0.90
   1   3  -5  189.28    5.60
  -1  -3   5  194.38    5.60
   0   3  -5 4014.10  113.59
   0  -3   5 4013.80  113.59
  -1   3  -5   14.20    1.00
   1  -3   5   14.90    1.00
  -2   3  -5   73.79    2.60
   2  -3   5   74.99    2.50
  -3   3  -5   92.79    3.10
   3  -3   5   92.59    3.10
  -4   3  -5  179.58    5.50
  -5   3  -5   60.49    2.40
   5  -3   5   62.89    2.40
  -6   3  -5   42.40    2.00
   6  -3   5   43.00    2.00
  -7   3  -5   51.39    2.40
   7  -3   5   50.29    2.20
  -8   3  -5  415.96   12.40
  -9   3  -5  327.97   10.10
 -10   3  -5   21.60    2.20
 -11   3  -5   52.99    3.00
 -12   3  -5   73.09    3.70
 -13   3  -5  230.18    7.80
 -14   3  -5  162.58    6.20
 -16  -2   5   36.60    2.40
 -13  -2   5  912.61   26.10
 -12  -2   5   17.20    1.30
 -10  -2   5 1245.48   35.20
  -9  -2   5  940.41   26.70
  -8  -2   5  255.47    7.50
   7   2  -5 1071.29   30.60
  -7  -2   5 1057.39   30.60
   6   2  -5   56.59    2.00
  -6  -2   5   60.29    2.00
   5   2  -5 1029.30   29.50
  -5  -2   5 1025.80   29.40
   4   2  -5    1.10    0.20
   3   2  -5  259.07    7.50
  -3  -2   5  261.97    7.50
   2   2  -5 3487.45   99.89
  -2  -2   5 3583.74   99.99
   1   2  -5 1078.19   30.70
  -1  -2   5 1076.69   30.60
   0   2  -5  288.57    8.40
   0  -2   5  296.17    8.40
  -1   2  -5  267.87    7.80
   1  -2   5  266.77    7.80
  -2   2  -5   74.89    2.60
   2  -2   5   80.39    2.60
  -3   2  -5 1288.57   36.00
   3  -2   5 1231.18   35.60
  -4   2  -5 1434.86   40.50
  -5   2  -5  541.15   15.90
   5  -2   5  560.34   15.90
  -6   2  -5  189.58    6.10
   6  -2   5  199.28    6.10
  -7   2  -5   23.40    1.70
  -8   2  -5   38.40    2.30
  -9   2  -5   -1.00    0.70
 -10   2  -5   11.80    2.10
 -11   2  -5  256.97    8.30
 -12   2  -5   21.40    2.60
 -13   2  -5   59.79    3.60
 -14   2  -5   83.39    5.10
 -16  -1   5    2.40    0.80
 -15  -1   5    0.50    0.70
 -13  -1   5   21.70    1.50
 -12  -1   5  121.99    4.00
 -11  -1   5  816.92   23.30
 -10  -1   5    0.80    0.40
  -9  -1   5   56.39    2.00
  -8  -1   5  105.29    3.30
   7   1  -5  292.27    8.60
  -7  -1   5  300.37    8.60
   6   1  -5  239.28    7.10
  -6  -1   5  250.97    7.10
  -5  -1   5  228.98    6.60
   4   1  -5  369.16   10.60
  -4  -1   5  375.06   10.60
   3   1  -5  116.09    3.50
  -3  -1   5  123.29    3.60
   2   1  -5  282.57    8.10
  -2  -1   5  281.97    8.10
   1   1  -5  554.54   15.70
  -1  -1   5  553.44   15.70
   0   1  -5  667.43   19.10
   0  -1   5  684.43   19.10
  -1   1  -5   76.89    2.60
   1  -1   5   80.99    2.60
  -2   1  -5 1760.92   50.39
   2  -1   5 1765.62   49.90
   2  -1   5 1764.32   49.99
  -3   1  -5    2.90    0.50
   3  -1   5    3.00    0.50
  -4   1  -5  503.05   14.20
   4  -1   5  476.65   14.40
  -5   1  -5   27.40    1.60
   5  -1   5   26.50    1.50
  -6   1  -5  320.87    9.80
   6  -1   5  333.07    9.70
  -7   1  -5  166.88    5.40
  -8   1  -5   69.79    3.50
 -11   1  -5  141.29    5.20
 -12   1  -5    4.40    1.10
 -13   1  -5    4.20    1.10
 -17   0   5    4.70    0.90
 -16   0   5  314.37    9.40
 -15   0   5  119.69    4.10
 -14   0   5    1.80    0.60
 -14   0   5    1.40    0.60
 -13   0   5   -0.40    0.40
 -13   0   5   -0.30    0.50
 -12   0   5  244.48    7.40
 -11   0   5  362.66   10.60
 -10   0   5   34.40    1.50
  -9   0   5  545.55   15.60
  -8   0   5  182.18    5.70
   7   0  -5  267.97    7.90
  -7   0   5  277.07    7.90
   6   0  -5  210.48    6.20
  -6   0   5  213.18    6.10
   5   0  -5   22.20    0.90
  -5   0   5   23.30    0.90
   4   0  -5 1335.07   38.20
  -4   0   5 1358.86   38.30
   3   0  -5 1300.57   36.90
  -3   0   5 1300.77   36.90
   2   0  -5   42.00    1.40
  -2   0   5   44.00    1.50
   1   0  -5  799.32   23.00
  -1   0   5  812.32   22.90
   0   0  -5 4437.06  123.79
   0   0   5 4320.97  123.69
   0   0   5 4394.26  123.79
  -1   0  -5  768.92   22.80
   1   0   5  790.92   22.80
   1   0   5  853.61   23.10
  -2   0  -5   92.39    3.00
   2   0   5   89.99    2.80
   2   0   5   94.79    3.00
  -3   0  -5  213.88    6.50
   3   0   5  222.98    6.50
  -4   0  -5  772.22   21.90
   4   0   5  761.92   21.90
  -5   0  -5  942.71   27.40
   5   0   5  980.40   27.40
  -6   0  -5  253.07    7.70
  -7   0  -5    4.00    0.70
  -9   0  -5  572.64   16.90
 -10   0  -5    5.00    0.90
 -11   0  -5    4.30    1.00
 -12   0  -5   46.10    3.00
 -13   0  -5    4.20    1.20
 -18   1   5   33.30    2.80
 -17   1   5  153.18    5.50
 -17   1   5  147.39    5.20
 -16   1   5   11.10    1.90
 -15   1   5    1.20    0.70
 -14   1   5    1.80    0.50
 -14   1   5    0.10    0.60
 -13   1   5   52.39    2.20
 -13   1   5   48.80    2.30
 -12   1   5    3.60    0.50
 -12   1   5    4.20    0.60
 -11   1   5    2.20    0.40
 -11   1   5    2.50    0.50
 -10   1   5    2.10    0.40
 -10   1   5    2.80    0.50
  -9   1   5  669.63   18.80
  -9   1   5  648.34   18.70
  -8   1   5  483.95   14.00
  -8   1   5  495.35   14.10
   7  -1  -5  214.28    6.40
  -7   1   5  221.48    6.40
  -7   1   5  224.08    6.50
   6  -1  -5   73.89    2.40
  -6   1   5   74.69    2.50
  -6   1   5   76.89    2.30
   5  -1  -5  407.16   11.60
  -5   1   5  417.66   11.80
  -5   1   5  405.76   11.60
   4  -1  -5  201.58    6.10
  -4   1   5  210.48    6.10
  -4   1   5  221.78    6.20
   3  -1  -5    5.10    0.40
  -3   1   5    4.30    0.60
   2  -1  -5 3169.88   90.19
  -2   1   5 3119.29   90.99
  -2   1   5 3315.37   90.79
   1  -1  -5 1008.90   29.00
  -1   1   5 1040.30   29.30
  -1   1   5 1024.10   29.00
   0  -1  -5   16.80    1.00
   0   1   5   17.80    1.00
   0   1   5   21.20    0.90
  -1  -1  -5 1113.09   32.30
  -1  -1  -5 1146.49   32.40
   1   1   5 1150.58   32.50
   1   1   5 1127.99   32.30
  -2  -1  -5  583.14   16.40
  -2  -1  -5  547.25   16.30
   2   1   5  570.94   16.40
   2   1   5  598.34   16.40
  -3  -1  -5   78.89    2.80
   3   1   5   78.39    2.70
   3   1   5   82.29    2.60
  -4  -1  -5  257.17    7.80
   4   1   5  268.77    7.80
  -5  -1  -5   98.49    3.40
  -6  -1  -5   35.00    1.90
  -7  -1  -5   75.59    3.00
  -8  -1  -5  720.23   20.90
  -9  -1  -5  212.58    6.90
 -10  -1  -5   -0.30    0.80
 -11  -1  -5    1.30    0.90
 -12  -1  -5    7.50    1.20
 -13  -1  -5   46.90    3.30
 -18   2   5   66.69    3.50
 -17   2   5    5.70    1.00
 -17   2   5    6.70    1.10
 -16   2   5    2.20    0.90
 -15   2   5  109.79    4.00
 -14   2   5  354.56   10.50
 -14   2   5  353.36   10.50
 -13   2   5  319.97    9.40
 -13   2   5  312.47    9.40
 -12   2   5   58.49    2.30
 -12   2   5   57.59    2.20
 -11   2   5    6.60    1.20
 -11   2   5    9.20    1.00
 -10   2   5    9.80    1.10
 -10   2   5   10.80    0.90
  -9   2   5  129.29    4.00
  -9   2   5  118.29    4.00
  -8   2   5  566.34   15.80
  -8   2   5  541.35   15.90
  -7   2   5  197.48    5.90
  -7   2   5  194.38    5.70
   6  -2  -5 1133.49   32.00
  -6   2   5 1124.69   32.00
  -6   2   5 1108.59   31.80
   5  -2  -5   90.39    2.70
  -5   2   5   88.79    2.80
  -5   2   5   86.79    2.70
   4  -2  -5  147.69    4.30
  -4   2   5  150.28    4.60
  -4   2   5  151.88    4.50
   3  -2  -5  282.57    8.30
   3  -2  -5  303.47    8.50
  -3   2   5  291.27    8.50
  -3   2   5  293.17    8.30
   2  -2  -5  809.52   23.50
   2  -2  -5  860.81   23.70
  -2   2   5  789.92   23.40
  -2   2   5  865.01   24.00
   1  -2  -5  544.55   15.70
   1  -2  -5  548.45   15.80
  -1   2   5  548.35   15.80
  -1   2   5  575.24   15.70
   0  -2  -5  416.86   12.20
   0  -2  -5  431.36   12.20
   0   2   5  427.56   12.20
   0   2   5  434.16   12.30
  -1  -2  -5  139.29    4.20
  -1  -2  -5  141.49    4.30
   1   2   5  139.39    4.30
   1   2   5  140.19    4.30
  -2  -2  -5 1487.35   41.40
  -2  -2  -5 1425.26   41.30
   2   2   5 1450.35   41.30
   2   2   5 1457.55   41.30
  -3  -2  -5  192.28    5.70
  -3  -2  -5  193.98    5.90
   3   2   5  195.48    5.90
   3   2   5  194.58    5.90
  -4  -2  -5  631.64   17.90
  -4  -2  -5  612.84   17.60
   4   2   5  624.14   17.80
  -5  -2  -5  407.36   11.90
  -6  -2  -5  243.38    7.50
  -7  -2  -5  646.94   18.80
  -8  -2  -5  160.58    5.50
  -9  -2  -5    7.90    1.10
 -10  -2  -5   19.70    2.20
 -11  -2  -5  167.78    6.00
 -12  -2  -5   25.70    2.60
 -13  -2  -5   21.90    3.00
 -18   3   5   17.50    2.50
 -17   3   5  146.49    5.50
 -17   3   5  148.99    5.30
 -16   3   5  222.98    7.10
 -15   3   5   72.09    3.10
 -15   3   5   74.89    3.20
 -14   3   5  625.54   18.00
 -14   3   5  618.64   18.00
 -13   3   5   14.00    1.70
 -13   3   5   15.20    1.30
 -12   3   5    0.70    0.50
 -12   3   5    1.70    0.40
 -11   3   5  787.12   22.90
 -11   3   5  818.92   22.90
 -10   3   5   70.69    2.40
 -10   3   5   64.49    2.50
  -9   3   5   60.89    2.20
  -9   3   5   64.79    2.40
  -8   3   5  505.75   14.20
  -8   3   5  491.95   14.40
  -7   3   5    0.20    0.30
  -7   3   5    0.60    0.30
   6  -3  -5  247.38    7.20
   6  -3  -5  261.47    7.40
  -6   3   5  242.18    7.20
   5  -3  -5  268.97    7.40
   5  -3  -5  240.98    7.20
  -5   3   5  252.27    7.20
  -5   3   5  241.68    7.40
   4  -3  -5   32.70    1.40
   4  -3  -5   33.00    1.10
  -4   3   5   32.30    1.10
   3  -3  -5   36.40    1.40
   3  -3  -5   33.10    1.10
  -3   3   5   35.00    1.50
  -3   3   5   35.70    1.20
   2  -3  -5  256.87    7.60
   2  -3  -5  274.57    7.80
  -2   3   5  260.97    7.70
  -2   3   5  280.97    7.90
   1  -3  -5   93.69    2.90
   1  -3  -5   89.69    2.80
  -1   3   5   93.89    2.90
  -1   3   5   87.69    3.00
   0  -3  -5  725.13   20.60
   0  -3  -5  727.83   20.60
   0   3   5  728.43   20.60
   0   3   5  727.63   20.80
  -1  -3  -5  416.96   11.90
  -1  -3  -5  416.56   11.90
   1   3   5  409.96   11.90
   1   3   5  409.76   12.10
  -2  -3  -5  162.18    4.80
  -2  -3  -5  156.58    4.90
   2   3   5  159.58    4.90
   2   3   5  160.68    5.00
  -3  -3  -5   23.70    1.10
  -3  -3  -5   20.00    1.30
   3   3   5   21.50    1.40
  -4  -3  -5  341.97    9.90
  -4  -3  -5  340.07   10.00
   4   3   5  341.87   10.10
  -5  -3  -5   16.20    1.00
  -5  -3  -5   11.60    1.40
   5   3   5   12.60    1.50
  -6  -3  -5   81.79    3.10
  -7  -3  -5  307.97    9.40
  -8  -3  -5  136.19    4.80
  -9  -3  -5    0.00    0.80
 -10  -3  -5   14.90    2.20
 -11  -3  -5  151.98    5.60
 -12  -3  -5   25.40    2.70
 -18   4   5   78.39    3.90
 -17   4   5    1.10    0.90
 -17   4   5   -0.90    1.00
 -16   4   5   99.09    4.20
 -16   4   5  103.99    4.10
 -15   4   5  201.38    6.40
 -15   4   5  193.98    6.20
 -14   4   5   19.70    1.60
 -14   4   5   20.90    2.10
 -13   4   5  411.06   12.10
 -13   4   5  416.36   12.20
 -12   4   5  287.67    8.50
 -12   4   5  284.57    8.60
 -11   4   5  105.19    3.40
 -11   4   5  103.59    3.60
 -10   4   5  744.53   20.80
 -10   4   5  717.93   21.00
  -9   4   5    5.90    1.20
  -8   4   5 1249.88   34.00
  -8   4   5 1144.49   33.90
   7  -4  -5    9.10    1.10
  -7   4   5    9.20    0.70
  -7   4   5   10.30    1.10
   6  -4  -5  271.17    7.70
  -6   4   5  256.87    7.70
  -6   4   5  249.08    7.40
   5  -4  -5   38.50    1.30
  -5   4   5   38.80    1.70
  -5   4   5   40.40    1.30
   4  -4  -5  120.79    3.70
   4  -4  -5  108.39    3.30
  -4   4   5  115.39    3.40
  -4   4   5  111.59    3.70
   3  -4  -5  823.92   23.00
   3  -4  -5  854.91   23.20
  -3   4   5  808.12   22.90
  -3   4   5  776.82   23.30
   2  -4  -5  366.06   10.30
   2  -4  -5  346.27   10.00
  -2   4   5  351.66   10.10
   1  -4  -5   28.50    1.20
   1  -4  -5   30.20    1.40
  -1   4   5   27.40    1.60
   0  -4  -5  767.82   21.30
   0  -4  -5  742.63   21.10
   0   4   5  733.73   21.40
   0   4   5  744.53   21.10
  -1  -4  -5   89.19    2.90
  -1  -4  -5   80.49    2.80
   1   4   5   84.09    3.10
   1   4   5   83.19    2.70
  -2  -4  -5  107.29    3.40
  -2  -4  -5   99.59    3.40
   2   4   5  105.89    3.60
  -3  -4  -5  141.39    4.50
  -3  -4  -5  150.98    4.50
   3   4   5  141.59    4.70
  -4  -4  -5 1155.88   32.80
  -4  -4  -5 1144.59   32.90
   4   4   5 1184.78   33.10
  -5  -4  -5  169.08    5.40
  -5  -4  -5  169.28    5.20
   5   4   5  167.28    5.50
  -6  -4  -5    3.30    0.70
  -6  -4  -5    1.80    0.50
   6   4   5    2.10    0.80
  -8  -4  -5  392.16   11.80
  -9  -4  -5  120.19    4.50
 -10  -4  -5   24.80    2.40
 -11  -4  -5    2.20    1.10
 -12  -4  -5  103.89    4.60
 -18   5   5  174.08    6.30
 -17   5   5   52.49    3.40
 -17   5   5   56.69    3.20
 -16   5   5   27.00    2.70
 -16   5   5   25.30    2.40
 -15   5   5   74.99    2.90
 -15   5   5   73.09    3.30
 -15   5   5   73.49    3.40
 -14   5   5  241.98    7.60
 -14   5   5  236.08    7.30
 -13   5   5    0.60    0.50
 -13   5   5    1.30    0.70
 -12   5   5  325.27    9.80
 -12   5   5  325.67    9.60
 -11   5   5  505.95   14.60
 -11   5   5  487.45   14.30
 -10   5   5 1748.13   46.70
 -10   5   5 1548.35   46.90
   9  -5  -5  138.09    4.30
  -9   5   5  129.39    4.40
  -9   5   5  133.39    4.00
  -8   5   5   18.90    0.90
  -8   5   5   21.70    1.50
   7  -5  -5  336.77    9.50
  -7   5   5  306.07    9.10
  -7   5   5  314.07    9.50
  -6   5   5  765.02   22.00
   5  -5  -5  149.79    4.40
   5  -5  -5  159.48    4.80
  -5   5   5  152.68    4.40
  -5   5   5  148.79    4.90
   4  -5  -5 1024.70   27.90
  -4   5   5  942.71   28.10
  -3   5   5  423.36   12.20
  -3   5   5  442.66   12.70
   2  -5  -5  654.73   19.20
   2  -5  -5  716.93   19.50
  -2   5   5  684.33   19.70
  -2   5   5  671.33   19.20
   1  -5  -5  665.13   18.70
   1  -5  -5  630.64   18.40
  -1   5   5  636.64   18.90
  -1   5   5  682.13   18.70
   0  -5  -5  353.86   10.00
   0  -5  -5  329.97    9.70
   0   5   5  333.17   10.20
  -1  -5  -5  152.08    4.60
  -1  -5  -5  142.99    4.50
   1   5   5  143.89    4.80
  -2  -5  -5   31.10    1.50
  -2  -5  -5   33.10    1.60
   2   5   5   34.50    1.90
  -3  -5  -5  314.57    9.20
  -3  -5  -5  305.27    9.20
   3   5   5  314.27    9.50
  -4  -5  -5 1122.99   31.60
  -4  -5  -5 1087.39   31.60
   4   5   5 1126.19   31.80
  -5  -5  -5  146.79    4.80
  -5  -5  -5  149.59    4.70
   5   5   5  145.09    5.10
  -6  -5  -5  274.77    8.30
  -6  -5  -5  280.07    8.50
   6   5   5  281.57    8.70
  -7  -5  -5  248.48    7.70
  -7  -5  -5  239.28    7.40
  -8  -5  -5   79.09    3.40
  -9  -5  -5  192.18    6.50
 -10  -5  -5    1.60    0.90
 -11  -5  -5   96.49    4.30
 -18   6   5   44.30    3.20
 -17   6   5   17.30    3.00
 -17   6   5   19.80    2.50
 -16   6   5  141.59    5.20
 -16   6   5  139.09    5.30
 -15   6   5  217.28    7.20
 -15   6   5  219.38    6.80
 -15   6   5  217.18    7.10
 -14   6   5  223.48    7.30
 -14   6   5  222.28    6.80
 -13   6   5    1.80    0.60
 -12   6   5  662.43   19.20
 -12   6   5  657.43   18.90
 -11   6   5   77.39    2.60
 -11   6   5   72.59    3.10
  10  -6  -5   14.40    1.40
 -10   6   5   16.90    1.00
 -10   6   5   18.50    1.70
   9  -6  -5   33.50    1.70
  -9   6   5   30.80    1.30
  -9   6   5   28.10    1.80
   8  -6  -5  130.09    4.10
  -8   6   5  123.69    4.30
  -8   6   5  122.19    3.70
   7  -6  -5  184.78    5.50
  -7   6   5  174.78    5.70
  -7   6   5  170.98    5.10
  -6   6   5  323.97    9.70
  -6   6   5  315.67    9.10
  -5   6   5  140.39    4.70
   4  -6  -5   33.20    1.70
  -4   6   5   30.60    1.80
  -3   6   5  203.38    6.50
  -2   6   5  298.67    9.10
   1  -6  -5  342.07   10.00
   1  -6  -5  351.66   11.20
  -1   6   5  361.36   10.60
   0  -6  -5   19.00    1.60
   0  -6  -5   17.90    1.10
   0   6   5   22.00    1.70
  -1  -6  -5 1002.20   31.00
  -1  -6  -5 1117.29   30.50
   1   6   5 1121.09   31.00
  -2  -6  -5  329.57    9.50
  -2  -6  -5  311.57    9.70
   2   6   5  330.27    9.90
  -3  -6  -5  243.28    7.60
  -3  -6  -5  249.48    7.40
   3   6   5  246.78    7.80
  -4  -6  -5   63.29    2.60
  -4  -6  -5   67.89    2.60
   4   6   5   62.49    3.10
  -5  -6  -5  166.78    5.50
  -5  -6  -5  169.48    5.50
   5   6   5  173.48    5.90
  -6  -6  -5    2.30    0.80
  -6  -6  -5    2.20    0.70
   6   6   5    2.30    0.90
  -7  -6  -5    2.90    0.80
  -7  -6  -5    2.30    0.80
  -8  -6  -5    2.70    0.90
  -9  -6  -5  176.48    6.10
 -10  -6  -5   82.19    3.90
 -18   7   5    8.50    2.40
 -18   7   5    6.90    1.30
 -17   7   5   17.30    2.60
 -17   7   5   17.20    3.20
 -16   7   5  240.58    7.90
 -16   7   5  247.88    8.20
 -16   7   5  246.38    8.00
 -15   7   5  156.88    5.70
 -15   7   5  150.78    5.10
 -15   7   5  157.88    5.40
 -14   7   5   86.49    3.50
 -14   7   5   84.99    3.20
 -14   7   5   88.79    3.90
 -13   7   5  125.49    4.50
 -13   7   5  131.79    4.20
 -13   7   5  129.99    4.80
 -12   7   5  400.96   11.90
 -12   7   5  384.16   11.40
 -12   7   5  389.76   11.50
  11  -7  -5  133.59    4.40
 -11   7   5  123.79    4.60
 -11   7   5  127.59    4.20
 -11   7   5  130.89    4.00
  10  -7  -5  151.08    4.80
 -10   7   5  142.29    4.40
 -10   7   5  141.79    5.00
   9  -7  -5  157.48    5.00
  -9   7   5  154.88    4.60
  -9   7   5  157.48    5.30
   8  -7  -5  965.30   26.70
  -8   7   5  910.11   26.30
  -8   7   5  931.31   26.90
   7  -7  -5   19.20    1.40
  -7   7   5   17.70    0.90
  -7   7   5   19.50    1.70
  -6   7   5  227.78    7.20
   5  -7  -5  664.53   19.20
   4  -7  -5  633.54   17.70
  -4   7   5  589.64   17.90
   3  -7  -5  173.98    5.50
  -3   7   5  171.68    5.80
   2  -7  -5  271.87    8.20
  -2   7   5  264.27    8.40
   1  -7  -5  215.18    6.60
   1  -7  -5  209.08    6.10
  -1   7   5  211.68    6.90
   0  -7  -5  562.64   16.20
   0  -7  -5  546.95   15.80
   0   7   5  565.04   16.50
  -1  -7  -5   37.50    1.60
  -1  -7  -5   38.40    1.90
   1   7   5   30.30    2.20
  -2  -7  -5  386.66   11.40
  -2  -7  -5  373.86   11.10
   2   7   5  391.16   11.70
  -3  -7  -5  386.56   11.30
  -3  -7  -5  371.36   11.00
   3   7   5  373.66   11.60
  -4  -7  -5  179.58    5.80
  -4  -7  -5  179.48    5.70
   4   7   5  179.68    6.20
  -5  -7  -5    3.90    0.80
  -5  -7  -5    3.70    0.80
   5   7   5    4.30    1.10
  -6  -7  -5   74.09    3.10
  -6  -7  -5   73.49    3.10
   6   7   5   74.89    3.70
  -7  -7  -5   88.89    3.70
  -7  -7  -5   91.09    3.60
  -8  -7  -5  185.18    6.20
  -8  -7  -5  195.28    6.40
  -9  -7  -5   -0.70    0.90
 -10  -7  -5  187.28    6.60
 -18   8   5    2.60    1.20
 -18   8   5    2.30    2.00
 -17   8   5    0.20    1.40
 -17   8   5   -0.10    1.00
 -16   8   5   16.20    2.50
 -16   8   5   17.10    3.10
 -16   8   5   18.70    1.90
 -15   8   5    0.50    0.60
 -15   8   5    1.10    1.10
 -15   8   5    1.40    0.90
 -14   8   5  112.69    4.60
 -14   8   5  107.39    4.10
 -14   8   5  104.79    3.70
 -13   8   5   16.60    1.40
 -13   8   5   17.80    1.90
 -13   8   5   17.30    2.40
  12  -8  -5    3.90    0.70
 -12   8   5    3.80    0.90
 -12   8   5    3.40    0.70
 -12   8   5    3.30    0.50
  11  -8  -5   15.40    1.70
 -11   8   5   16.10    2.10
 -11   8   5   13.90    1.50
  10  -8  -5   23.50    1.70
 -10   8   5   22.20    2.10
 -10   8   5   22.20    1.40
 -10   8   5   24.40    1.10
   9  -8  -5   88.99    3.20
  -9   8   5   83.89    2.70
  -9   8   5   86.69    3.50
  -9   8   5   86.89    2.80
   8  -8  -5 1006.10   27.20
  -8   8   5  957.30   27.50
  -8   8   5  923.31   26.70
  -8   8   5  913.21   26.70
   7  -8  -5  106.79    3.60
  -7   8   5   91.59    3.80
   6  -8  -5   48.70    2.20
  -6   8   5   47.20    2.50
   5  -8  -5    3.00    0.60
  -5   8   5    2.50    0.70
   4  -8  -5 1693.03   46.70
  -4   8   5 1604.44   47.00
   3  -8  -5  244.48    7.40
  -3   8   5  234.08    7.70
  -2   8   5  279.07    8.90
   1  -8  -5   39.30    2.00
   1  -8  -5   40.30    1.50
  -1   8   5   40.20    2.40
   0  -8  -5  668.43   19.80
   0  -8  -5  731.53   20.30
   0   8   5  699.13   20.60
  -1  -8  -5   71.59    3.00
  -1  -8  -5   75.89    2.60
   1   8   5   75.19    3.40
  -2  -8  -5  142.59    4.80
  -2  -8  -5  138.19    4.40
   2   8   5  140.29    5.20
  -3  -8  -5 1064.49   30.10
  -3  -8  -5 1014.40   29.80
   3   8   5 1069.09   30.40
  -4  -8  -5  481.75   14.20
  -4  -8  -5  493.25   14.50
   4   8   5  489.55   14.80
  -5  -8  -5  106.29    3.90
  -5  -8  -5  107.19    4.10
   5   8   5  106.39    4.60
  -6  -8  -5    2.40    0.90
  -6  -8  -5    2.00    1.60
   6   8   5    2.80    1.20
  -7  -8  -5   15.50    1.50
  -7  -8  -5   16.20    2.20
  -7  -8  -5   12.30    2.30
  -8  -8  -5  152.08    5.80
  -8  -8  -5  167.68    5.70
  -9  -8  -5   48.50    3.20
 -18   9   5   24.80    3.40
 -17   9   5   89.29    4.30
 -16   9   5    4.80    0.80
 -16   9   5    5.40    1.70
 -15   9   5   28.50    3.20
 -15   9   5   32.80    2.00
 -15   9   5   32.70    2.50
 -14   9   5    9.20    1.40
 -14   9   5    7.20    1.20
 -14   9   5    7.40    1.00
  13  -9  -5    3.30    0.80
 -13   9   5    3.80    1.10
 -13   9   5    4.00    0.80
 -13   9   5    4.80    0.60
  12  -9  -5  212.18    6.70
 -12   9   5  212.08    6.30
 -12   9   5  204.68    6.50
 -12   9   5  210.88    7.20
  11  -9  -5  178.08    5.80
 -11   9   5  177.08    5.50
 -11   9   5  178.18    6.30
 -11   9   5  176.18    5.30
  10  -9  -5  324.87    9.30
 -10   9   5  307.87    9.70
 -10   9   5  297.87    8.80
 -10   9   5  294.57    8.90
   9  -9  -5    0.60    0.50
  -9   9   5    0.90    0.40
  -9   9   5    1.00    0.30
  -9   9   5    0.70    0.90
   8  -9  -5    0.60    0.50
  -8   9   5    0.50    0.70
   7  -9  -5  365.96   11.00
  -7   9   5  367.76   11.40
   6  -9  -5  318.97    9.60
  -6   9   5  312.27    9.90
   5  -9  -5   17.00    1.50
  -5   9   5   11.50    1.80
   4  -9  -5  149.49    5.00
  -4   9   5  148.19    5.30
   3  -9  -5  586.64   17.00
  -3   9   5  574.14   17.30
   2  -9  -5  408.26   12.10
  -2   9   5  398.36   12.40
   1  -9  -5   45.10    2.30
  -1   9   5   43.30    2.70
   0  -9  -5   16.60    1.70
   0  -9  -5   17.90    0.90
   0  -9  -5   16.60    1.20
   0   9   5   16.30    2.20
  -1  -9  -5   77.69    3.20
  -1  -9  -5   78.99    2.50
  -1  -9  -5   76.19    2.70
   1   9   5   78.39    3.70
  -2  -9  -5  969.40   28.10
  -2  -9  -5 1014.80   28.60
  -2  -9  -5  954.00   28.10
   2   9   5 1034.60   29.00
  -3  -9  -5    1.30    0.60
  -3  -9  -5    0.50    0.70
  -3  -9  -5    1.40    0.40
   3   9   5    0.20    1.00
  -4  -9  -5   46.90    2.00
  -4  -9  -5   44.50    2.30
  -4  -9  -5   44.90    2.60
   4   9   5   46.20    3.30
  -5  -9  -5    9.80    1.30
  -5  -9  -5    7.20    0.90
  -5  -9  -5    7.20    1.10
   5   9   5    6.30    1.40
  -6  -9  -5  196.68    6.70
  -6  -9  -5  194.38    6.30
  -6  -9  -5  200.28    6.50
   6   9   5  204.28    7.30
  -7  -9  -5   15.50    2.60
  -7  -9  -5   16.20    2.30
  -7  -9  -5   16.70    1.80
  -8  -9  -5   64.89    3.50
 -17  10   5   10.70    2.00
 -17  10   5   17.60    3.00
 -16  10   5  215.78    7.30
 -16  10   5  216.48    6.90
 -16  10   5  219.88    8.00
 -15  10   5  153.88    6.20
 -15  10   5  150.78    5.00
  14 -10  -5    4.50    0.90
 -14  10   5    5.00    1.30
 -14  10   5    4.40    1.00
 -14  10   5    8.30    1.40
  13 -10  -5    4.70    0.90
 -13  10   5    9.30    1.30
 -13  10   5    6.60    1.50
 -13  10   5    6.70    0.90
  12 -10  -5   19.20    2.00
 -12  10   5   20.80    1.80
 -12  10   5   20.80    1.30
  11 -10  -5  257.27    7.90
 -11  10   5  255.77    8.90
 -11  10   5  247.58    7.60
 -11  10   5  252.77    7.40
  10 -10  -5  177.48    5.70
 -10  10   5  169.58    5.00
 -10  10   5  174.28    6.20
 -10  10   5  163.18    5.20
   9 -10  -5  178.58    5.70
  -9  10   5  169.08    6.20
  -8  10   5  133.49    5.10
   7 -10  -5   47.80    2.40
  -7  10   5   46.60    2.90
   6 -10  -5  407.96   12.10
  -6  10   5  398.36   12.50
   5 -10  -5  215.88    6.90
  -5  10   5  213.68    7.30
   4 -10  -5  167.68    5.40
  -4  10   5  153.98    5.80
   3 -10  -5  290.57    9.10
  -3  10   5  295.47    9.50
   2 -10  -5   30.40    2.00
  -2  10   5   29.60    2.60
   1 -10  -5  146.89    5.10
  -1  10   5  144.99    5.60
   0 -10  -5    3.20    0.50
   0  10   5    3.50    1.00
  -1 -10  -5   65.39    2.20
  -1 -10  -5   65.09    3.00
  -1 -10  -5   65.49    2.40
   1  10   5   64.59    3.70
  -2 -10  -5  416.96   12.60
  -2 -10  -5  454.75   13.20
  -2 -10  -5  460.35   12.70
   2  10   5  410.76   15.50
  -3 -10  -5    1.60    0.50
  -3 -10  -5    0.40    0.80
  -3 -10  -5    1.90    0.70
   3  10   5    1.00    2.00
  -4 -10  -5    3.90    1.00
  -4 -10  -5    8.90    1.20
  -4 -10  -5    6.50    0.90
   4  10   5    5.10    1.40
  -5 -10  -5  115.19    4.10
  -5 -10  -5  103.09    4.50
  -5 -10  -5  112.39    3.80
   5  10   5  117.59    5.30
  -6 -10  -5   54.89    2.50
  -6 -10  -5   54.39    2.90
  -6 -10  -5   46.80    3.40
  -7 -10  -5   24.90    3.40
  -7 -10  -5   30.20    2.50
  -7 -10  -5   30.80    2.70
 -17  11   5   25.10    4.60
 -17  11   5   25.80    3.30
 -16  11   5  111.99    4.20
 -16  11   5  116.59    4.70
 -16  11   5  114.09    5.80
  15 -11  -5    3.00    1.00
 -15  11   5    4.40    1.00
 -15  11   5    4.20    0.80
 -15  11   5    2.60    1.50
  14 -11  -5   40.60    2.80
 -14  11   5   42.80    3.80
 -14  11   5   47.70    2.70
 -14  11   5   47.00    2.20
  13 -11  -5  306.27    9.50
 -13  11   5  313.77   10.20
 -13  11   5  300.47    9.20
 -13  11   5  302.27    9.00
  12 -11  -5  506.95   14.70
 -12  11   5  520.15   15.40
 -12  11   5  484.75   14.30
 -12  11   5  471.15   14.20
  11 -11  -5   13.00    1.90
 -11  11   5   12.70    1.00
 -11  11   5   14.90    1.60
 -11  11   5   14.80    2.60
  10 -11  -5    1.90    0.80
 -10  11   5    1.70    1.00
 -10  11   5    2.50    0.50
   9 -11  -5  229.08    7.40
  -9  11   5  235.68    8.00
   8 -11  -5  550.14   16.30
  -8  11   5  554.14   16.80
   7 -11  -5  107.29    4.00
  -7  11   5  104.29    4.60
   6 -11  -5   71.19    3.10
  -6  11   5   68.99    3.70
   5 -11  -5   59.19    2.90
  -5  11   5   61.89    3.40
   4 -11  -5  616.54   18.00
  -4  11   5  604.64   18.50
   3 -11  -5   69.69    3.10
  -3  11   5   67.69    3.60
   2 -11  -5  343.27   10.30
  -2  11   5  323.27   10.80
   1 -11  -5  376.96   11.60
  -1  11   5  376.96   12.00
   0 -11  -5  200.78    6.70
   0 -11  -5  197.78    6.00
   0  11   5  206.18    7.30
  -1 -11  -5    0.20    0.70
  -1 -11  -5    0.90    0.40
  -1 -11  -5    1.50    0.60
   1  11   5   -1.10    1.10
  -2 -11  -5   16.80    1.60
  -2 -11  -5   13.90    2.10
   2  11   5   11.80    1.70
  -3 -11  -5   60.99    3.40
  -3 -11  -5   70.99    2.90
  -3 -11  -5   71.49    2.60
   3  11   5   74.09    4.20
  -4 -11  -5  176.08    6.40
  -4 -11  -5  180.78    5.60
  -4 -11  -5  184.08    5.90
   4  11   5  185.28    7.20
  -5 -11  -5   30.20    2.40
  -5 -11  -5   22.50    2.90
  -5 -11  -5   28.80    1.90
   5  11   5   30.50    3.70
  -6 -11  -5    2.90    0.80
  -6 -11  -5    2.90    1.10
  -6 -11  -5    0.20    1.30
  -7 -11  -5   62.39    3.60
 -16  12   5    9.70    2.10
 -16  12   5    8.90    1.30
 -15  12   5   42.80    4.30
 -15  12   5   42.30    3.00
 -15  12   5   43.40    2.40
  14 -12  -5   15.70    2.40
 -14  12   5   18.90    2.40
 -14  12   5   12.80    1.80
 -14  12   5   17.00    1.70
  13 -12  -5    0.60    0.90
 -13  12   5    3.10    0.80
 -13  12   5    1.70    0.60
 -13  12   5    2.30    1.50
  12 -12  -5    0.80    0.80
 -12  12   5    0.90    0.40
 -12  12   5    1.60    1.20
 -12  12   5    1.90    0.70
  11 -12  -5  125.99    4.60
 -11  12   5  128.99    5.50
 -11  12   5  121.39    4.00
 -11  12   5  125.69    3.80
  10 -12  -5   68.49    3.20
 -10  12   5   69.59    3.90
   9 -12  -5   37.50    2.50
  -9  12   5   40.90    3.10
   8 -12  -5   59.39    2.90
  -8  12   5   57.29    3.60
   7 -12  -5    0.60    0.80
  -7  12   5    0.50    1.00
  -6  12   5   61.39    3.60
   5 -12  -5  455.65   14.00
  -5  12   5  471.45   14.50
   4 -12  -5   85.99    3.60
  -4  12   5   84.09    4.30
   3 -12  -5   40.20    2.50
  -3  12   5   39.30    3.20
   2 -12  -5   -1.30    0.70
  -2  12   5   -1.20    1.00
   1 -12  -5   14.00    2.00
  -1  12   5   10.30    1.50
   0 -12  -5  132.49    5.00
   0  12   5  136.99    5.70
  -1 -12  -5    1.00    0.60
  -1 -12  -5    0.20    0.90
  -1 -12  -5    0.70    0.40
   1  12   5    0.80    1.30
  -2 -12  -5  220.68    7.70
  -2 -12  -5  237.68    7.00
   2  12   5  225.28    8.40
  -3 -12  -5   87.99    3.40
  -3 -12  -5   88.99    3.10
   3  12   5   83.99    4.80
  -4 -12  -5   73.49    2.90
  -4 -12  -5   74.49    3.30
   4  12   5   77.79    4.80
  -5 -12  -5   13.10    2.20
   5  12   5   12.80    2.00
 -16  13   5    1.70    2.00
 -16  13   5    3.40    2.00
 -15  13   5   55.49    3.30
 -15  13   5   56.99    4.80
 -14  13   5    2.00    1.00
 -14  13   5   -1.60    1.50
 -13  13   5   -0.60    1.40
 -13  13   5    0.50    0.80
 -13  13   5    0.10    0.70
 -12  13   5   20.00    3.30
 -11  13   5  286.07    9.80
 -10  13   5  538.95   16.80
  -9  13   5    3.00    1.30
  -8  13   5    1.60    1.10
   7 -13  -5  228.98    8.80
  -7  13   5  233.48    8.30
   6 -13  -5    1.10    1.20
  -6  13   5    2.10    1.30
  -5  13   5  195.28    7.30
  -4  13   5   -0.70    1.00
  -3  13   5   98.99    4.70
  -2  13   5  333.47   11.20
  -1  13   5    0.90    1.10
   0  13   5  158.38    6.60
   1  13   5  174.28    7.10
  -2 -13  -5  182.98    5.80
   2  13   5  184.98    7.40
  -3 -13  -5   85.59    3.40
   3  13   5   78.39    5.10
  -4 -13  -5    1.50    1.00
   4  13   5    0.60    1.80
 -15  14   5   -0.80    1.80
 -14  14   5    8.80    1.90
 -13  14   5  128.79    6.20
 -12  14   5   35.30    3.90
 -11  14   5    3.10    1.40
 -10  14   5   71.29    4.30
  -9  14   5   17.80    3.10
  -8  14   5   37.40    3.30
  -7  14   5   36.00    3.20
  -6  14   5    8.90    1.40
  -5  14   5   80.59    4.40
  -4  14   5    8.90    1.50
  -3  14   5   -0.10    1.10
  -2  14   5   99.29    5.10
  -1  14   5    1.30    1.30
   0  14   5   12.10    1.80
   1  14   5   -1.20    1.50
   2  14   5    1.10    1.60
   3  14   5    2.20    1.90
 -14  15   5   73.49    5.50
 -13  15   5  136.79    6.70
 -12  15   5  226.98    8.80
 -11  15   5    2.70    1.60
 -10  15   5   26.00    3.40
  -9  15   5   27.80    3.40
  -8  15   5  121.99    5.70
  -7  15   5   -1.10    1.10
  -6  15   5    2.60    1.20
  -5  15   5    4.40    1.30
  -4  15   5    0.70    1.30
  -3  15   5   19.00    3.30
  -2  15   5   22.10    3.50
  -1  15   5  141.79    6.50
   0  15   5   77.19    5.10
   1  15   5   16.30    2.30
 -13  16   5    6.90    2.10
 -12  16   5   33.10    4.40
 -11  16   5   -0.20    1.60
 -10  16   5   -1.70    1.30
  -9  16   5    8.30    1.70
  -8  16   5    7.00    1.50
  -7  16   5    7.00    1.60
  -6  16   5   31.80    3.60
  -4  16   5    1.20    1.30
  -3  16   5   98.79    5.40
  -2  16   5   11.30    2.10
  -1  16   5   35.50    4.30
   0  16   5   64.89    5.20
 -11  17   5  125.59    6.60
 -10  17   5    5.30    1.70
  -9  17   5    2.50    1.50
  -8  17   5  125.59    6.20
  -7  17   5    7.20    1.60
  -6  17   5    2.60    1.30
  -5  17   5   31.40    3.80
  -4  17   5    4.90    1.70
  -3  17   5  156.58    7.80
   1  18  -6  139.09    4.60
   0  18  -6   33.70    2.00
  -1  18  -6    4.10    0.70
  -2  18  -6   -0.60    0.60
  -3  18  -6   70.59    2.70
  -4  18  -6  294.87    8.80
  -5  18  -6    3.10    0.80
  -6  18  -6   42.30    2.50
  -7  18  -6   77.59    3.40
   3  17  -6  127.99    4.40
  -3 -17   6  128.39    4.60
   2  17  -6  161.78    5.10
  -2 -17   6  158.48    5.40
   1  17  -6   18.00    1.50
  -1 -17   6   18.50    2.10
   0  17  -6   67.59    2.60
   0 -17   6   66.39    3.00
  -1  17  -6  285.47    8.20
   1 -17   6  267.87    8.50
  -2  17  -6  192.08    5.80
   2 -17   6  185.18    6.10
  -3  17  -6   23.80    1.60
   3 -17   6   20.80    2.30
  -4  17  -6  141.39    4.40
   4 -17   6  122.99    4.70
  -5  17  -6  320.47    9.20
   5 -17   6  292.57    9.40
  -6  17  -6    3.10    0.80
   6 -17   6    4.20    1.00
  -7  17  -6   20.00    2.20
   7 -17   6   20.40    2.60
  -8  17  -6   -0.50    0.90
   8 -17   6    3.50    1.50
  -9  17  -6   -0.80    1.00
  -6 -16   6   41.20    2.50
  -5 -16   6    0.20    0.80
   4  16  -6   98.39    3.50
  -4 -16   6   90.79    3.50
   3  16  -6  190.08    5.90
  -3 -16   6  189.68    6.00
   2  16  -6   71.19    2.60
  -2 -16   6   67.59    2.90
   1  16  -6  106.89    3.50
  -1 -16   6  103.59    3.80
   0  16  -6    1.30    0.50
   0 -16   6    1.50    0.70
  -1  16  -6   59.79    2.30
   1 -16   6   64.89    2.80
  -2  16  -6  138.39    4.40
   2 -16   6  138.69    4.70
  -3  16  -6   47.20    2.10
   3 -16   6   49.90    2.60
  -4  16  -6  270.57    7.90
   4 -16   6  258.07    8.10
  -5  16  -6  158.48    5.10
   5 -16   6  154.08    5.30
  -6  16  -6   11.80    1.70
   6 -16   6    8.00    1.00
   7 -16   6   27.80    2.50
  -8  16  -6    0.00    1.00
   8 -16   6    2.20    1.10
  -9  16  -6   35.00    2.90
   9 -16   6   37.00    3.00
 -10  16  -6  215.18    7.30
  -6 -15   6   53.79    2.60
   5  15  -6  420.86   12.40
  -5 -15   6  421.86   12.40
   4  15  -6  196.18    6.40
  -4 -15   6  196.78    6.10
   3  15  -6   16.20    1.40
  -3 -15   6   15.80    1.60
   2  15  -6   24.90    1.50
  -2 -15   6   26.30    1.80
   1  15  -6   70.59    2.50
  -1 -15   6   66.49    2.70
   0  15  -6  106.39    3.40
   0 -15   6  104.09    3.70
  -1  15  -6    1.20    0.50
   1 -15   6    1.80    0.60
  -2  15  -6  360.36   10.30
   2 -15   6  343.87   10.40
  -3  15  -6  572.44   16.20
   3 -15   6  548.25   16.30
   3 -15   6  565.44   17.90
  -4  15  -6  169.68    5.20
   4 -15   6  160.78    5.30
   4 -15   6  158.68    6.20
  -5  15  -6    4.80    0.70
   5 -15   6    2.00    1.20
   5 -15   6    4.00    0.80
  -6  15  -6    0.30    0.70
   6 -15   6    0.60    1.20
   6 -15   6    2.40    0.80
  -7  15  -6   22.50    3.70
   7 -15   6   23.10    3.30
   7 -15   6   32.00    2.30
  -8  15  -6  108.19    4.20
   8 -15   6  110.79    4.20
   8 -15   6  103.49    5.00
  -9  15  -6    3.70    1.10
   9 -15   6    2.90    1.40
   9 -15   6    4.90    1.10
 -10  15  -6    1.80    1.20
  10 -15   6    4.40    1.50
 -11  15  -6   88.39    4.20
  -7 -14   6    8.80    1.50
  -6 -14   6   16.50    1.60
  -5 -14   6   36.10    1.90
   4  14  -6    0.00    0.40
  -4 -14   6    0.10    0.50
   3  14  -6   45.70    1.90
  -3 -14   6   44.50    2.00
   2  14  -6  216.88    6.50
  -2 -14   6  218.68    6.60
   1  14  -6  226.68    6.60
  -1 -14   6  209.18    7.70
  -1 -14   6  227.68    6.80
   0  14  -6   28.40    1.40
   0 -14   6   26.70    1.70
   0 -14   6   25.90    2.40
  -1  14  -6  184.48    5.50
   1 -14   6  180.38    5.70
  -2  14  -6  242.48    7.10
   2 -14   6  226.28    8.00
   2 -14   6  240.08    7.20
  -3  14  -6  306.07    9.00
   3 -14   6  296.67    9.10
   3 -14   6  309.47    9.90
  -4  14  -6   49.80    2.20
   4 -14   6   44.50    3.10
   4 -14   6   51.49    2.40
  -5  14  -6  242.68    7.30
   5 -14   6  240.18    7.40
   5 -14   6  235.88    8.20
  -6  14  -6    0.60    0.70
   6 -14   6    1.60    1.10
   6 -14   6    0.90    0.70
  -7  14  -6  184.28    6.30
   7 -14   6  189.98    6.90
   7 -14   6  194.88    6.20
  -8  14  -6   14.20    2.20
   8 -14   6   17.20    2.10
   8 -14   6   10.70    1.50
  -9  14  -6  147.09    5.30
   9 -14   6  144.09    5.20
   9 -14   6  146.59    5.70
 -10  14  -6    0.00    1.00
  10 -14   6   -1.70    1.30
 -11  14  -6  156.38    5.90
 -12  14  -6    8.90    1.50
  -8 -13   6    0.50    0.60
  -7 -13   6  170.48    5.40
   6  13  -6  745.43   21.60
  -6 -13   6  758.12   21.50
   5  13  -6   43.50    1.90
  -5 -13   6   40.70    1.90
   4  13  -6    1.20    0.50
  -4 -13   6    1.20    0.50
  -4 -13   6    0.90    0.80
   3  13  -6  498.05   14.30
  -3 -13   6  494.55   15.40
  -3 -13   6  500.35   14.40
   2  13  -6  318.07    9.30
  -2 -13   6  313.47   10.30
  -2 -13   6  320.27    9.40
   1  13  -6   13.50    1.10
  -1 -13   6    9.00    1.30
  -1 -13   6   11.70    2.00
   0  13  -6   30.60    1.40
   0 -13   6   32.80    2.50
   0 -13   6   28.50    1.70
  -1  13  -6  135.99    4.20
   1 -13   6  134.09    5.20
   1 -13   6  132.09    4.30
  -2  13  -6  231.58    6.90
   2 -13   6  226.88    7.00
   2 -13   6  230.68    7.80
  -3  13  -6  393.96   11.40
   3 -13   6  388.86   11.40
   3 -13   6  384.46   12.10
  -4  13  -6  231.78    7.00
   4 -13   6  230.48    7.80
   4 -13   6  230.28    7.10
  -5  13  -6  707.73   20.30
   5 -13   6  704.53   21.00
   5 -13   6  709.73   20.40
  -6  13  -6    2.70    0.80
   6 -13   6    1.50    0.70
   6 -13   6    1.40    1.00
  -7  13  -6   70.69    3.10
   7 -13   6   72.49    3.00
   7 -13   6   69.49    3.70
  -8  13  -6    2.40    0.90
   8 -13   6    4.00    0.80
   8 -13   6    2.40    1.10
  -9  13  -6  374.16   11.60
   9 -13   6  381.56   11.50
   9 -13   6  389.06   11.80
 -10  13  -6  129.09    5.10
  10 -13   6  132.59    5.20
  10 -13   6  139.19    5.90
 -11  13  -6   18.00    2.80
 -12  13  -6    0.00    1.20
  -8 -12   6   20.90    1.50
  -7 -12   6   19.90    2.50
  -7 -12   6   23.30    1.50
   6  12  -6  374.06   11.00
  -6 -12   6  368.46   11.90
  -6 -12   6  375.96   10.90
   5  12  -6   88.79    3.00
  -5 -12   6   88.69    3.00
  -5 -12   6   83.89    3.90
   4  12  -6   27.50    1.40
  -4 -12   6   26.20    2.30
  -4 -12   6   26.60    1.50
   3  12  -6  198.78    6.00
  -3 -12   6  199.08    7.00
  -3 -12   6  201.78    6.10
   2  12  -6   51.89    2.00
  -2 -12   6   53.79    3.00
  -2 -12   6   52.49    2.10
   1  12  -6    2.40    0.40
  -1 -12   6    2.10    0.80
  -1 -12   6    1.50    0.50
   0  12  -6   44.70    1.80
   0 -12   6   45.50    2.00
   0 -12   6   45.40    2.70
  -1  12  -6    7.10    1.00
   1 -12   6    8.80    1.20
   1 -12   6    6.10    1.00
  -2  12  -6  310.97    9.20
   2 -12   6  310.37    9.30
   2 -12   6  321.67   10.00
  -3  12  -6  562.54   16.50
   3 -12   6  583.94   17.20
   3 -12   6  577.44   16.60
  -4  12  -6  113.49    3.90
   4 -12   6  115.89    3.90
   4 -12   6  115.09    4.60
  -5  12  -6  303.67    9.00
   5 -12   6  296.57    9.00
   5 -12   6  300.47    9.60
  -6  12  -6  114.99    4.20
   6 -12   6  119.89    4.10
   6 -12   6  120.29    4.70
  -7  12  -6  340.27   10.40
   7 -12   6  342.27   10.30
   7 -12   6  345.57   10.70
  -8  12  -6  238.08    7.50
   8 -12   6  230.98    7.40
   8 -12   6  234.28    7.70
  -9  12  -6    0.60    0.90
   9 -12   6    0.90    0.70
   9 -12   6    0.80    1.00
 -10  12  -6   18.40    2.60
  10 -12   6   24.10    2.60
  10 -12   6   27.50    2.30
 -11  12  -6   20.90    2.70
  11 -12   6   20.70    2.60
 -12  12  -6   17.50    2.80
 -13  12  -6  181.98    6.70
  -9 -11   6  103.39    4.80
  -9 -11   6   97.29    3.50
  -8 -11   6  134.99    4.30
  -8 -11   6  131.89    5.40
  -7 -11   6   -0.40    0.50
  -7 -11   6    0.60    0.90
   6  11  -6   77.79    2.80
  -6 -11   6   77.39    3.70
  -6 -11   6   76.19    2.70
   5  11  -6  555.34   16.80
  -5 -11   6  608.74   17.70
  -5 -11   6  588.04   16.80
   4  11  -6  943.21   27.70
  -4 -11   6 1014.30   28.60
  -4 -11   6  972.40   27.70
   3  11  -6  157.88    4.90
  -3 -11   6  158.18    5.80
  -3 -11   6  161.58    4.90
   2  11  -6   76.09    2.60
  -2 -11   6   79.19    3.60
  -2 -11   6   74.99    2.70
   1  11  -6  216.08    6.40
  -1 -11   6  215.98    6.50
  -1 -11   6  219.38    7.30
   0  11  -6   58.59    2.10
   0 -11   6   60.19    2.30
   0 -11   6   59.59    2.90
  -1  11  -6   16.40    1.20
   1 -11   6   17.00    1.90
   1 -11   6   18.90    1.40
  -2  11  -6  433.66   12.70
   2 -11   6  444.06   13.40
   2 -11   6  438.76   12.70
  -3  11  -6 1441.56   41.50
   3 -11   6 1515.85   42.10
   3 -11   6 1454.75   41.60
  -4  11  -6  289.77    8.70
   4 -11   6  290.57    9.20
   4 -11   6  287.87    8.70
  -5  11  -6   -0.20    0.60
   5 -11   6    0.90    0.80
   5 -11   6   -0.60    0.50
  -6  11  -6   61.79    2.80
   6 -11   6   63.59    2.70
   6 -11   6   61.29    3.20
  -7  11  -6   78.69    3.30
   7 -11   6   75.29    3.50
   7 -11   6   80.19    3.10
  -8  11  -6   -0.30    0.80
   8 -11   6    0.20    0.90
   8 -11   6    0.90    0.70
  -9  11  -6    2.70    1.00
   9 -11   6    3.90    1.00
   9 -11   6    3.70    0.80
 -10  11  -6  110.19    4.50
  10 -11   6  113.39    4.20
  10 -11   6  107.29    4.20
 -11  11  -6  226.08    7.60
 -12  11  -6   11.40    1.40
 -13  11  -6    7.90    1.30
 -11 -10   6  108.69    5.20
 -10 -10   6   25.60    3.10
  -9 -10   6  128.99    4.20
  -9 -10   6  127.89    5.30
  -8 -10   6   26.20    2.60
  -8 -10   6   23.30    1.40
   7  10  -6 1419.76   41.30
  -7 -10   6 1515.05   42.10
  -7 -10   6 1439.16   41.20
   6  10  -6   38.10    1.70
  -6 -10   6   35.80    1.60
  -6 -10   6   34.20    2.50
   5  10  -6   11.20    1.10
  -5 -10   6   15.80    1.90
  -5 -10   6   13.70    1.10
   4  10  -6  270.67    8.30
  -4 -10   6  289.27    8.30
  -4 -10   6  284.87    9.10
   3  10  -6  286.97    8.50
  -3 -10   6  291.57    9.30
  -3 -10   6  290.57    8.50
   2  10  -6  110.89    3.50
  -2 -10   6  110.69    4.30
  -2 -10   6  107.39    3.50
   1  10  -6    8.40    0.90
  -1 -10   6    9.10    1.00
  -1 -10   6    8.40    1.60
   0  10  -6  104.89    3.40
   0 -10   6  108.59    4.20
   0 -10   6  107.89    3.50
  -1  10  -6  444.86   13.00
   1 -10   6  452.15   13.10
   1 -10   6  459.25   13.70
  -2  10  -6  364.56   10.80
   2 -10   6  378.46   11.40
   2 -10   6  370.46   10.80
  -3  10  -6  376.66   11.00
   3 -10   6  373.26   11.50
   3 -10   6  380.96   11.00
  -4  10  -6   23.20    1.60
   4 -10   6   22.70    2.00
   4 -10   6   21.70    1.50
  -5  10  -6   10.00    1.50
   5 -10   6    9.20    1.80
   5 -10   6   10.90    1.40
  -6  10  -6    7.40    0.90
   6 -10   6    8.70    1.50
   6 -10   6    7.90    1.00
  -7  10  -6   33.50    2.30
   7 -10   6   29.00    2.30
   7 -10   6   31.10    2.00
  -8  10  -6   76.69    3.50
   8 -10   6   78.59    3.10
   8 -10   6   77.79    3.70
  -9  10  -6  157.98    5.50
   9 -10   6  155.98    5.30
   9 -10   6  159.98    5.20
 -10  10  -6    4.90    1.10
  10 -10   6    6.60    0.90
  10 -10   6    9.90    1.80
 -11  10  -6   86.69    3.90
 -12  10  -6    1.90    1.20
 -13  10  -6    1.20    1.20
 -13  -9   6   25.40    4.00
 -12  -9   6   74.39    4.40
 -11  -9   6  418.66   13.30
 -10  -9   6    7.80    1.20
 -10  -9   6    8.70    1.50
  -9  -9   6  262.07    7.80
  -9  -9   6  257.57    8.70
  -8  -9   6  315.17    9.40
  -8  -9   6  322.87   10.30
   7   9  -6  599.44   17.40
  -7  -9   6  592.54   17.30
  -7  -9   6  623.24   18.20
   6   9  -6  140.79    4.50
  -6  -9   6  140.59    5.30
  -6  -9   6  147.49    4.50
   5   9  -6   10.90    1.00
  -5  -9   6   12.30    1.00
  -5  -9   6   15.90    1.80
   4   9  -6   62.29    2.20
  -4  -9   6   63.59    2.20
  -4  -9   6   61.69    3.00
   3   9  -6  625.24   18.20
  -3  -9   6  654.33   19.00
  -3  -9   6  638.84   18.20
   2   9  -6  365.76   10.80
  -2  -9   6  395.06   11.60
  -2  -9   6  369.86   10.90
   1   9  -6   28.00    1.30
  -1  -9   6   27.90    2.00
   0   9  -6  640.04   18.60
   0  -9   6  669.13   19.30
  -1   9  -6  189.18    5.70
   1  -9   6  190.68    6.30
  -2   9  -6   19.40    1.30
   2  -9   6   18.90    1.30
   2  -9   6   18.00    1.80
  -3   9  -6   39.80    1.80
   3  -9   6   36.50    2.20
   3  -9   6   38.50    1.80
  -4   9  -6   55.29    2.30
   4  -9   6   55.89    2.30
   4  -9   6   55.59    2.60
  -5   9  -6  486.45   14.20
   5  -9   6  485.65   14.10
  -6   9  -6   30.50    2.00
   6  -9   6   30.40    1.80
   6  -9   6   31.70    2.10
  -7   9  -6    4.00    0.90
   7  -9   6    3.90    0.70
   7  -9   6    4.10    0.80
  -8   9  -6    9.50    1.30
   8  -9   6   14.10    1.60
   8  -9   6   15.90    1.70
  -9   9  -6   17.10    2.20
   9  -9   6   19.40    1.80
 -10   9  -6   46.50    2.90
  10  -9   6   44.90    2.40
 -11   9  -6    5.00    1.20
 -12   9  -6  143.39    5.50
 -13   9  -6  243.58    8.30
 -14   9  -6   39.00    3.40
 -14  -8   6   30.10    4.20
 -13  -8   6  129.09    5.80
 -12  -8   6   92.39    4.70
 -11  -8   6   35.50    3.10
 -10  -8   6  330.67   10.60
 -10  -8   6  327.97    9.80
  -9  -8   6   47.90    2.00
  -9  -8   6   46.90    3.00
   8   8  -6   46.80    2.00
  -8  -8   6   47.80    2.80
  -8  -8   6   46.30    1.90
   7   8  -6  693.93   20.80
  -7  -8   6  754.12   21.50
  -7  -8   6  730.93   20.70
   6   8  -6  948.81   28.10
  -6  -8   6 1026.70   28.80
  -6  -8   6  994.40   28.00
   5   8  -6  429.66   12.80
  -5  -8   6  457.05   13.50
  -5  -8   6  444.46   12.80
   4   8  -6  210.78    6.30
  -4  -8   6  216.08    6.30
  -4  -8   6  214.28    7.00
   3   8  -6  296.87    8.80
  -3  -8   6  297.07    8.90
  -3  -8   6  318.87    9.60
   2   8  -6  403.76   11.90
  -2  -8   6  419.96   12.60
  -2  -8   6  417.16   11.90
   1   8  -6  134.59    4.20
  -1  -8   6  139.89    4.80
  -1  -8   6  139.29    4.30
   0   8  -6  286.37    8.50
   0  -8   6  298.37    8.60
   0  -8   6  295.37    9.10
  -1   8  -6  666.63   19.20
   1  -8   6  675.63   19.80
   1  -8   6  685.63   19.30
  -2   8  -6  504.55   13.70
   2  -8   6  468.35   14.00
   2  -8   6  454.05   14.40
  -3   8  -6  536.15   15.50
   3  -8   6  535.85   15.50
   3  -8   6  537.35   15.80
  -4   8  -6   91.09    3.20
   4  -8   6   90.99    3.10
   4  -8   6   83.99    3.40
  -5   8  -6   66.39    2.70
   5  -8   6   65.69    2.80
   5  -8   6   67.49    2.60
  -6   8  -6   78.59    3.10
   6  -8   6   78.19    3.00
   6  -8   6   78.79    3.10
  -7   8  -6    3.40    0.80
   7  -8   6    3.00    0.70
   7  -8   6    3.90    0.70
  -8   8  -6   65.79    3.60
   8  -8   6   58.89    2.70
   8  -8   6   66.09    2.60
  -9   8  -6   13.00    2.10
   9  -8   6   13.70    1.70
 -10   8  -6    0.00    0.90
 -11   8  -6   19.40    2.50
 -12   8  -6   68.79    3.70
 -13   8  -6  184.18    6.70
 -14   8  -6   22.10    3.10
 -14  -7   6   79.59    4.80
 -13  -7   6    9.30    1.60
 -12  -7   6   35.00    3.20
 -11  -7   6    0.50    0.50
 -11  -7   6    0.60    1.00
 -10  -7   6  355.26   11.10
 -10  -7   6  346.17   10.30
  -9  -7   6  668.23   19.90
  -9  -7   6  673.53   19.20
   8   7  -6   43.40    1.90
  -8  -7   6   43.20    1.80
   7   7  -6  191.58    6.00
  -7  -7   6  201.88    5.90
   6   7  -6    5.20    0.80
  -6  -7   6    7.50    0.80
   5   7  -6  784.72   22.70
  -5  -7   6  812.52   22.60
   4   7  -6  510.95   14.50
  -4  -7   6  505.65   14.60
   3   7  -6  647.64   18.80
  -3  -7   6  681.23   18.90
   2   7  -6 1204.88   35.00
  -2  -7   6 1252.37   35.20
   1   7  -6 1510.75   43.00
  -1  -7   6 1480.55   42.60
   0   7  -6 1051.59   31.10
   0  -7   6 1160.58   31.50
   0  -7   6 1091.59   31.50
  -1   7  -6  446.76   12.90
   1  -7   6  447.56   13.30
   1  -7   6  446.96   12.90
  -2   7  -6   18.60    1.30
   2  -7   6   16.90    1.50
   2  -7   6   20.30    1.70
  -3   7  -6 2548.34   70.69
   3  -7   6 2587.04   70.99
   3  -7   6 2366.26   70.49
  -4   7  -6    3.20    0.70
   4  -7   6    2.70    0.60
   4  -7   6    2.00    0.50
  -5   7  -6    9.40    1.40
   5  -7   6   11.60    1.40
   5  -7   6   12.00    1.30
  -6   7  -6  678.83   19.80
   6  -7   6  684.63   19.70
   6  -7   6  692.13   19.70
  -7   7  -6  368.96   11.10
   7  -7   6  375.16   11.00
   7  -7   6  366.66   10.80
  -8   7  -6  119.69    5.30
   8  -7   6  143.79    4.60
  -9   7  -6    2.80    0.90
   9  -7   6    5.10    0.80
 -10   7  -6  188.38    6.40
 -11   7  -6 1015.40   29.40
 -12   7  -6    9.80    1.30
 -13   7  -6   11.10    1.50
 -14   7  -6  372.06   12.00
 -15  -6   6   -0.80    1.60
 -14  -6   6   11.60    1.70
 -13  -6   6   30.60    3.00
 -12  -6   6  375.46   11.80
 -11  -6   6   82.09    3.00
 -10  -6   6  288.87    8.60
  -9  -6   6  101.19    3.30
   8   6  -6  119.19    3.90
  -8  -6   6  121.69    3.80
   7   6  -6  283.17    8.50
  -7  -6   6  294.57    8.40
   6   6  -6  268.77    8.00
  -6  -6   6  275.67    7.90
   5   6  -6   56.39    2.00
  -5  -6   6   56.89    2.00
   4   6  -6  264.37    7.80
  -4  -6   6  269.27    7.80
   3   6  -6   52.19    1.80
  -3  -6   6   53.09    1.90
   2   6  -6   43.90    1.60
  -2  -6   6   47.40    1.70
   1   6  -6  269.27    8.00
  -1  -6   6  280.37    8.00
   0   6  -6  325.37    9.60
   0  -6   6  336.77    9.60
  -1   6  -6  472.95   13.70
   1  -6   6  481.35   13.70
  -2   6  -6    8.80    1.10
   2  -6   6    7.20    1.10
   2  -6   6    7.20    1.30
  -3   6  -6  700.13   19.90
   3  -6   6  694.03   20.10
   3  -6   6  694.83   19.90
  -4   6  -6  757.92   21.70
   4  -6   6  738.93   21.70
   4  -6   6  773.92   21.60
  -5   6  -6  494.25   14.40
   5  -6   6  503.65   14.30
   5  -6   6  483.75   14.30
  -6   6  -6  449.06   13.50
   6  -6   6  472.25   13.50
  -7   6  -6   49.40    2.50
   7  -6   6   52.09    2.30
  -8   6  -6   15.80    2.40
   8  -6   6   21.60    1.70
  -9   6  -6   19.70    2.20
   9  -6   6   20.60    1.80
 -10   6  -6    2.40    1.00
 -11   6  -6   16.70    2.50
 -12   6  -6  250.37    8.40
 -13   6  -6   50.99    3.50
 -14   6  -6  198.28    7.70
 -15  -5   6   -0.80    1.40
 -14  -5   6  169.18    6.40
 -12  -5   6  431.56   12.70
 -11  -5   6  898.31   25.60
 -10  -5   6   10.40    1.10
  -9  -5   6  290.67    8.60
   8   5  -6   50.19    2.00
  -8  -5   6   49.80    1.90
   7   5  -6   61.19    2.20
  -7  -5   6   62.79    2.10
   6   5  -6  497.95   14.50
  -6  -5   6  512.85   14.40
   5   5  -6    1.20    0.30
  -5  -5   6    1.90    0.40
   4   5  -6 2075.89   58.89
  -4  -5   6 2056.29   58.99
   3   5  -6  333.37    9.70
  -3  -5   6  345.27    9.80
   2   5  -6  152.38    4.70
  -2  -5   6  161.08    4.70
   1   5  -6  574.64   16.80
  -1  -5   6  608.04   16.90
   0   5  -6 1334.07   38.30
   0  -5   6 1333.27   37.90
  -1   5  -6  146.89    4.50
   1  -5   6  145.99    4.50
  -2   5  -6  646.64   18.50
   2  -5   6  648.44   18.50
   3  -5   6   -0.40    0.40
  -4   5  -6  188.38    5.90
   4  -5   6  198.68    5.90
   4  -5   6  187.08    5.90
  -5   5  -6 1033.50   29.60
   5  -5   6 1061.59   29.50
   5  -5   6 1018.80   29.40
  -6   5  -6  119.69    4.20
   6  -5   6  123.99    4.10
  -7   5  -6  388.76   11.70
   7  -5   6  394.36   11.60
  -8   5  -6  363.76   11.40
   8  -5   6  388.26   11.30
  -9   5  -6   55.69    3.00
 -10   5  -6  181.38    6.20
 -11   5  -6   83.59    3.90
 -12   5  -6  706.13   20.90
 -13   5  -6  382.06   12.00
 -12  -4   6   83.19    3.10
 -11  -4   6   14.30    1.30
 -10  -4   6  970.20   27.60
  -9  -4   6  136.39    4.30
   8   4  -6  144.99    4.60
  -8  -4   6  151.28    4.50
   7   4  -6   50.29    1.90
   6   4  -6  322.07    9.10
  -6  -4   6  301.07    9.20
   5   4  -6  772.82   21.50
  -5  -4   6  730.23   21.30
   4   4  -6  484.45   13.90
  -4  -4   6  491.85   13.90
   3   4  -6  866.71   25.40
  -3  -4   6  906.21   25.60
   2   4  -6  800.12   22.40
  -2  -4   6  765.92   22.10
   1   4  -6  568.74   16.40
  -1  -4   6  587.14   16.50
   0   4  -6 1770.22   50.49
   0  -4   6 1778.42   50.49
  -1   4  -6  226.88    6.70
   1  -4   6  227.28    6.80
  -2   4  -6  282.07    8.40
   2  -4   6  284.07    8.40
  -3   4  -6   10.10    1.30
  -4   4  -6  426.86   12.70
   4  -4   6  441.16   12.60
  -5   4  -6   64.19    2.60
   5  -4   6   67.99    2.60
  -6   4  -6  226.38    7.00
  -7   4  -6    0.90    0.60
   7  -4   6    0.70    0.50
  -8   4  -6  221.48    7.20
   8  -4   6  226.48    7.00
  -9   4  -6   35.20    2.40
 -10   4  -6  199.18    6.70
 -11   4  -6  361.16   11.20
 -12   4  -6   26.40    2.70
 -13   4  -6    2.90    1.20
 -13  -3   6   62.59    2.60
 -12  -3   6    7.20    1.20
 -11  -3   6   82.49    2.90
 -10  -3   6   13.30    1.10
  -9  -3   6  314.57    9.20
   8   3  -6    5.10    0.80
  -8  -3   6    5.00    0.80
   7   3  -6  310.17    9.00
  -7  -3   6  311.17    9.00
   6   3  -6    1.90    0.30
   5   3  -6  158.88    4.70
  -4  -3   6 1002.20   28.70
   3   3  -6  160.78    4.90
  -3  -3   6  170.18    4.90
   2   3  -6  510.25   14.70
  -2  -3   6  526.05   14.70
   1   3  -6 1531.75   44.10
  -1  -3   6 1560.84   43.90
   0   3  -6   72.89    2.40
   0  -3   6   71.09    2.50
  -1   3  -6  403.86   11.90
   1  -3   6  418.26   11.90
  -2   3  -6   40.60    1.80
   2  -3   6   39.60    1.80
  -3   3  -6   14.40    1.30
  -4   3  -6  191.28    6.00
   4  -3   6  197.38    6.00
  -5   3  -6    0.00    0.50
   5  -3   6    0.70    0.50
  -6   3  -6  586.34   17.30
   6  -3   6  603.94   17.20
  -7   3  -6  349.96   10.70
   7  -3   6  360.96   10.60
  -8   3  -6   61.99    2.90
  -9   3  -6   80.69    3.50
 -10   3  -6   18.50    2.30
 -11   3  -6  135.49    5.20
 -12   3  -6   96.99    4.30
 -13   3  -6   17.60    2.70
 -17  -2   6   -0.20    0.90
 -13  -2   6   82.69    3.10
 -12  -2   6  501.45   14.60
 -11  -2   6  929.61   26.40
 -10  -2   6  644.34   18.40
  -9  -2   6   48.10    1.80
  -8  -2   6  173.48    5.20
   7   2  -6    8.40    0.80
   6   2  -6  187.58    5.60
  -6  -2   6  192.78    5.60
   5   2  -6  129.79    4.00
  -5  -2   6  135.59    4.00
   4   2  -6 1907.71   54.19
  -4  -2   6 1906.41   54.09
   3   2  -6  565.34   16.20
  -3  -2   6  577.74   16.20
   2   2  -6   88.39    2.80
  -2  -2   6   91.79    2.80
   1   2  -6  180.88    5.40
  -1  -2   6  183.88    5.40
   0  -2   6    9.90    0.90
  -1   2  -6 1230.58   35.50
   1  -2   6 1252.97   35.40
  -2   2  -6  236.48    7.20
   2  -2   6  247.58    7.20
  -3   2  -6  134.79    4.30
  -4   2  -6  612.34   18.20
   4  -2   6  650.93   18.20
  -5   2  -6  365.26   11.00
   5  -2   6  379.56   11.00
  -6   2  -6    2.40    0.60
   6  -2   6    2.20    0.50
  -7   2  -6   28.40    2.00
   7  -2   6   26.20    1.80
  -8   2  -6  371.16   11.20
  -9   2  -6  172.18    5.90
 -10   2  -6   -1.30    0.80
 -11   2  -6   -1.10    0.90
 -12   2  -6  235.38    8.00
 -13   2  -6   96.19    4.40
 -17  -1   6    5.40    1.00
 -16  -1   6  102.59    3.90
 -15  -1   6   30.20    2.10
 -13  -1   6  489.95   14.30
 -12  -1   6    1.20    0.50
 -11  -1   6  143.89    4.50
 -10  -1   6   13.90    1.10
  -9  -1   6  126.29    3.90
   8   1  -6  665.03   19.10
  -8  -1   6  679.13   19.10
   7   1  -6  811.52   22.80
  -7  -1   6  774.62   22.40
   6   1  -6 1817.12   52.09
  -6  -1   6 1839.92   51.99
   5   1  -6    3.50    0.50
  -5  -1   6    3.60    0.60
   4   1  -6  129.89    3.90
  -4  -1   6  131.79    3.90
   3   1  -6  132.39    4.00
  -3  -1   6  133.89    4.00
   2   1  -6   81.49    2.60
  -2  -1   6   83.59    2.60
   1   1  -6  193.08    5.80
  -1  -1   6  201.08    5.80
   0   1  -6    2.00    0.40
   0  -1   6    1.20    0.40
  -1   1  -6   73.19    2.60
   1  -1   6   73.09    2.60
  -2   1  -6    1.40    0.50
   2  -1   6    1.60    0.40
  -3   1  -6  840.72   23.80
   3  -1   6  828.02   23.50
  -4   1  -6  131.49    4.40
   4  -1   6  136.79    4.30
  -5   1  -6    2.30    0.60
   5  -1   6    2.10    0.50
  -6   1  -6    0.90    0.60
   6  -1   6    2.00    0.60
  -7   1  -6   20.40    1.90
  -8   1  -6  202.38    6.60
  -9   1  -6  304.37    9.50
 -10   1  -6  148.89    5.40
 -11   1  -6   15.80    2.40
 -12   1  -6    1.70    1.00
 -13   1  -6    0.80    1.10
 -17   0   6  180.68    5.90
 -16   0   6    0.20    0.80
 -15   0   6   76.19    3.10
 -14   0   6  468.55   13.20
 -14   0   6  431.26   13.20
 -13   0   6  361.96   10.70
 -13   0   6  365.66   10.80
 -12   0   6    2.40    0.50
 -11   0   6  534.25   15.40
 -10   0   6  755.32   21.50
  -9   0   6  897.61   25.40
   8   0  -6  203.38    6.10
   7   0  -6  740.53   21.10
  -7   0   6  752.82   21.10
   6   0  -6 1240.98   35.70
  -6   0   6 1260.07   35.60
   5   0  -6   65.89    2.10
  -5   0   6   66.69    2.10
   4   0  -6   44.10    1.40
  -4   0   6   38.60    1.40
   3   0  -6  452.75   12.90
  -3   0   6  453.95   12.90
   2   0  -6  792.02   23.00
  -2   0   6  837.32   23.10
   1   0  -6    4.10    0.70
  -1   0   6    3.80    0.60
   0   0  -6    6.60    0.90
   0   0   6    5.80    0.90
   0   0   6    6.60    0.70
  -1   0  -6   26.00    1.40
   1   0   6   24.50    1.10
   1   0   6   24.30    1.40
  -2   0  -6  321.87    9.50
   2   0   6  318.57    9.30
   2   0   6  333.27    9.50
  -3   0  -6  527.95   15.20
   3   0   6  514.35   15.80
   3   0   6  543.35   15.00
  -4   0  -6    3.00    0.60
   4   0   6    3.40    0.50
  -5   0  -6  570.74   16.80
   5   0   6  593.44   16.80
  -6   0  -6  483.95   14.20
  -7   0  -6  163.58    5.50
  -8   0  -6    0.40    0.80
  -9   0  -6  104.09    4.20
 -10   0  -6    1.00    0.90
 -11   0  -6   60.29    3.40
 -12   0  -6  230.98    7.90
 -17   1   6   81.79    3.50
 -16   1   6  163.68    5.40
 -15   1   6   -0.70    0.60
 -14   1   6    0.10    0.60
 -14   1   6    0.90    0.50
 -13   1   6   -0.50    0.60
 -13   1   6    0.40    0.50
 -12   1   6  384.16   11.10
 -12   1   6  374.96   11.10
 -11   1   6   71.29    2.50
 -11   1   6   66.59    2.60
 -10   1   6  764.92   21.50
 -10   1   6  750.62   21.60
  -9   1   6    5.20    1.10
  -9   1   6    7.20    0.80
   8  -1  -6  105.29    3.40
  -8   1   6  108.29    3.50
  -8   1   6  109.09    3.30
   7  -1  -6   18.50    1.00
  -7   1   6   17.40    1.20
  -7   1   6   18.00    0.90
   6  -1  -6  267.37    7.80
  -6   1   6  272.27    7.90
  -6   1   6  270.67    7.80
   5  -1  -6  320.07    9.30
  -5   1   6  325.77    9.30
  -5   1   6  328.47    9.40
   4  -1  -6  239.88    6.90
  -4   1   6  245.08    6.90
  -4   1   6  233.38    7.00
   3  -1  -6  567.34   16.30
  -3   1   6  578.74   16.50
  -3   1   6  589.34   16.40
   2  -1  -6  785.62   21.80
  -2   1   6  765.72   21.70
  -2   1   6  751.42   21.70
   1  -1  -6  147.69    4.50
  -1   1   6  145.69    4.50
  -1   1   6  152.58    4.50
   0  -1  -6  164.98    5.00
   0   1   6  167.18    5.00
   0   1   6  168.08    5.00
  -1  -1  -6   34.30    1.60
   1   1   6   34.80    1.50
   1   1   6   36.20    1.60
  -2  -1  -6  462.95   13.50
   2   1   6  457.45   13.40
   2   1   6  479.75   13.50
  -3  -1  -6  428.16   12.40
   3   1   6  433.26   12.30
   3   1   6  416.46   12.40
  -4  -1  -6  962.60   27.90
   4   1   6 1001.10   27.90
  -5  -1  -6   70.49    2.80
  -6  -1  -6  364.16   10.90
  -8  -1  -6   77.29    3.40
  -9  -1  -6  143.69    5.20
 -10  -1  -6   39.40    2.70
 -11  -1  -6   24.10    2.60
 -12  -1  -6   29.00    2.90
 -18   2   6    4.10    1.10
 -17   2   6   51.59    3.00
 -16   2   6  401.06   12.00
 -15   2   6  307.47    9.80
 -15   2   6  275.77    8.80
 -14   2   6   45.70    2.10
 -14   2   6   47.90    2.30
 -13   2   6   20.50    1.40
 -13   2   6   15.60    1.60
 -12   2   6  143.29    4.40
 -12   2   6  129.89    4.40
 -11   2   6  236.48    7.40
 -11   2   6  252.57    7.30
 -10   2   6  222.48    6.30
 -10   2   6  202.78    6.40
  -9   2   6  507.85   14.60
   8  -2  -6   87.69    2.80
  -8   2   6   86.59    2.70
  -8   2   6   86.59    2.90
   7  -2  -6    2.20    0.30
  -7   2   6    2.60    0.50
  -7   2   6    1.80    0.30
   6  -2  -6  333.27    9.80
  -6   2   6  347.67    9.80
  -6   2   6  344.67   10.00
   5  -2  -6 1337.77   38.40
  -5   2   6 1373.96   38.40
   4  -2  -6  172.78    5.20
  -4   2   6  179.18    5.20
  -4   2   6  184.98    5.40
   3  -2  -6 2795.52   81.09
  -3   2   6 2978.60   82.09
  -3   2   6 2869.91   81.29
   2  -2  -6    1.20    0.30
  -2   2   6    1.30    0.40
   1  -2  -6    5.00    0.70
   1  -2  -6    6.80    0.80
  -1   2   6    4.80    0.80
  -1   2   6    4.30    0.80
   0  -2  -6  223.08    6.60
   0  -2  -6  222.38    6.60
   0   2   6  225.18    6.70
   0   2   6  227.48    6.60
  -1  -2  -6  300.07    8.80
  -1  -2  -6  297.77    8.70
   1   2   6  308.47    8.80
   1   2   6  291.67    8.80
  -2  -2  -6   57.59    1.90
  -2  -2  -6   53.19    2.20
   2   2   6   55.89    2.10
   2   2   6   56.09    2.10
  -3  -2  -6  112.79    3.80
  -3  -2  -6  115.09    3.60
   3   2   6  119.49    3.80
   3   2   6  115.69    3.80
  -4  -2  -6  939.51   26.60
  -4  -2  -6  902.91   26.30
   4   2   6  959.60   26.50
  -5  -2  -6  396.36   11.70
  -6  -2  -6   -0.10    0.60
  -7  -2  -6   11.90    1.80
  -8  -2  -6  733.93   21.40
  -9  -2  -6   49.50    2.90
 -10  -2  -6    2.60    0.90
 -11  -2  -6  100.39    4.40
 -12  -2  -6  218.08    7.60
 -18   3   6  253.77    8.60
 -18   3   6  273.07    8.70
 -17   3   6  111.29    4.40
 -16   3   6    0.90    0.90
 -15   3   6    4.10    0.90
 -14   3   6    2.40    0.60
 -14   3   6    2.60    0.80
 -13   3   6  249.08    7.40
 -13   3   6  243.38    7.60
 -12   3   6    3.60    0.60
 -12   3   6    5.80    1.00
 -11   3   6  339.67   10.00
 -11   3   6  334.17    9.80
 -10   3   6  519.25   14.70
 -10   3   6  509.05   14.90
  -9   3   6  479.55   13.50
  -9   3   6  464.05   13.70
  -8   3   6  355.06   10.40
  -8   3   6  352.46   10.10
   7  -3  -6    9.30    0.70
  -7   3   6   12.40    1.10
  -7   3   6    9.70    0.70
   6  -3  -6  297.27    8.70
  -6   3   6  301.07    8.90
  -6   3   6  314.57    8.70
   5  -3  -6   64.99    2.00
   5  -3  -6   67.39    2.40
  -5   3   6   65.59    2.10
   4  -3  -6  169.88    4.90
  -4   3   6  167.58    5.20
  -4   3   6  175.28    5.00
   3  -3  -6   70.79    2.40
   3  -3  -6   64.59    2.10
  -3   3   6   68.39    2.20
  -3   3   6   67.99    2.40
   2  -3  -6    7.90    0.70
   2  -3  -6    7.40    0.90
  -2   3   6    6.10    0.90
  -2   3   6    8.30    1.00
   1  -3  -6   30.50    1.40
   1  -3  -6   28.80    1.30
  -1   3   6   26.80    1.30
  -1   3   6   28.10    1.50
   0  -3  -6  675.23   19.00
   0  -3  -6  659.63   18.90
   0   3   6  659.63   19.10
   0   3   6  672.93   18.90
  -1  -3  -6  147.39    4.50
  -1  -3  -6  144.59    4.50
   1   3   6  142.09    4.60
   1   3   6  149.19    4.50
  -2  -3  -6   57.49    2.00
  -2  -3  -6   53.29    2.10
   2   3   6   55.89    2.30
   2   3   6   54.09    2.10
  -3  -3  -6    1.60    0.40
  -3  -3  -6    2.00    0.50
   3   3   6    1.90    0.60
  -4  -3  -6  435.56   12.70
  -4  -3  -6  455.15   13.00
   4   3   6  444.26   13.00
  -5  -3  -6    4.40    0.70
  -5  -3  -6    4.40    0.50
   5   3   6    4.30    0.70
  -6  -3  -6   32.30    2.10
  -7  -3  -6   55.99    2.70
  -8  -3  -6   12.30    2.00
  -9  -3  -6  136.19    5.00
 -10  -3  -6    8.60    1.20
 -11  -3  -6    3.00    1.10
 -18   4   6   86.19    4.30
 -18   4   6   90.79    4.10
 -17   4   6   36.20    3.00
 -17   4   6   37.90    2.70
 -16   4   6   40.60    2.80
 -15   4   6  103.09    3.60
 -15   4   6  104.09    4.00
 -14   4   6  208.28    6.40
 -14   4   6  202.18    6.60
 -13   4   6  230.98    7.20
 -13   4   6  229.08    7.00
 -12   4   6   84.89    2.90
 -12   4   6   83.79    3.20
 -11   4   6  191.68    6.00
 -11   4   6  188.98    5.70
 -10   4   6  340.67   10.10
 -10   4   6  341.37    9.90
  -9   4   6    2.10    0.40
  -9   4   6    2.10    0.60
  -8   4   6   67.69    2.50
  -8   4   6   62.29    2.10
   7  -4  -6    2.00    0.50
  -7   4   6    1.90    0.40
  -7   4   6    1.60    0.30
   6  -4  -6  790.72   21.50
   6  -4  -6  759.22   21.40
  -6   4   6  724.13   21.50
  -6   4   6  739.73   21.20
   5  -4  -6    0.20    0.40
  -5   4   6    0.40    0.30
  -5   4   6    0.70    0.40
   4  -4  -6  123.29    3.70
   4  -4  -6  131.29    4.00
  -4   4   6  125.79    3.80
   3  -4  -6   46.90    1.50
  -3   4   6   44.20    1.60
   2  -4  -6  246.48    7.20
   2  -4  -6  260.37    7.40
  -2   4   6  247.08    7.60
  -2   4   6  243.08    7.20
   1  -4  -6   17.50    1.00
   1  -4  -6   17.40    1.10
  -1   4   6   15.40    1.00
  -1   4   6   13.60    1.30
   0  -4  -6  498.55   14.20
   0  -4  -6  492.35   14.10
   0   4   6  495.55   14.10
   0   4   6  484.35   14.40
  -1  -4  -6  965.90   27.70
  -1  -4  -6  992.60   27.70
   1   4   6  975.10   27.70
   1   4   6  976.80   27.90
  -2  -4  -6  176.08    5.30
  -2  -4  -6  168.88    5.30
   2   4   6  171.38    5.50
  -3  -4  -6    3.60    0.60
  -3  -4  -6    3.40    0.50
   3   4   6    3.20    0.70
  -4  -4  -6  146.69    4.50
  -4  -4  -6  146.09    4.80
   4   4   6  146.19    4.90
  -5  -4  -6  382.96   11.40
  -5  -4  -6  396.76   11.70
   5   4   6  400.86   11.70
  -6  -4  -6  727.83   20.70
  -6  -4  -6  671.63   20.30
   6   4   6  741.83   20.60
  -7  -4  -6  596.34   17.50
  -8  -4  -6   42.70    2.60
  -9  -4  -6   -1.10    0.80
 -10  -4  -6   77.89    3.70
 -11  -4  -6   18.10    2.70
 -18   5   6    1.20    1.30
 -18   5   6    1.00    1.00
 -17   5   6  109.59    4.50
 -17   5   6  114.99    4.70
 -16   5   6  126.19    4.90
 -16   5   6  126.19    4.70
 -15   5   6   42.10    2.10
 -15   5   6   40.30    2.80
 -14   5   6  270.27    8.30
 -14   5   6  253.37    7.90
 -13   5   6    6.30    0.90
 -12   5   6  598.04   17.60
 -12   5   6  610.54   17.30
 -11   5   6   42.70    2.10
 -11   5   6   32.80    1.60
 -10   5   6   32.90    1.50
 -10   5   6   36.10    2.00
   9  -5  -6  419.46   12.00
  -9   5   6  412.06   11.70
  -9   5   6  401.66   12.10
   8  -5  -6   42.30    1.90
  -8   5   6   41.80    2.00
  -8   5   6   39.50    1.40
   7  -5  -6   35.20    1.70
  -7   5   6   33.00    1.20
  -7   5   6   36.40    1.80
   6  -5  -6  342.27    9.60
   6  -5  -6  322.27    9.20
  -6   5   6  324.07    9.20
  -6   5   6  309.37    9.70
   5  -5  -6  193.28    5.70
   5  -5  -6  173.28    5.20
  -5   5   6  186.38    5.30
  -5   5   6  178.08    5.80
   4  -5  -6  186.98    5.40
  -4   5   6  194.38    6.00
  -4   5   6  191.28    5.50
   3  -5  -6   -0.40    0.50
  -3   5   6   -0.20    0.30
  -3   5   6   -0.40    0.50
   2  -5  -6    8.90    1.10
   2  -5  -6    9.90    0.70
  -2   5   6    6.80    1.30
  -2   5   6    6.80    1.30
   1  -5  -6  397.06   11.30
   1  -5  -6  408.46   11.60
  -1   5   6  396.76   11.30
  -1   5   6  381.66   11.80
   0  -5  -6   18.30    1.30
   0  -5  -6   16.00    1.10
   0   5   6   17.30    1.60
   0   5   6   17.70    1.10
  -1  -5  -6  217.88    6.60
  -1  -5  -6  225.78    6.70
   1   5   6  219.68    7.00
  -2  -5  -6  464.55   13.30
  -2  -5  -6  447.26   13.20
   2   5   6  458.35   13.50
  -3  -5  -6   26.50    1.60
  -3  -5  -6   28.00    1.60
   3   5   6   25.00    2.00
  -4  -5  -6  121.69    4.20
  -4  -5  -6  129.99    4.10
   4   5   6  125.49    4.50
  -5  -5  -6   69.99    2.90
  -5  -5  -6   68.69    2.60
   5   5   6   70.39    3.20
  -6  -5  -6   -0.40    0.50
  -6  -5  -6    0.10    0.70
   6   5   6   -0.10    0.90
  -7  -5  -6   10.40    1.50
  -8  -5  -6   -0.80    0.90
  -9  -5  -6   23.70    2.50
 -10  -5  -6  324.07   10.30
 -18   6   6   59.89    3.50
 -18   6   6   56.99    4.10
 -17   6   6   31.60    2.70
 -17   6   6   29.60    3.20
 -16   6   6  343.87   10.70
 -16   6   6  355.86   10.90
 -16   6   6  340.47   10.50
 -15   6   6  444.46   13.30
 -15   6   6  434.26   13.10
 -15   6   6  433.66   12.80
 -14   6   6   42.40    2.00
 -14   6   6   39.00    2.70
 -13   6   6  967.70   28.00
 -13   6   6 1004.50   28.40
 -12   6   6  398.26   11.40
 -12   6   6  384.46   11.80
 -11   6   6   47.80    2.40
 -11   6   6   43.60    1.80
  10  -6  -6  128.19    4.20
 -10   6   6  126.79    4.40
 -10   6   6  121.99    3.80
   9  -6  -6  339.27    9.60
  -9   6   6  315.27    9.70
  -9   6   6  306.57    9.20
   8  -6  -6  595.64   16.20
  -8   6   6  534.15   15.80
  -8   6   6  548.05   16.40
   7  -6  -6   21.80    1.50
  -7   6   6   20.50    0.90
  -7   6   6   19.80    1.60
   6  -6  -6   46.40    2.00
  -6   6   6   41.60    1.40
  -6   6   6   41.60    2.10
  -5   6   6   30.30    1.80
   4  -6  -6  460.15   13.10
  -4   6   6  441.16   13.30
   3  -6  -6  236.58    6.80
  -3   6   6  208.58    7.00
   2  -6  -6    1.50    0.50
   2  -6  -6    1.80    0.30
  -2   6   6    0.80    0.60
  -2   6   6    1.80    0.30
   1  -6  -6  680.63   19.70
   1  -6  -6  720.03   20.00
  -1   6   6  689.63   20.30
   0  -6  -6  150.58    4.80
   0  -6  -6  153.88    4.60
   0   6   6  148.39    5.10
  -1  -6  -6   13.80    1.20
  -1  -6  -6   11.60    1.30
   1   6   6   14.20    1.70
  -2  -6  -6    6.60    1.20
  -2  -6  -6    4.40    0.60
   2   6   6    4.80    0.80
  -3  -6  -6  171.98    5.50
  -3  -6  -6  171.38    5.40
   3   6   6  174.18    5.90
  -4  -6  -6  318.87    9.60
  -4  -6  -6  322.37    9.60
   4   6   6  318.97    9.90
  -5  -6  -6   17.40    1.80
  -5  -6  -6   18.40    1.70
   5   6   6   20.20    2.30
  -6  -6  -6   98.99    3.50
  -6  -6  -6   90.59    4.20
   6   6   6   99.79    4.20
  -7  -6  -6  128.59    4.50
  -7  -6  -6  137.59    4.80
  -8  -6  -6  330.67   10.30
  -9  -6  -6   60.69    3.40
 -10  -6  -6    3.00    1.10
 -18   7   6  122.99    5.00
 -18   7   6  123.29    5.60
 -17   7   6   61.69    4.10
 -17   7   6   65.79    3.50
 -16   7   6   10.00    1.70
 -16   7   6    6.30    1.30
 -15   7   6   61.49    2.60
 -15   7   6   64.89    3.50
 -15   7   6   63.69    3.10
 -14   7   6  201.38    6.20
 -14   7   6  203.18    6.80
 -14   7   6  195.68    6.40
 -13   7   6  147.39    5.20
 -13   7   6  136.39    4.50
 -12   7   6   17.00    1.20
 -12   7   6   15.90    2.10
  11  -7  -6  172.08    5.40
 -11   7   6  170.48    5.70
 -11   7   6  161.58    5.20
  10  -7  -6  369.96   11.00
 -10   7   6  366.36   10.60
 -10   7   6  372.46   11.20
   9  -7  -6    0.70    0.50
  -9   7   6    0.80    0.60
   8  -7  -6  115.49    3.80
  -8   7   6  107.09    3.30
  -8   7   6  106.49    4.00
   7  -7  -6  408.16   11.70
  -7   7   6  393.16   11.90
  -7   7   6  385.36   11.20
   6  -7  -6   57.09    2.30
  -6   7   6   51.79    2.60
   5  -7  -6   34.50    1.80
  -5   7   6   31.60    2.00
   4  -7  -6 1081.19   30.20
  -4   7   6 1038.80   30.50
   3  -7  -6  539.65   15.40
  -3   7   6  514.45   15.60
   2  -7  -6  438.96   12.80
   2  -7  -6  427.96   12.30
  -2   7   6  435.86   13.10
   1  -7  -6   29.00    1.70
   1  -7  -6   27.50    1.30
  -1   7   6   28.00    2.00
   0  -7  -6   15.20    1.20
   0  -7  -6   16.00    1.40
   0   7   6   16.10    1.90
  -1  -7  -6  145.29    4.80
  -1  -7  -6  149.59    4.60
   1   7   6  146.59    5.20
  -2  -7  -6  641.54   18.60
  -2  -7  -6  630.64   18.30
   2   7   6  649.83   18.90
  -3  -7  -6    0.20    0.60
  -3  -7  -6    0.20    0.60
   3   7   6    0.60    0.90
  -4  -7  -6    0.20    0.60
  -4  -7  -6   -0.40    0.60
   4   7   6    0.30    0.90
  -5  -7  -6    3.20    0.80
  -5  -7  -6    1.80    0.80
   5   7   6    0.70    1.00
  -6  -7  -6   54.59    2.80
  -6  -7  -6   51.49    2.80
   6   7   6   57.19    3.50
  -7  -7  -6    4.00    0.90
  -7  -7  -6    3.60    1.00
  -8  -7  -6   13.40    2.40
  -9  -7  -6    2.80    1.10
 -18   8   6    6.50    1.30
 -18   8   6    6.10    1.70
 -17   8   6   32.80    2.90
 -17   8   6   28.90    4.40
 -16   8   6   43.20    5.50
 -16   8   6   46.70    2.90
 -16   8   6   45.20    2.40
 -15   8   6  200.58    6.80
 -15   8   6  202.98    6.30
 -15   8   6  210.58    7.20
 -14   8   6  240.08    7.20
 -14   8   6  234.58    7.50
 -14   8   6  239.88    8.00
 -13   8   6    0.90    0.70
 -13   8   6    1.30    1.00
 -13   8   6    0.40    0.50
  12  -8  -6    6.40    0.80
 -12   8   6    7.90    0.80
 -12   8   6    8.50    1.10
 -12   8   6    7.00    1.10
  11  -8  -6   83.39    3.30
 -11   8   6   87.79    3.70
 -11   8   6   82.99    2.80
 -11   8   6   84.39    3.00
  10  -8  -6   78.69    3.10
 -10   8   6   76.89    3.40
 -10   8   6   78.09    2.50
   9  -8  -6    3.30    0.60
  -9   8   6    3.20    0.80
  -9   8   6    4.60    0.70
   8  -8  -6   60.99    2.50
  -8   8   6   57.09    1.90
  -8   8   6   53.59    2.80
  -7   8   6  263.07    8.40
   6  -8  -6  112.59    3.80
  -6   8   6  104.09    4.10
   5  -8  -6  304.17    9.20
   4  -8  -6    2.10    0.50
  -4   8   6    2.20    0.80
   3  -8  -6  329.27    9.60
  -3   8   6  303.67    9.90
   2  -8  -6  141.89    4.70
  -2   8   6  135.69    5.10
   1  -8  -6   90.29    3.40
   1  -8  -6   92.89    2.90
  -1   8   6   92.69    3.90
   0  -8  -6   56.39    2.50
   0  -8  -6   56.39    2.10
   0   8   6   56.49    3.00
  -1  -8  -6  526.35   14.80
  -1  -8  -6  503.95   15.20
   1   8   6  521.65   15.60
  -2  -8  -6   86.49    3.00
  -2  -8  -6   80.59    3.30
   2   8   6   76.79    3.80
  -3  -8  -6   17.10    1.80
  -3  -8  -6   17.60    1.70
   3   8   6   18.50    2.50
  -4  -8  -6  153.68    5.20
  -4  -8  -6  154.28    5.10
   4   8   6  153.48    5.80
  -5  -8  -6  251.07    7.80
  -5  -8  -6  248.48    7.90
   5   8   6  250.87    8.40
  -6  -8  -6   69.39    3.20
  -6  -8  -6   65.59    3.20
   6   8   6   71.99    4.00
  -7  -8  -6   50.79    3.00
  -7  -8  -6   44.50    3.00
  -8  -8  -6  103.49    4.40
 -18   9   6   37.20    4.50
 -18   9   6   30.60    3.30
 -17   9   6  179.18    6.50
 -17   9   6  189.78    7.20
 -16   9   6  171.08    5.60
 -16   9   6  176.88    6.10
 -16   9   6  173.48    6.70
 -15   9   6   24.60    3.00
 -15   9   6   23.10    3.10
 -15   9   6   30.70    1.90
 -14   9   6    4.90    1.20
 -14   9   6    5.50    0.90
  13  -9  -6   12.50    1.90
 -13   9   6   13.80    1.80
 -13   9   6   14.30    1.30
  12  -9  -6  117.09    4.30
 -12   9   6  118.59    5.00
 -12   9   6  121.49    3.80
 -12   9   6  119.59    4.00
  11  -9  -6    1.90    0.70
 -11   9   6    1.60    0.60
 -11   9   6    1.80    0.90
 -11   9   6    1.70    0.40
  10  -9  -6    1.10    0.70
 -10   9   6    1.70    0.30
 -10   9   6    3.10    0.90
 -10   9   6    1.60    0.50
   9  -9  -6  387.56   11.50
  -9   9   6  379.86   11.90
  -9   9   6  388.66   10.90
  -9   9   6  379.06   11.00
   8  -9  -6  746.93   21.40
  -8   9   6  731.63   21.80
  -7   9   6    4.10    0.80
  -6   9   6   10.40    1.90
   5  -9  -6  296.97    8.90
  -5   9   6  283.07    9.30
   4  -9  -6   93.59    3.50
  -4   9   6   89.49    3.90
   3  -9  -6   24.20    1.70
  -3   9   6   18.10    2.20
   2  -9  -6  100.79    3.60
  -2   9   6   90.49    4.10
   1  -9  -6  819.82   23.80
  -1   9   6  824.72   24.20
   0  -9  -6  408.56   12.20
   0  -9  -6  403.96   11.60
   0   9   6  401.36   12.60
  -1  -9  -6   72.89    2.60
  -1  -9  -6   67.99    3.10
   1   9   6   69.59    3.70
  -2  -9  -6   45.30    2.10
  -2  -9  -6   41.80    2.40
   2   9   6   46.10    3.20
  -3  -9  -6  181.58    6.10
  -3  -9  -6  181.58    5.80
   3   9   6  182.48    6.70
  -4  -9  -6   -1.10    0.80
  -4  -9  -6    0.70    0.80
   4   9   6   -0.70    1.20
  -5  -9  -6   10.20    1.20
  -5  -9  -6   12.20    2.10
  -5  -9  -6   12.80    1.50
   5   9   6    9.60    1.60
  -6  -9  -6    2.60    0.70
  -6  -9  -6    2.60    1.00
  -6  -9  -6    2.60    1.10
   6   9   6    0.70    1.50
  -7  -9  -6   95.79    4.10
  -8  -9  -6    1.20    1.20
 -17  10   6    7.50    1.30
 -17  10   6    7.20    1.20
 -17  10   6    5.00    1.80
 -16  10   6   28.10    3.80
 -16  10   6   28.10    2.20
 -16  10   6   26.90    2.80
 -15  10   6   18.10    1.70
 -15  10   6   15.50    2.30
 -15  10   6   11.10    1.60
  14 -10  -6   19.90    2.30
 -14  10   6   20.50    3.10
 -14  10   6   26.10    1.70
 -14  10   6   24.20    2.20
  13 -10  -6  114.49    4.50
 -13  10   6  121.59    5.20
 -13  10   6  124.29    3.90
 -13  10   6  123.69    4.20
  12 -10  -6    0.90    0.70
 -12  10   6    1.20    1.00
 -12  10   6   -0.40    0.60
 -12  10   6   -0.80    0.40
  11 -10  -6   43.70    2.40
 -11  10   6   40.20    3.00
 -11  10   6   43.70    2.00
 -11  10   6   42.70    1.60
  10 -10  -6  121.99    4.30
 -10  10   6  122.59    4.90
 -10  10   6  114.59    3.80
 -10  10   6  119.89    3.60
   9 -10  -6   19.90    1.80
  -9  10   6   18.40    2.70
   8 -10  -6  509.45   15.00
   7 -10  -6   23.50    1.90
   6 -10  -6   58.89    2.70
  -6  10   6   55.39    3.80
   5 -10  -6  265.97    8.10
  -5  10   6  246.08    9.00
   4 -10  -6  473.95   13.90
  -4  10   6  461.45   15.00
   3 -10  -6  322.67    9.90
  -3  10   6  323.27   11.20
   2 -10  -6  152.08    5.20
   1 -10  -6  538.45   16.00
   0 -10  -6  238.48    6.80
   0 -10  -6  237.28    6.70
   0 -10  -6  234.18    7.50
   0  10   6  213.48    8.60
  -1 -10  -6   94.19    3.00
  -1 -10  -6   84.79    3.70
  -1 -10  -6   95.69    3.20
   1  10   6   89.19    4.40
  -2 -10  -6    0.90    0.70
  -2 -10  -6    1.30    0.50
  -2 -10  -6   -0.20    0.80
   2  10   6    0.20    1.10
  -3 -10  -6  249.28    7.60
  -3 -10  -6  254.97    7.70
  -3 -10  -6  247.38    8.10
   3  10   6  260.77    8.80
  -4 -10  -6   22.70    1.60
  -4 -10  -6   18.30    2.40
  -4 -10  -6   23.40    2.20
   4  10   6   21.70    3.40
  -5 -10  -6    3.00    0.70
  -5 -10  -6    1.10    1.10
   5  10   6    1.50    1.50
  -6 -10  -6    2.10    0.80
  -6 -10  -6    2.90    1.10
  -6 -10  -6   -0.30    1.20
   6  10   6    0.80    1.50
  -7 -10  -6   71.39    3.80
 -17  11   6   86.69    4.30
 -17  11   6   80.59    5.50
 -16  11   6   59.79    3.50
 -16  11   6   63.09    2.90
 -16  11   6   55.09    4.70
  15 -11  -6   76.39    3.80
 -15  11   6   82.99    3.10
 -15  11   6   80.19    4.70
 -15  11   6   75.69    3.60
  14 -11  -6    1.20    0.90
 -14  11   6    2.90    0.90
 -14  11   6    1.60    0.60
 -14  11   6    1.90    1.30
  13 -11  -6  209.58    7.10
 -13  11   6  221.98    7.80
 -13  11   6  217.68    6.40
 -13  11   6  214.78    6.70
  12 -11  -6    4.10    0.90
 -12  11   6    4.70    0.50
 -12  11   6    5.30    1.30
 -12  11   6    5.60    0.80
  11 -11  -6  219.38    7.10
 -11  11   6  212.58    6.60
 -11  11   6  220.28    6.40
 -11  11   6  228.28    7.80
  10 -11  -6  199.78    6.50
 -10  11   6  193.48    7.00
   9 -11  -6   55.99    2.70
  -9  11   6   57.29    3.40
   8 -11  -6    5.10    0.80
  -8  11   6    6.50    1.20
   7 -11  -6  491.45   14.70
  -7  11   6  495.25   15.20
   6 -11  -6    1.70    0.80
  -6  11   6    0.40    1.10
   5 -11  -6   37.40    2.30
  -5  11   6   32.90    2.80
   4 -11  -6  262.87    8.40
  -4  11   6  273.87    9.10
   3 -11  -6 1292.97   37.30
  -3  11   6 1309.27   37.80
   2 -11  -6  625.64   18.60
  -2  11   6  635.14   19.10
   1 -11  -6  248.18    8.10
  -1  11   6  254.47    8.70
   0 -11  -6  121.19    3.60
   0 -11  -6  113.19    4.40
   0  11   6  114.59    5.10
  -1 -11  -6  197.88    5.80
  -1 -11  -6  185.88    6.60
  -1 -11  -6  195.78    6.00
   1  11   6  201.98    7.30
  -2 -11  -6  344.77   10.10
  -2 -11  -6  354.56   10.20
  -2 -11  -6  326.97   10.80
   2  11   6  357.16   11.50
  -3 -11  -6   28.60    2.70
  -3 -11  -6   33.80    2.20
  -3 -11  -6   31.90    1.70
   3  11   6   33.30    3.60
  -4 -11  -6    8.70    1.10
  -4 -11  -6    7.20    1.30
  -4 -11  -6   10.80    1.60
   4  11   6    7.60    1.70
  -5 -11  -6   98.49    4.70
  -5 -11  -6  108.39    4.30
  -5 -11  -6  102.29    3.90
   5  11   6  111.19    5.60
  -6 -11  -6    1.60    1.20
 -16  12   6   36.10    5.20
 -16  12   6   47.50    4.70
 -15  12   6   10.10    1.90
 -15  12   6   15.30    2.50
 -14  12   6   -1.40    1.30
 -14  12   6   -0.50    0.60
 -14  12   6   -0.40    0.90
 -13  12   6   32.40    2.20
 -13  12   6   27.30    1.70
 -13  12   6   28.40    3.50
 -12  12   6    4.30    1.30
 -12  12   6    5.50    1.00
  11 -12  -6  156.48    5.90
 -11  12   6  161.18    6.30
  10 -12  -6    0.80    0.70
 -10  12   6    1.10    1.00
   9 -12  -6   30.20    2.30
  -9  12   6   24.20    2.90
   8 -12  -6   42.30    2.60
  -8  12   6   45.90    3.30
   7 -12  -6  135.19    4.90
  -7  12   6  135.69    5.50
   6 -12  -6   32.20    2.40
  -6  12   6   32.60    3.00
   5 -12  -6   39.00    2.40
  -5  12   6   41.60    3.20
   4 -12  -6  242.48    8.10
  -4  12   6  264.67    8.90
   3 -12  -6    1.80    0.70
  -3  12   6    0.10    1.00
   2 -12  -6  102.49    4.20
  -2  12   6  110.09    5.00
   1 -12  -6   29.30    2.40
  -1  12   6   34.60    3.30
   0 -12  -6    4.90    1.30
   0  12   6    4.70    1.40
  -1 -12  -6  234.18    6.90
  -1 -12  -6  236.68    7.10
   1  12   6  232.88    8.60
  -2 -12  -6   48.50    2.50
  -2 -12  -6   49.60    2.10
   2  12   6   44.30    4.00
  -3 -12  -6    2.90    0.90
   3  12   6    6.10    1.70
  -4 -12  -6   88.39    3.70
   4  12   6   83.99    5.30
  -5 -12  -6   63.99    3.50
   5  12   6   61.29    5.10
 -16  13   6    1.80    1.90
 -15  13   6   64.59    4.90
 -14  13   6    1.30    0.80
 -14  13   6   -1.30    1.30
 -13  13   6  184.78    7.30
 -12  13   6  431.26   13.90
 -11  13   6    4.90    1.40
 -10  13   6    3.10    1.20
  -9  13   6   72.39    4.10
  -8  13   6   26.60    3.00
  -7  13   6   63.89    3.80
  -6  13   6   45.50    3.40
  -5  13   6  413.86   13.40
  -4  13   6  232.88    8.40
  -3  13   6    0.20    1.00
  -2  13   6    1.90    1.30
  -1  13   6   87.89    4.80
   0  13   6  226.98    8.50
   1  13   6    0.10    1.50
  -2 -13  -6   81.69    3.60
   2  13   6   82.19    5.10
   3  13   6   12.30    2.10
 -15  14   6   47.70    4.90
 -14  14   6    1.10    1.80
 -13  14   6    1.40    1.50
 -12  14   6   70.19    4.60
 -11  14   6   -0.70    1.20
  -9  14   6   -0.20    1.10
  -8  14   6   27.10    3.20
  -7  14   6   19.50    2.90
  -6  14   6   14.60    2.80
  -5  14   6  156.78    6.50
  -4  14   6  105.39    5.10
  -2  14   6    5.50    1.60
  -1  14   6  190.98    7.60
   0  14   6   91.59    5.30
   1  14   6   33.70    4.30
   2  14   6   52.99    5.00
 -14  15   6  103.69    6.20
 -13  15   6   -0.40    1.70
 -12  15   6    0.40    1.40
 -11  15   6   98.89    5.20
 -10  15   6   37.60    3.60
  -9  15   6    8.40    1.60
  -8  15   6  206.28    7.90
  -7  15   6   37.30    3.50
  -6  15   6  463.65   15.00
  -5  15   6   -0.20    1.10
  -4  15   6   45.00    3.90
  -3  15   6  368.96   12.60
  -2  15   6  218.18    8.50
  -1  15   6   11.00    2.00
 -12  16   6    9.40    2.00
 -11  16   6   32.20    4.00
 -10  16   6    0.10    1.30
  -9  16   6  136.19    6.30
  -8  16   6   30.90    3.50
  -7  16   6    2.50    1.20
  -6  16   6   -0.50    1.40
  -5  16   6  130.49    6.20
  -4  16   6    2.20    1.50
  -3  16   6  160.48    7.20
  -2  16   6   11.20    2.10
  -9  17   6   14.60    2.90
  -8  17   6   -1.00    1.50
   3  18  -7   92.79    3.60
   2  18  -7   94.09    3.50
   1  18  -7   78.29    3.00
  -1  18  -7  106.29    3.70
  -2  18  -7   17.70    1.60
  -3  18  -7    1.30    0.80
  -5  18  -7  203.08    6.40
  -6  18  -7   13.20    2.10
  -7  18  -7  123.49    4.60
   4  17  -7   26.50    2.00
  -4 -17   7   24.20    2.30
   3  17  -7   -0.10    0.60
  -3 -17   7   -0.70    0.90
   2  17  -7    1.10    0.60
  -2 -17   7    1.30    0.90
   1  17  -7   82.79    3.30
  -1 -17   7   82.59    3.40
   0  17  -7  159.28    4.90
   0 -17   7  150.28    5.30
  -1  17  -7    3.70    0.60
   1 -17   7    3.30    0.90
  -2  17  -7   -0.70    0.50
   2 -17   7    0.50    0.90
  -3  17  -7  242.68    7.10
   3 -17   7  221.88    7.40
  -4  17  -7   91.49    3.30
   4 -17   7   83.59    3.70
  -5  17  -7    0.70    0.70
   5 -17   7    0.70    1.00
  -6  17  -7    0.20    0.80
   6 -17   7    1.30    1.00
  -7  17  -7  120.99    4.50
   7 -17   7  116.99    4.80
  -8  17  -7  291.77    9.00
   8 -17   7  278.77    9.40
   5  16  -7  390.06   11.30
  -5 -16   7  366.16   11.30
   4  16  -7   45.80    2.20
  -4 -16   7   44.90    2.50
   3  16  -7   30.40    1.80
  -3 -16   7   29.90    2.10
   2  16  -7   26.90    1.70
  -2 -16   7   24.90    2.00
   1  16  -7   89.99    3.10
  -1 -16   7   84.09    3.40
   0  16  -7   75.89    2.70
   0 -16   7   75.59    3.10
  -1  16  -7    1.40    0.50
   1 -16   7    2.30    0.80
  -2  16  -7  346.17   10.00
   2 -16   7  333.37   10.20
  -3  16  -7  302.17    8.80
   3 -16   7  284.27    9.00
  -4  16  -7    5.70    0.80
   4 -16   7    4.60    0.90
   5 -16   7   15.30    2.20
  -6  16  -7   43.60    2.40
   6 -16   7   43.00    2.80
  -7  16  -7   55.09    2.90
   7 -16   7   53.69    3.20
  -8  16  -7   98.99    4.20
   8 -16   7  102.89    4.40
  -9  16  -7  237.68    7.80
 -10  16  -7   78.29    4.00
   6  15  -7  125.39    4.30
  -6 -15   7  121.09    4.30
   5  15  -7   31.50    1.90
  -5 -15   7   29.30    1.90
   4  15  -7   57.09    2.40
  -4 -15   7   53.89    2.40
   3  15  -7  108.19    3.60
  -3 -15   7  103.29    3.70
   2  15  -7   10.10    1.20
  -2 -15   7    8.80    1.50
   1  15  -7    0.00    0.40
  -1 -15   7   -0.10    0.60
   0  15  -7  100.09    3.20
   0 -15   7   91.59    3.50
  -1  15  -7   50.99    2.10
   1 -15   7   47.70    2.40
  -2  15  -7  164.68    5.10
   2 -15   7  163.68    5.40
  -3  15  -7   10.90    1.40
   3 -15   7   10.00    1.80
  -4  15  -7  366.46   10.70
   4 -15   7  352.46   11.80
   4 -15   7  366.26   10.80
  -5  15  -7  223.88    7.00
   5 -15   7  223.08    8.00
   5 -15   7  230.78    7.20
  -6  15  -7    3.20    0.80
   6 -15   7    4.00    0.90
   6 -15   7    3.60    1.40
  -7  15  -7   73.19    3.30
   7 -15   7   76.49    3.50
   7 -15   7   75.09    4.40
  -8  15  -7   14.90    2.30
   8 -15   7   18.50    2.50
   8 -15   7   11.20    1.70
  -9  15  -7  100.89    4.30
   9 -15   7   96.09    5.10
 -10  15  -7    2.70    1.20
  -7 -14   7  209.38    6.60
   6  14  -7   99.79    3.60
  -6 -14   7   99.19    3.60
   5  14  -7   26.50    1.60
  -5 -14   7   26.60    1.70
   4  14  -7    0.00    0.50
  -4 -14   7    0.30    0.50
   3  14  -7   22.90    1.40
  -3 -14   7   23.30    1.60
   2  14  -7    6.60    1.10
  -2 -14   7    3.70    0.70
   1  14  -7  157.48    4.80
  -1 -14   7  151.48    6.40
  -1 -14   7  154.58    5.00
   0  14  -7  503.85   14.30
   0 -14   7  501.75   14.50
   0 -14   7  488.15   15.40
  -1  14  -7    6.40    1.20
   1 -14   7    4.50    0.70
   1 -14   7    4.20    1.00
  -2  14  -7    5.10    0.60
   2 -14   7    5.40    0.80
   2 -14   7    4.50    1.00
  -3  14  -7   95.59    3.30
   3 -14   7   90.59    4.30
   3 -14   7   91.99    3.50
  -4  14  -7    0.40    0.60
   4 -14   7    1.10    1.00
   4 -14   7    0.60    0.70
  -5  14  -7    0.30    0.70
   5 -14   7    1.10    0.70
   5 -14   7    0.70    1.10
  -6  14  -7  264.87    9.20
   6 -14   7  270.87    9.00
   6 -14   7  266.77    8.30
  -7  14  -7  168.68    5.60
   7 -14   7  165.38    6.30
   7 -14   7  163.18    5.60
  -8  14  -7   13.70    2.30
   8 -14   7   17.00    2.20
   8 -14   7   11.20    1.60
  -9  14  -7  297.97    9.30
   9 -14   7  285.37    9.60
 -10  14  -7    3.10    1.20
  10 -14   7    2.30    1.50
 -11  14  -7   19.60    2.90
  -8 -13   7    7.50    1.20
   7  13  -7   31.00    1.80
  -7 -13   7   27.10    1.80
   6  13  -7  171.48    5.40
  -6 -13   7  169.78    5.40
   5  13  -7    7.30    0.90
  -5 -13   7    8.30    1.30
   4  13  -7   34.40    1.70
  -4 -13   7   32.80    1.70
   3  13  -7    4.10    0.60
  -3 -13   7    4.00    0.60
  -3 -13   7    3.20    1.10
   2  13  -7  115.39    3.60
  -2 -13   7  110.29    3.80
  -2 -13   7  109.69    4.70
   1  13  -7   58.59    2.20
  -1 -13   7   57.39    2.40
  -1 -13   7   57.09    3.20
   0  13  -7    0.60    0.40
   0 -13   7    0.70    0.50
   0 -13   7   -0.30    0.80
  -1  13  -7   33.30    1.60
   1 -13   7   32.00    2.60
   1 -13   7   34.20    1.90
  -2  13  -7   71.69    2.60
   2 -13   7   70.39    3.60
   2 -13   7   70.59    2.80
  -3  13  -7  419.36   12.40
   3 -13   7  428.56   12.50
   3 -13   7  425.66   13.20
  -4  13  -7  204.88    6.40
   4 -13   7  204.88    6.50
   4 -13   7  204.08    7.20
  -5  13  -7    4.50    0.80
   5 -13   7    4.40    0.80
   5 -13   7    3.80    1.10
  -6  13  -7    3.50    1.00
   6 -13   7    3.10    0.80
   6 -13   7    3.20    1.20
  -7  13  -7  109.29    4.20
   7 -13   7  110.79    4.70
   7 -13   7  107.19    4.10
  -8  13  -7   71.59    3.40
   8 -13   7   73.49    3.90
   8 -13   7   72.29    3.20
  -9  13  -7   -0.20    1.00
   9 -13   7    0.40    1.30
   9 -13   7   -0.20    1.20
 -10  13  -7  168.78    6.20
  10 -13   7  171.28    6.20
 -11  13  -7   18.30    2.80
 -12  13  -7   -1.50    1.30
  -8 -12   7  126.69    4.20
   7  12  -7    9.30    1.30
  -7 -12   7    7.30    1.60
  -7 -12   7   11.50    1.30
  -6 -12   7   33.80    2.70
  -6 -12   7   33.10    1.70
   5  12  -7  552.94   16.20
  -5 -12   7  570.64   17.20
  -5 -12   7  564.24   16.20
   4  12  -7   68.99    2.50
  -4 -12   7   67.49    3.40
  -4 -12   7   66.99    2.50
   3  12  -7  268.07    8.00
  -3 -12   7  270.37    8.00
  -3 -12   7  268.97    9.00
   2  12  -7    1.50    0.40
  -2 -12   7    0.90    0.50
  -2 -12   7    1.50    0.90
   1  12  -7    8.40    1.00
  -1 -12   7   10.40    1.30
  -1 -12   7   12.00    1.90
   0  12  -7   27.90    1.40
   0 -12   7   24.90    2.20
   0 -12   7   25.60    1.60
  -1  12  -7    6.10    1.10
   1 -12   7    3.50    0.90
   1 -12   7    4.90    0.70
  -2  12  -7  266.47    8.00
   2 -12   7  274.37    8.10
   2 -12   7  266.97    8.80
  -3  12  -7  515.75   15.10
   3 -12   7  531.95   15.20
   3 -12   7  520.35   15.80
  -4  12  -7   22.30    1.80
   4 -12   7   17.20    2.50
   4 -12   7   24.70    1.80
  -5  12  -7   51.69    2.50
   5 -12   7   52.69    2.50
   5 -12   7   50.99    3.20
  -6  12  -7   50.19    2.60
   6 -12   7   51.39    3.20
   6 -12   7   49.90    2.50
  -7  12  -7  118.49    4.30
   7 -12   7  113.19    4.20
   7 -12   7  117.19    4.70
  -8  12  -7   14.40    2.20
   8 -12   7   13.50    2.50
   8 -12   7   13.80    2.00
  -9  12  -7   11.10    1.30
   9 -12   7   17.40    2.20
   9 -12   7   13.50    2.60
 -10  12  -7  209.78    7.10
  10 -12   7  206.98    6.90
 -11  12  -7  243.18    8.20
 -12  12  -7    2.60    1.20
  -9 -11   7  113.29    5.50
  -9 -11   7  108.19    3.80
   8  11  -7   14.80    1.40
  -8 -11   7   12.60    1.30
  -8 -11   7   14.10    2.40
   7  11  -7  964.00   28.50
  -7 -11   7 1026.50   29.40
  -7 -11   7 1003.50   28.40
   6  11  -7  491.25   14.50
  -6 -11   7  498.25   14.50
  -6 -11   7  510.85   15.40
   5  11  -7    0.10    0.40
  -5 -11   7    0.60    0.80
  -5 -11   7    0.30    0.40
   4  11  -7    7.20    1.00
  -4 -11   7    7.10    1.10
  -4 -11   7    7.10    1.10
   3  11  -7   16.80    1.10
  -3 -11   7   16.40    2.10
  -3 -11   7   17.70    1.30
   2  11  -7   81.49    2.70
  -2 -11   7   79.19    3.60
  -2 -11   7   82.99    2.90
   1  11  -7   57.49    2.10
  -1 -11   7   57.79    2.20
  -1 -11   7   52.59    2.90
   0  11  -7  238.68    7.20
   0 -11   7  241.78    7.30
   0 -11   7  243.88    8.00
  -1  11  -7  765.92   22.50
   1 -11   7  806.72   23.30
   1 -11   7  800.32   22.60
  -2  11  -7   94.99    3.30
   2 -11   7   97.19    4.00
   2 -11   7   95.59    3.40
  -3  11  -7   27.40    1.70
   3 -11   7   26.70    1.70
   3 -11   7   24.70    2.30
  -4  11  -7  276.37    8.50
   4 -11   7  280.57    8.50
   4 -11   7  287.77    9.00
  -5  11  -7  300.07    9.10
   5 -11   7  297.17    9.00
   5 -11   7  300.67    9.50
  -6  11  -7    0.60    0.80
   6 -11   7    0.00    0.60
   6 -11   7    1.20    0.90
  -7  11  -7   -0.30    0.80
   7 -11   7   -1.00    0.90
  -8  11  -7  290.67    9.10
   8 -11   7  284.67    8.90
   8 -11   7  288.17    9.00
  -9  11  -7  376.96   11.50
   9 -11   7  384.26   11.30
   9 -11   7  362.36   11.30
 -10  11  -7    1.40    1.00
 -11  11  -7   -0.30    1.10
 -12  11  -7   40.40    3.10
 -11 -10   7    0.20    1.40
 -10 -10   7   55.49    3.70
  -9 -10   7  405.26   11.80
  -9 -10   7  400.66   12.80
   8  10  -7   50.39    2.20
  -8 -10   7   45.40    2.00
  -8 -10   7   50.29    3.10
   7  10  -7    6.40    0.70
  -7 -10   7    4.20    1.00
  -7 -10   7    6.60    1.10
   6  10  -7  234.88    7.10
  -6 -10   7  232.18    7.00
  -6 -10   7  233.58    7.90
   5  10  -7  115.39    3.80
  -5 -10   7  115.29    4.60
  -5 -10   7  118.39    3.80
   4  10  -7   19.70    1.20
  -4 -10   7   18.40    1.20
  -4 -10   7   17.10    1.90
   3  10  -7   17.40    1.10
  -3 -10   7   18.10    2.00
  -3 -10   7   18.30    1.20
   2  10  -7  398.86   12.00
  -2 -10   7  424.26   12.10
  -2 -10   7  427.66   12.90
   1  10  -7  394.76   11.70
  -1 -10   7  409.56   12.50
  -1 -10   7  411.76   11.80
   0  10  -7   70.19    2.50
   0 -10   7   72.49    3.30
   0 -10   7   72.69    2.60
  -1  10  -7   60.39    2.30
   1 -10   7   61.49    3.00
   1 -10   7   65.09    2.40
  -2  10  -7   97.99    3.30
   2 -10   7   97.69    3.30
   2 -10   7   92.39    3.90
  -3  10  -7   61.09    2.50
   3 -10   7   61.29    2.50
   3 -10   7   62.09    3.00
  -4  10  -7  140.79    4.60
   4 -10   7  134.19    4.90
   4 -10   7  135.69    4.50
  -5  10  -7  174.58    5.60
   5 -10   7  175.08    5.60
   5 -10   7  171.48    5.90
  -6  10  -7   11.30    1.90
   6 -10   7   10.40    2.10
   6 -10   7   10.50    1.60
  -7  10  -7    6.00    1.00
   7 -10   7    5.60    0.90
   7 -10   7    5.80    1.00
  -8  10  -7   -0.50    0.90
   8 -10   7    0.60    0.70
  -9  10  -7    6.50    1.10
   9 -10   7    5.70    0.90
   9 -10   7    7.80    1.00
 -10  10  -7   -0.80    1.00
 -11  10  -7    0.00    1.10
 -12  10  -7  130.29    5.20
 -13  10  -7  179.28    6.60
 -13  -9   7  455.25   17.00
 -12  -9   7    0.20    1.30
 -11  -9   7    5.10    1.40
 -10  -9   7  226.98    7.00
 -10  -9   7  228.08    8.00
  -9  -9   7  109.39    4.70
  -9  -9   7  116.69    3.80
  -8  -9   7    2.70    0.50
  -8  -9   7    3.10    1.00
   7   9  -7   61.49    2.30
  -7  -9   7   58.19    3.10
  -7  -9   7   60.59    2.30
   6   9  -7  101.69    3.40
  -6  -9   7  102.39    3.40
  -6  -9   7  105.19    4.20
   5   9  -7  272.77    8.10
  -5  -9   7  280.67    8.90
  -5  -9   7  271.07    8.10
   4   9  -7   33.60    1.40
  -4  -9   7   32.30    2.20
  -4  -9   7   34.40    1.50
   3   9  -7   65.69    2.30
  -3  -9   7   67.99    2.40
  -3  -9   7   64.89    3.10
   2   9  -7  562.14   17.00
  -2  -9   7  618.74   17.80
  -2  -9   7  606.94   17.10
   1   9  -7  569.14   17.00
  -1  -9   7  600.94   17.10
  -1  -9   7  615.24   17.70
   0   9  -7  163.58    5.10
   0  -9   7  169.48    5.20
   0  -9   7  166.08    5.70
  -1   9  -7    7.40    1.00
   1  -9   7    9.00    1.60
   1  -9   7    7.50    1.10
  -2   9  -7  416.66   12.10
   2  -9   7  420.36   12.20
   2  -9   7  412.56   12.60
  -3   9  -7  497.35   14.40
   3  -9   7  483.25   14.70
   3  -9   7  505.15   14.40
  -4   9  -7  170.58    5.40
   4  -9   7  168.28    5.30
   4  -9   7  165.08    5.70
  -5   9  -7   11.00    1.60
   5  -9   7   11.00    1.40
   5  -9   7    7.50    1.10
  -6   9  -7  299.87    9.20
   6  -9   7  295.57    9.00
   6  -9   7  302.47    9.30
  -7   9  -7    3.60    1.10
   7  -9   7    4.10    0.80
   7  -9   7    5.20    0.90
  -8   9  -7    2.50    0.90
   8  -9   7    2.60    0.80
   8  -9   7    2.80    0.80
  -9   9  -7  117.69    4.50
   9  -9   7  115.99    4.30
 -10   9  -7  205.18    7.00
 -11   9  -7  258.07    8.50
 -12   9  -7   15.00    2.70
 -13   9  -7   18.50    2.90
 -14  -8   7    1.70    1.70
 -13  -8   7    0.20    1.40
 -12  -8   7  568.84   17.50
 -11  -8   7  362.16   11.70
 -10  -8   7  150.08    5.70
 -10  -8   7  146.39    4.70
   9   8  -7  114.89    3.90
  -9  -8   7  114.79    3.80
  -9  -8   7  114.99    4.70
   8   8  -7   10.20    1.20
  -8  -8   7   11.60    1.10
   7   8  -7 1075.19   31.00
  -7  -8   7 1112.49   31.00
   6   8  -7   93.09    3.10
  -6  -8   7   92.69    3.10
   5   8  -7    2.00    0.40
  -5  -8   7    1.60    0.40
   4   8  -7   34.60    1.50
  -4  -8   7   36.90    1.50
   3   8  -7  497.05   14.60
  -3  -8   7  523.45   14.60
   2   8  -7  169.28    5.20
  -2  -8   7  180.28    5.30
   1   8  -7   39.40    1.60
  -1  -8   7   42.60    1.70
  -1  -8   7   37.10    2.20
   0   8  -7  252.07    7.60
   0  -8   7  257.77    8.10
   0  -8   7  259.07    7.60
  -1   8  -7  341.07   10.10
   1  -8   7  349.87   10.10
   1  -8   7  341.57   10.50
  -2   8  -7  429.76   12.40
   2  -8   7  447.86   12.40
   2  -8   7  401.16   13.10
  -3   8  -7    4.90    0.70
   3  -8   7    2.80    0.60
   3  -8   7    3.60    0.80
  -4   8  -7  124.99    4.20
   4  -8   7  125.99    4.20
   4  -8   7  123.79    4.40
  -5   8  -7    2.60    0.70
   5  -8   7    2.70    0.70
   5  -8   7    2.10    0.60
  -6   8  -7    5.50    0.90
   6  -8   7    6.10    0.80
   6  -8   7    8.20    1.40
  -7   8  -7    6.30    1.20
   7  -8   7    9.10    1.70
   7  -8   7    5.70    0.80
  -8   8  -7  399.56   12.10
   8  -8   7  400.66   12.00
  -9   8  -7   24.40    2.30
   9  -8   7   17.80    1.90
 -10   8  -7  231.18    7.70
 -11   8  -7  250.57    8.30
 -12   8  -7    0.00    1.00
 -13   8  -7    1.60    1.10
 -15  -7   7   83.89    5.30
 -14  -7   7   28.00    3.80
 -13  -7   7   -0.30    1.20
 -12  -7   7  437.26   13.70
 -11  -7   7  592.94   17.10
 -10  -7   7  189.58    5.90
   9   7  -7    1.20    0.50
  -9  -7   7    0.80    0.40
   8   7  -7  690.83   20.30
  -8  -7   7  724.33   20.20
   7   7  -7  262.77    7.80
   6   7  -7    4.40    0.80
  -6  -7   7    4.70    0.80
   5   7  -7  290.17    8.60
  -5  -7   7  299.67    8.60
   4   7  -7 1985.90   57.59
  -4  -7   7 2034.50   57.59
   3   7  -7 2186.58   62.79
  -3  -7   7 2212.38   62.89
   2   7  -7    8.40    0.90
   1   7  -7   76.99    2.60
   0   7  -7   82.89    2.70
   0  -7   7   76.89    3.00
  -1   7  -7 2280.07   64.69
   1  -7   7 2243.28   64.09
  -2   7  -7   77.39    2.80
   2  -7   7   79.29    2.80
   2  -7   7   71.49    3.00
  -3   7  -7 1173.28   33.20
   3  -7   7 1189.88   33.20
   3  -7   7 1150.28   33.40
  -4   7  -7  258.57    7.80
   4  -7   7  264.47    7.80
   4  -7   7  246.58    7.90
  -5   7  -7   99.29    3.60
   5  -7   7   96.49    3.60
   5  -7   7  101.09    3.50
  -6   7  -7  239.58    7.50
   6  -7   7  241.48    7.40
   6  -7   7  237.98    7.30
   7  -7   7   14.10    1.60
  -8   7  -7  182.08    6.10
   8  -7   7  182.88    6.00
  -9   7  -7  338.87   10.40
   9  -7   7  327.47   10.20
 -10   7  -7   79.79    3.70
 -11   7  -7   19.20    2.60
 -12   7  -7  199.18    7.00
 -13   7  -7   42.80    3.30
 -15  -6   7   32.80    4.10
 -14  -6   7  410.86   13.10
 -11  -6   7   78.19    2.90
 -10  -6   7  834.02   23.80
   9   6  -7  341.67   10.20
  -9  -6   7  349.87   10.10
   8   6  -7   36.20    1.60
  -8  -6   7   36.10    1.50
   7   6  -7  350.76   10.40
  -7  -6   7  363.26   10.40
   6   6  -7  142.09    4.40
  -6  -6   7  143.19    4.40
   5   6  -7  777.42   22.30
  -5  -6   7  798.02   22.30
   4   6  -7    1.60    0.30
  -4  -6   7    1.20    0.30
   3   6  -7   95.49    3.00
  -3  -6   7   91.19    3.20
   2   6  -7 2055.99   59.39
  -2  -6   7 2097.79   59.49
   1   6  -7 1156.58   32.10
  -1  -6   7 1092.09   31.80
   0   6  -7  208.78    6.20
   0  -6   7  204.68    6.30
  -1   6  -7  134.89    4.20
   1  -6   7  125.69    4.40
  -2   6  -7  954.50   27.30
   2  -6   7  967.30   27.30
  -3   6  -7  218.78    6.80
   3  -6   7  228.28    6.80
   3  -6   7  218.58    6.90
  -4   6  -7  177.88    5.60
   4  -6   7  172.28    5.60
   4  -6   7  176.98    5.50
  -5   6  -7   18.20    1.60
   5  -6   7   17.00    1.50
   5  -6   7   16.10    1.50
  -6   6  -7   40.50    2.20
   6  -6   7   40.50    2.10
   7  -6   7   39.90    2.20
  -8   6  -7   69.19    3.20
   8  -6   7   66.99    2.90
  -9   6  -7    1.00    0.90
   9  -6   7    0.80    0.70
 -10   6  -7   53.29    3.10
 -11   6  -7   17.70    2.60
 -12   6  -7  369.56   11.70
 -13   6  -7    1.10    1.00
 -12  -5   7   71.49    2.80
 -11  -5   7    3.90    0.60
 -10  -5   7   48.60    2.00
   9   5  -7  327.77    9.70
  -9  -5   7  328.37    9.60
   8   5  -7  336.77   10.10
  -8  -5   7  352.36   10.00
   7   5  -7   13.20    1.00
  -7  -5   7   13.60    0.90
   6   5  -7  423.66   12.30
  -6  -5   7  434.56   12.30
   5   5  -7  270.17    7.90
   4   5  -7  180.48    5.40
   3   5  -7    6.30    0.80
  -3  -5   7    6.30    0.90
  -2  -5   7 2233.08   63.49
   1   5  -7  664.63   19.20
  -1  -5   7  687.83   19.30
   0  -5   7    1.20    0.50
  -1   5  -7  904.61   24.40
   1  -5   7  812.72   24.60
  -2   5  -7  940.41   27.10
   2  -5   7  964.20   27.10
  -3   5  -7  177.68    5.60
   3  -5   7  179.78    5.60
  -4   5  -7    4.20    0.70
   4  -5   7    4.30    0.60
   4  -5   7    4.60    0.60
  -5   5  -7   80.99    3.20
   5  -5   7   87.39    3.10
   5  -5   7   82.59    2.90
  -6   5  -7  263.97    8.30
   6  -5   7  275.07    8.20
  -7   5  -7   79.19    4.90
   7  -5   7  110.29    3.60
  -8   5  -7  477.65   14.40
   8  -5   7  490.15   14.30
  -9   5  -7   -0.90    0.90
   9  -5   7    0.90    0.70
 -10   5  -7  755.42   22.10
 -11   5  -7  122.29    4.90
 -12   5  -7    6.20    1.30
 -13   5  -7    9.10    1.40
 -12  -4   7  598.14   17.30
 -11  -4   7  163.18    5.10
 -10  -4   7   70.39    2.50
  -9  -4   7   41.60    1.70
   8   4  -7  297.67    8.80
  -8  -4   7  303.57    8.80
   7   4  -7    4.90    0.70
  -7  -4   7    6.30    0.80
   6   4  -7   97.69    3.10
  -6  -4   7  100.29    3.10
   5   4  -7  479.35   13.50
  -5  -4   7  469.45   13.60
   4   4  -7 2431.06   71.09
  -4  -4   7 2577.24   71.39
   3   4  -7 1267.07   36.30
  -3  -4   7 1280.67   36.60
   2   4  -7   16.40    1.00
  -2  -4   7   17.50    1.10
   1   4  -7   90.59    3.00
  -1  -4   7   96.89    3.10
   0   4  -7  471.65   13.70
   0  -4   7  485.05   13.80
  -1   4  -7    2.20    0.50
   1  -4   7    1.10    0.50
  -2   4  -7   30.30    1.70
   2  -4   7   28.40    1.60
  -3   4  -7  186.98    5.90
   3  -4   7  194.88    5.90
  -4   4  -7  236.08    7.40
   4  -4   7  248.68    7.40
  -5   4  -7  165.38    5.50
   5  -4   7  174.38    5.50
  -6   4  -7  338.37   10.30
   6  -4   7  349.57   10.30
  -7   4  -7   62.59    3.50
   7  -4   7   68.99    2.80
  -8   4  -7  378.86   11.40
   8  -4   7  373.76   11.30
  -9   4  -7   -0.30    0.80
 -10   4  -7  296.27    9.40
 -11   4  -7   82.69    3.90
 -12   4  -7   -0.60    1.00
 -13   4  -7   14.90    2.70
 -13  -3   7   -0.10    0.50
 -12  -3   7  131.09    4.30
 -11  -3   7  390.86   11.40
 -10  -3   7   92.79    3.10
   9   3  -7  415.66   12.30
  -9  -3   7  431.46   12.20
   8   3  -7  431.46   12.50
  -8  -3   7  430.96   12.40
   7   3  -7   -0.10    0.30
  -7  -3   7    0.20    0.30
   6   3  -7   45.90    1.70
   5   3  -7  335.17    9.80
  -5  -3   7  347.17    9.80
   4   3  -7 3671.03  104.89
  -4  -3   7 3741.33  104.99
   3   3  -7  359.36   10.60
  -3  -3   7  376.86   10.60
   2   3  -7   71.19    2.40
  -2  -3   7   76.29    2.50
   1   3  -7   58.19    2.10
  -1  -3   7   59.69    2.20
   0   3  -7  654.13   19.00
   0  -3   7  680.43   19.00
  -1   3  -7   55.99    2.20
   1  -3   7   52.59    2.10
  -2   3  -7   72.79    2.60
   2  -3   7   66.99    2.60
  -3   3  -7   39.80    1.90
   3  -3   7   38.30    1.80
  -4   3  -7  475.15   14.20
   4  -3   7  496.75   14.10
  -5   3  -7  233.38    7.30
   5  -3   7  241.78    7.30
  -6   3  -7    5.20    0.80
   6  -3   7    5.20    0.70
  -7   3  -7  168.78    5.90
   7  -3   7  179.88    5.70
  -8   3  -7  220.28    7.10
   8  -3   7  217.48    7.00
  -9   3  -7  110.19    4.30
 -10   3  -7    2.10    1.00
 -11   3  -7  115.09    4.70
 -12   3  -7  104.09    4.60
 -17  -2   7   49.20    3.00
 -13  -2   7  519.05   15.10
 -12  -2   7  487.85   14.20
 -11  -2   7   66.99    2.50
 -10  -2   7  133.39    4.20
   9   2  -7    2.20    0.40
   8   2  -7   98.19    3.20
   7   2  -7   76.99    2.50
  -7  -2   7   75.59    2.50
   6   2  -7 2578.34   74.59
  -6  -2   7 2678.63   74.49
   5   2  -7  897.91   25.70
   4   2  -7    0.30    0.30
  -4  -2   7    0.40    0.30
   3   2  -7    1.50    0.30
  -3  -2   7    1.70    0.30
   2   2  -7  556.44   16.10
  -2  -2   7  578.54   16.20
   1   2  -7  108.09    3.40
  -1  -2   7  109.89    3.50
   0   2  -7  100.69    3.30
   0  -2   7  100.19    3.30
  -1   2  -7  357.86   10.50
   1  -2   7  363.76   10.50
  -2   2  -7   28.10    1.60
   2  -2   7   26.00    1.80
  -3   2  -7  269.87    8.10
   3  -2   7  280.87    8.10
   3  -2   7  264.47    7.80
  -4   2  -7    1.00    0.60
   4  -2   7    0.40    0.50
  -5   2  -7   57.39    2.60
   5  -2   7   63.89    2.50
  -6   2  -7  499.15   14.80
   6  -2   7  507.75   14.70
  -7   2  -7    0.90    0.80
   7  -2   7    1.10    0.60
  -8   2  -7  119.69    4.50
  -9   2  -7   14.40    2.10
 -10   2  -7  173.48    6.10
 -11   2  -7  108.99    4.50
 -12   2  -7    4.90    1.20
 -17  -1   7   66.69    3.20
 -16  -1   7   86.09    3.60
 -15  -1   7    3.70    0.80
 -14  -1   7    1.50    0.60
 -13  -1   7  174.18    5.50
 -12  -1   7   28.60    1.60
 -11  -1   7  524.75   15.10
 -10  -1   7  372.36   10.80
   9   1  -7    5.40    0.90
  -9  -1   7    6.80    0.80
   8   1  -7  252.07    7.50
  -8  -1   7  254.37    7.40
   7   1  -7  283.07    8.40
  -7  -1   7  294.37    8.40
   6   1  -7   71.29    2.40
  -6  -1   7   75.59    2.40
   5   1  -7   93.99    2.90
  -5  -1   7   94.69    3.00
   4   1  -7  140.89    4.30
  -4  -1   7  148.39    4.30
   3   1  -7  325.27    9.50
  -3  -1   7  334.87    9.50
   2   1  -7  478.75   13.80
  -2  -1   7  492.05   13.90
   1   1  -7  867.91   25.00
  -1  -1   7  896.01   25.00
   0   1  -7  120.59    3.80
   0  -1   7  122.89    3.90
  -1   1  -7  387.26   11.40
   1  -1   7  386.06   11.20
   1  -1   7  399.26   11.40
  -2   1  -7   69.69    2.50
   2  -1   7   63.69    2.20
   2  -1   7   63.09    2.70
  -3   1  -7  128.69    4.30
   3  -1   7  133.39    4.30
   3  -1   7  131.49    4.00
  -4   1  -7   22.20    1.60
   4  -1   7   24.00    1.50
  -5   1  -7  134.19    4.60
   5  -1   7  141.49    4.60
  -6   1  -7  963.60   28.20
   6  -1   7 1008.10   28.20
  -7   1  -7  284.57    8.80
  -8   1  -7    0.00    0.80
  -9   1  -7   59.59    3.10
 -10   1  -7    6.50    1.10
 -11   1  -7    3.50    1.10
 -12   1  -7   44.50    3.20
 -18   0   7   16.70    2.60
 -17   0   7    6.30    1.00
 -16   0   7  177.88    5.90
 -15   0   7   55.29    2.70
 -14   0   7    1.80    0.50
 -14   0   7    2.10    0.70
 -13   0   7    0.60    0.50
 -13   0   7    0.00    0.60
 -12   0   7 1110.49   31.50
 -11   0   7  734.63   20.90
 -10   0   7  413.56   11.90
   9   0  -7  162.88    5.10
  -9   0   7  174.48    5.10
   8   0  -7  232.78    6.60
  -8   0   7  211.38    6.70
  -7   0   7    1.70    0.30
   6   0  -7    1.90    0.30
  -6   0   7    1.90    0.30
   5   0  -7  163.58    4.80
  -5   0   7  163.98    4.80
   4   0  -7 1144.99   33.00
  -4   0   7 1168.18   32.80
   3   0  -7  538.45   15.30
  -3   0   7  542.75   15.40
   2   0  -7  109.99    3.40
  -2   0   7  110.69    3.50
  -2   0   7  111.99    3.50
   1   0  -7   46.40    1.80
  -1   0   7   46.50    1.80
  -1   0   7   45.30    1.70
   0   0  -7   54.19    2.10
   0   0   7   54.49    2.10
   0   0   7   52.49    1.90
  -1   0  -7   46.00    2.00
   1   0   7   52.39    1.80
   1   0   7   49.50    2.00
  -2   0  -7   97.79    3.40
   2   0   7   93.49    3.60
   2   0   7  104.39    3.10
  -3   0  -7  476.05   14.00
   3   0   7  477.35   13.80
   3   0   7  497.65   14.10
  -4   0  -7 1344.57   38.80
   4   0   7 1396.96   38.80
  -5   0  -7  320.17    9.80
   5   0   7  330.77    9.80
  -6   0  -7    1.90    0.70
   6   0   7    2.10    0.60
  -7   0  -7    0.10    0.70
  -8   0  -7    4.20    1.00
  -9   0  -7    2.00    0.90
 -10   0  -7    0.10    0.90
 -11   0  -7  358.36   11.30
 -12   0  -7  291.57    9.60
 -18   1   7   99.89    4.30
 -17   1   7    0.30    0.90
 -16   1   7  170.28    5.70
 -15   1   7   18.80    1.90
 -14   1   7    9.50    1.70
 -14   1   7   15.60    1.40
 -13   1   7  246.58    7.50
 -13   1   7  248.98    7.60
 -12   1   7   39.90    1.80
 -12   1   7   39.80    2.00
 -11   1   7  469.45   13.70
 -11   1   7  478.85   13.80
 -10   1   7  120.59    4.00
 -10   1   7  117.19    3.70
   9  -1  -7  228.18    6.90
  -9   1   7  239.38    7.10
  -9   1   7  232.58    6.90
   8  -1  -7 1589.44   44.90
  -8   1   7 1570.64   45.20
  -8   1   7 1586.64   44.90
   7  -1  -7    7.50    0.70
  -7   1   7   10.10    1.00
  -7   1   7    7.50    0.70
   6  -1  -7 1391.16   40.20
  -6   1   7 1406.26   40.00
  -6   1   7 1451.65   40.10
   5  -1  -7    7.30    0.60
  -5   1   7    5.10    0.70
   4  -1  -7   10.40    0.70
  -4   1   7   10.90    1.00
  -4   1   7   12.00    0.80
   3  -1  -7    1.10    0.30
  -3   1   7    1.70    0.40
  -3   1   7    1.70    0.40
   2  -1  -7  479.85   13.80
  -2   1   7  484.15   13.80
  -2   1   7  490.15   13.90
   1  -1  -7  107.69    3.50
  -1   1   7  113.89    3.60
  -1   1   7  115.19    3.50
   0  -1  -7  629.14   18.20
   0   1   7  653.93   18.20
   0   1   7  629.74   18.20
  -1  -1  -7   28.90    1.60
   1   1   7   29.00    1.50
   1   1   7   30.70    1.40
  -2  -1  -7   96.59    3.30
   2   1   7   91.79    3.50
   2   1   7   95.69    3.10
  -3  -1  -7   17.00    1.50
   3   1   7   17.70    1.40
   3   1   7   17.40    1.20
  -4  -1  -7  174.18    5.60
   4   1   7  173.88    5.30
   4   1   7  175.88    5.50
  -5  -1  -7  153.18    5.10
   5   1   7  157.08    5.10
  -6  -1  -7    9.70    1.70
  -7  -1  -7  215.08    7.00
  -8  -1  -7    6.40    1.00
  -9  -1  -7   50.49    3.00
 -10  -1  -7    0.20    0.90
 -11  -1  -7   27.50    2.80
 -12  -1  -7  122.59    5.30
 -18   2   7  232.48    7.70
 -17   2   7   17.30    2.50
 -16   2   7    3.30    0.90
 -15   2   7  195.58    6.20
 -15   2   7  190.88    6.10
 -14   2   7   54.19    2.20
 -14   2   7   46.40    2.50
 -13   2   7   63.29    2.40
 -13   2   7   54.99    2.60
 -12   2   7   26.90    1.40
 -12   2   7   22.80    1.70
 -11   2   7  964.30   27.30
 -11   2   7  962.20   27.40
 -10   2   7  329.67    9.70
 -10   2   7  342.27    9.90
   9  -2  -7   56.49    2.00
  -9   2   7   48.60    2.10
  -9   2   7   58.79    2.20
   8  -2  -7  107.79    3.40
  -8   2   7  112.09    3.40
  -8   2   7  111.49    3.60
   7  -2  -7  127.09    3.90
  -7   2   7  128.89    4.10
  -7   2   7  130.09    3.90
   6  -2  -7  592.34   17.10
  -6   2   7  607.54   17.20
  -6   2   7  617.14   17.40
   5  -2  -7  395.86   11.40
  -5   2   7  408.46   11.70
  -5   2   7  404.36   11.50
   4  -2  -7  399.66   11.60
  -4   2   7  409.56   11.70
  -4   2   7  420.16   11.90
   3  -2  -7 1010.90   28.20
  -3   2   7  980.30   28.10
  -3   2   7  996.70   28.20
   2  -2  -7  992.30   28.80
  -2   2   7 1058.29   29.20
  -2   2   7 1021.80   28.90
   1  -2  -7  324.97    9.60
  -1   2   7  337.27    9.70
  -1   2   7  341.57    9.80
   0  -2  -7  252.67    7.40
   0  -2  -7  246.28    7.40
   0   2   7  261.07    7.40
   0   2   7  244.58    7.50
  -1  -2  -7  716.63   20.80
  -1  -2  -7  736.43   20.90
   1   2   7  751.72   20.90
   1   2   7  729.53   21.00
  -2  -2  -7  923.71   26.00
   2   2   7  899.31   26.00
   2   2   7  918.81   26.00
  -3  -2  -7  544.25   15.90
   3   2   7  552.64   15.90
   3   2   7  557.14   15.90
  -4  -2  -7  177.48    5.60
   4   2   7  181.18    5.60
   4   2   7  174.88    5.50
  -5  -2  -7   94.19    3.50
  -6  -2  -7  473.45   14.40
  -7  -2  -7   35.50    2.40
  -8  -2  -7  553.84   16.40
  -9  -2  -7   12.70    2.20
 -10  -2  -7   50.09    3.10
 -11  -2  -7   58.59    3.60
 -18   3   7   -1.70    1.10
 -17   3   7   35.00    2.90
 -16   3   7  151.98    5.40
 -15   3   7    6.80    1.00
 -15   3   7    8.80    1.40
 -14   3   7  273.57    8.10
 -14   3   7  266.47    8.30
 -13   3   7  201.28    6.50
 -13   3   7  211.38    6.30
 -12   3   7   82.19    2.70
 -12   3   7   69.59    2.90
 -11   3   7  129.99    4.40
 -11   3   7  138.89    4.20
 -10   3   7   44.20    2.00
 -10   3   7   41.80    1.70
  -9   3   7   28.40    1.30
  -9   3   7   30.20    1.60
   8  -3  -7   32.30    1.30
  -8   3   7   34.90    1.60
  -8   3   7   31.80    1.30
   7  -3  -7  385.36   11.40
  -7   3   7  403.26   11.40
  -7   3   7  406.06   11.60
   6  -3  -7  400.56   11.50
  -6   3   7  390.56   11.70
  -6   3   7  419.76   11.50
   5  -3  -7  864.71   24.10
  -5   3   7  887.11   24.10
  -5   3   7  810.62   24.30
   4  -3  -7    7.10    1.00
   4  -3  -7    7.70    0.60
  -4   3   7    8.80    0.80
  -4   3   7    6.80    1.00
   3  -3  -7  163.28    4.90
   3  -3  -7  180.78    5.20
  -3   3   7  169.88    5.30
  -3   3   7  161.98    5.00
   2  -3  -7  343.87    9.80
   2  -3  -7  320.77    9.60
  -2   3   7  343.67    9.90
  -2   3   7  328.07    9.60
   1  -3  -7  361.56   10.50
   1  -3  -7  372.26   10.60
  -1   3   7  348.77   10.70
  -1   3   7  372.66   10.50
   0  -3  -7  281.57    8.20
   0  -3  -7  282.77    8.20
   0   3   7  270.17    8.40
   0   3   7  285.47    8.20
  -1  -3  -7  646.24   18.40
  -1  -3  -7  637.74   18.30
   1   3   7  636.54   18.50
   1   3   7  651.53   18.40
  -2  -3  -7  210.78    6.20
  -2  -3  -7  206.48    6.40
   2   3   7  212.38    6.50
   2   3   7  208.18    6.40
  -3  -3  -7   12.20    1.40
  -3  -3  -7   12.60    1.10
   3   3   7   11.50    1.50
   3   3   7   15.20    1.40
  -4  -3  -7  471.95   13.60
  -4  -3  -7  444.06   13.30
   4   3   7  475.75   13.60
  -5  -3  -7    3.70    0.50
  -5  -3  -7    3.80    0.80
   5   3   7    2.70    0.70
  -6  -3  -7  117.39    4.80
  -7  -3  -7   57.39    2.90
  -8  -3  -7    3.20    0.90
  -9  -3  -7   25.60    2.50
 -10  -3  -7   -0.60    1.00
 -11  -3  -7   44.50    3.30
 -18   4   7   21.80    3.10
 -17   4   7   18.90    2.80
 -16   4   7   73.49    3.50
 -15   4   7  121.99    4.60
 -15   4   7  124.59    4.20
 -14   4   7  225.58    7.30
 -14   4   7  229.58    7.00
 -13   4   7   35.30    2.40
 -13   4   7   39.50    1.80
 -12   4   7 1050.09   30.40
 -12   4   7 1079.09   30.10
 -11   4   7   46.70    1.90
 -11   4   7   46.70    2.30
 -10   4   7   76.39    2.90
 -10   4   7   71.49    2.50
  -9   4   7   91.19    2.80
  -9   4   7   87.29    3.20
   8  -4  -7   98.89    3.00
  -8   4   7  100.99    3.00
  -8   4   7   92.89    3.40
   7  -4  -7   51.29    2.00
   7  -4  -7   48.70    1.70
  -7   4   7   50.29    1.70
  -7   4   7   47.60    2.10
   6  -4  -7    2.50    0.50
  -6   4   7    2.60    0.50
   5  -4  -7    2.60    0.50
  -5   4   7    1.10    0.40
  -5   4   7    2.00    0.30
   4  -4  -7  522.05   15.30
  -4   4   7  539.55   15.40
  -4   4   7  564.64   15.70
   3  -4  -7   17.60    0.80
   3  -4  -7   14.40    1.30
  -3   4   7   16.60    1.30
  -3   4   7   14.70    1.00
   2  -4  -7  272.07    8.00
   2  -4  -7  290.87    8.20
  -2   4   7  267.07    8.40
  -2   4   7  278.17    8.10
   1  -4  -7 1655.83   46.80
   1  -4  -7 1739.03   47.30
  -1   4   7 1705.43   46.90
  -1   4   7 1540.55   47.00
   0  -4  -7  383.96   11.00
   0  -4  -7  376.96   10.90
   0   4   7  380.16   10.90
   0   4   7  369.76   11.20
  -1  -4  -7    4.30    0.50
  -1  -4  -7    3.20    0.50
   1   4   7    3.30    0.50
   1   4   7    3.50    0.70
  -2  -4  -7  361.86   10.50
  -2  -4  -7  359.36   10.60
   2   4   7  358.96   10.60
   2   4   7  362.06   10.80
  -3  -4  -7  270.57    8.00
  -3  -4  -7  267.07    8.10
   3   4   7  272.17    8.30
  -4  -4  -7 1470.35   41.40
  -4  -4  -7 1413.16   41.20
   4   4   7 1504.45   41.60
  -5  -4  -7  350.06   10.30
  -5  -4  -7  333.57   10.00
   5   4   7  346.07   10.40
  -6  -4  -7   36.30    1.90
  -6  -4  -7   43.70    2.50
   6   4   7   42.40    2.50
  -7  -4  -7  139.69    5.00
  -8  -4  -7  293.97    9.30
  -9  -4  -7    0.00    1.00
 -10  -4  -7   29.00    2.90
 -18   5   7  244.48    8.20
 -18   5   7  237.18    8.00
 -17   5   7   61.09    3.60
 -16   5   7   21.70    2.10
 -16   5   7   22.60    2.70
 -15   5   7    6.40    0.80
 -15   5   7    7.70    1.10
 -14   5   7  486.85   14.30
 -14   5   7  497.95   14.70
 -13   5   7  349.17   10.20
 -13   5   7  349.57   10.60
 -12   5   7  710.53   20.10
 -12   5   7  698.13   20.40
 -11   5   7  703.23   20.20
 -11   5   7  720.13   20.60
 -10   5   7  159.18    5.30
 -10   5   7  161.98    4.80
  -9   5   7   25.70    1.10
  -9   5   7   24.70    1.70
   8  -5  -7   19.80    1.40
  -8   5   7   18.60    0.90
  -8   5   7   17.50    1.50
   7  -5  -7    9.10    1.10
   7  -5  -7    9.30    0.70
  -7   5   7    9.00    0.70
  -7   5   7   10.00    1.30
   6  -5  -7  695.63   19.20
   6  -5  -7  653.43   18.80
  -6   5   7  658.83   18.90
   5  -5  -7    1.00    0.50
   5  -5  -7    1.30    0.20
  -5   5   7    1.20    0.50
   4  -5  -7  863.21   25.40
   4  -5  -7  957.90   25.70
  -4   5   7  908.51   25.50
  -4   5   7  877.51   25.90
   3  -5  -7 1227.08   33.30
   3  -5  -7 1134.09   33.10
  -3   5   7 1170.58   33.50
  -3   5   7 1168.88   33.10
   2  -5  -7    0.90    0.40
   2  -5  -7    0.30    0.30
  -2   5   7    0.10    0.50
  -2   5   7   -0.20    0.40
   1  -5  -7  498.35   14.30
   1  -5  -7  530.95   14.50
  -1   5   7  496.75   14.30
  -1   5   7  475.15   14.70
   0  -5  -7  183.18    5.60
   0  -5  -7  183.28    5.50
   0   5   7  178.58    5.90
   0   5   7  177.78    5.50
  -1  -5  -7    6.80    1.20
  -1  -5  -7    8.30    1.10
   1   5   7    5.60    0.80
  -2  -5  -7   80.49    2.90
  -2  -5  -7   76.59    2.80
   2   5   7   78.49    3.30
  -3  -5  -7  147.29    4.90
  -3  -5  -7  153.58    5.00
   3   5   7  158.18    5.30
  -4  -5  -7  110.09    3.90
   4   5   7  107.79    4.20
  -5  -5  -7  134.39    4.70
   5   5   7  132.99    4.90
  -6  -5  -7    7.80    1.40
  -6  -5  -7    7.60    1.00
   6   5   7   12.20    2.30
  -7  -5  -7   34.90    2.50
  -7  -5  -7   31.70    1.90
  -8  -5  -7  138.19    5.10
  -9  -5  -7   82.29    3.90
 -10  -5  -7   28.90    3.00
 -18   6   7  196.18    6.90
 -17   6   7   23.90    2.60
 -17   6   7   23.70    3.80
 -16   6   7   26.10    2.00
 -16   6   7   28.80    2.90
 -15   6   7  595.64   17.50
 -15   6   7  620.34   18.00
 -14   6   7   14.40    2.30
 -14   6   7    8.90    1.40
 -13   6   7  456.15   13.10
 -13   6   7  446.86   13.60
 -12   6   7   24.00    2.10
 -12   6   7   25.30    1.40
 -11   6   7  106.89    4.00
 -11   6   7  106.59    3.40
  10  -6  -7  288.67    8.70
 -10   6   7  284.97    8.80
 -10   6   7  285.47    8.30
   9  -6  -7   36.30    2.00
  -9   6   7   36.60    2.10
  -9   6   7   38.70    1.40
   8  -6  -7   59.89    2.40
  -8   6   7   55.59    1.90
  -8   6   7   58.69    2.60
   7  -6  -7  419.26   11.50
  -7   6   7  366.56   11.60
  -7   6   7  382.66   11.10
   6  -6  -7    9.60    0.60
   6  -6  -7    7.70    1.20
  -6   6   7    7.10    1.40
   5  -6  -7   56.59    2.30
  -5   6   7   52.79    2.50
  -5   6   7   55.79    1.80
   4  -6  -7   85.49    2.60
  -4   6   7   87.59    3.40
  -4   6   7   89.59    2.70
   3  -6  -7 1738.43   48.70
   3  -6  -7 1797.12   49.00
  -3   6   7 1758.22   49.10
  -3   6   7 1637.94   49.20
   2  -6  -7  261.27    7.60
   2  -6  -7  249.08    7.20
  -2   6   7  246.28    7.20
  -2   6   7  236.88    7.80
   1  -6  -7    1.90    0.50
  -1   6   7    3.20    0.70
   0  -6  -7   40.10    1.90
   0  -6  -7   34.10    1.70
   0   6   7   36.30    2.20
  -1  -6  -7  557.74   16.40
  -1  -6  -7  568.84   16.20
   1   6   7  570.24   16.70
  -2  -6  -7  121.99    4.10
  -2  -6  -7  125.79    4.10
   2   6   7  122.19    4.60
  -3  -6  -7    8.70    1.50
  -3  -6  -7    7.10    1.40
   3   6   7    5.50    1.00
  -4  -6  -7   17.90    1.60
  -4  -6  -7   13.30    1.70
   4   6   7   17.70    2.30
  -5  -6  -7  382.66   11.30
  -5  -6  -7  364.96   11.10
   5   6   7  384.66   11.60
  -6  -6  -7  445.76   13.00
  -6  -6  -7  410.86   12.70
   6   6   7  451.05   13.30
  -7  -6  -7   73.99    3.20
  -7  -6  -7   88.79    3.70
  -8  -6  -7    5.50    1.10
  -9  -6  -7   72.59    3.80
 -18   7   7   68.79    3.80
 -18   7   7   65.69    4.50
 -17   7   7  258.27    8.40
 -17   7   7  258.77    8.80
 -16   7   7   11.20    1.80
 -16   7   7   17.20    1.80
 -16   7   7   18.00    2.30
 -15   7   7  249.18    7.60
 -15   7   7  250.27    8.90
 -14   7   7  211.78    6.40
 -14   7   7  210.28    7.20
 -13   7   7  761.72   22.20
 -13   7   7  754.72   21.60
 -12   7   7  299.67    8.70
 -12   7   7  295.97    9.40
  11  -7  -7  374.66   10.80
 -11   7   7  331.07   10.50
 -11   7   7  376.66   11.10
  10  -7  -7   29.30    1.90
 -10   7   7   28.30    2.10
 -10   7   7   30.00    1.30
   9  -7  -7    1.50    0.60
  -9   7   7    2.30    0.30
  -9   7   7    2.30    0.80
   8  -7  -7  296.97    8.60
  -8   7   7  281.47    8.90
  -8   7   7  272.47    8.10
   7  -7  -7   18.00    1.50
  -7   7   7   13.70    1.10
  -7   7   7   16.80    1.70
   6  -7  -7   29.70    1.70
  -6   7   7   29.50    2.00
   5  -7  -7  266.87    7.90
  -5   7   7  253.77    8.20
   4  -7  -7   74.59    2.80
   3  -7  -7   42.70    2.00
  -3   7   7   40.40    2.40
   2  -7  -7   13.80    0.90
  -2   7   7   16.00    1.80
   1  -7  -7  170.98    5.50
   1  -7  -7  162.48    5.00
  -1   7   7  172.38    5.80
   0  -7  -7  140.59    4.70
   0  -7  -7  140.19    4.40
   0   7   7  138.49    5.10
  -1  -7  -7  196.38    5.90
  -1  -7  -7  191.08    6.10
   1   7   7  190.08    6.60
  -2  -7  -7  592.94   17.00
  -2  -7  -7  588.14   17.10
   2   7   7  585.44   17.50
  -3  -7  -7   25.40    1.90
  -3  -7  -7   28.20    2.00
   3   7   7   25.40    2.60
  -4  -7  -7   13.90    1.80
  -4  -7  -7   10.70    1.80
   4   7   7   14.30    2.60
  -5  -7  -7    6.30    1.50
  -5  -7  -7    4.00    0.80
   5   7   7    3.70    1.20
  -6  -7  -7    2.80    1.00
  -6  -7  -7    2.40    0.90
   6   7   7    2.30    1.20
  -7  -7  -7   56.29    3.10
  -7  -7  -7   69.99    3.40
  -8  -7  -7    0.20    1.10
 -18   8   7    3.00    1.20
 -18   8   7    1.90    1.60
 -17   8   7  307.87   10.10
 -17   8   7  287.67    9.40
 -16   8   7   58.39    2.60
 -16   8   7   55.49    3.80
 -16   8   7   51.19    3.10
 -15   8   7    2.50    1.10
 -15   8   7    1.70    1.00
 -15   8   7    3.30    0.70
 -14   8   7   19.50    2.70
 -14   8   7   23.80    2.10
 -14   8   7   22.60    1.60
 -13   8   7   58.09    2.20
  12  -8  -7  139.99    4.90
 -12   8   7  146.79    4.50
 -12   8   7  149.29    5.40
  11  -8  -7   70.89    3.00
 -11   8   7   69.49    3.40
 -11   8   7   70.09    2.30
  10  -8  -7   23.00    1.80
 -10   8   7   25.00    2.20
 -10   8   7   21.10    1.10
   9  -8  -7   34.50    2.10
  -9   8   7   37.00    1.40
  -9   8   7   36.50    2.40
   8  -8  -7  140.29    4.60
  -8   8   7  129.99    4.90
   7  -8  -7  384.26   11.30
  -7   8   7  373.46   11.60
   6  -8  -7    3.80    0.70
  -6   8   7    3.20    0.70
   5  -8  -7   15.50    1.50
  -5   8   7   17.10    1.90
   4  -8  -7  100.39    3.60
  -4   8   7  102.59    4.10
  -3   8   7   46.80    2.70
   2  -8  -7   36.80    2.00
   2  -8  -7   32.80    1.30
  -2   8   7   34.30    2.40
   1  -8  -7  734.03   21.10
   1  -8  -7  720.83   20.60
  -1   8   7  727.93   21.50
   0  -8  -7  140.59    4.30
   0  -8  -7  133.59    4.70
   0   8   7  135.99    5.20
  -1  -8  -7  165.28    5.00
  -1  -8  -7  164.08    5.40
   1   8   7  150.58    5.90
  -2  -8  -7   87.99    3.50
  -2  -8  -7   93.49    3.30
   2   8   7   90.79    4.10
  -3  -8  -7  116.19    4.40
  -3  -8  -7  119.09    4.20
   3   8   7  124.09    5.00
  -4  -8  -7  223.68    6.90
  -4  -8  -7  216.28    7.00
   4   8   7  217.98    7.70
  -5  -8  -7    3.10    1.00
  -5  -8  -7    2.40    0.90
   5   8   7    1.60    1.30
  -6  -8  -7  186.08    6.20
  -6  -8  -7  170.28    6.00
   6   8   7  179.28    6.80
  -7  -8  -7  284.57    9.10
  -8  -8  -7  215.88    7.40
 -18   9   7   42.80    3.60
 -18   9   7   53.89    4.60
 -17   9   7    1.80    1.50
 -17   9   7    0.60    0.90
 -17   9   7    0.40    1.10
 -16   9   7   18.10    2.40
 -16   9   7   17.90    3.40
 -16   9   7   11.30    1.90
 -15   9   7    1.70    0.70
 -15   9   7    1.20    1.20
 -15   9   7    2.20    0.90
 -14   9   7   41.60    3.30
 -14   9   7   41.90    2.40
 -14   9   7   42.40    2.00
  13  -9  -7  254.47    8.30
 -13   9   7  265.67    7.80
 -13   9   7  263.07    8.00
 -13   9   7  272.97    8.80
  12  -9  -7  103.09    3.90
 -12   9   7  105.99    4.40
 -12   9   7   92.79    3.50
  11  -9  -7  932.41   26.10
 -11   9   7  892.31   25.70
 -11   9   7  888.11   25.60
 -11   9   7  915.31   26.60
  10  -9  -7  163.18    5.30
 -10   9   7  166.78    4.70
 -10   9   7  135.49    7.10
 -10   9   7  159.98    4.80
   9  -9  -7   88.79    3.40
  -9   9   7   84.79    5.20
   8  -9  -7   78.49    3.10
  -8   9   7   73.29    3.50
  -7   9   7  372.46   11.60
   6  -9  -7    1.20    0.60
  -6   9   7    0.30    0.80
   5  -9  -7  247.88    7.50
  -5   9   7  230.78    7.90
   4  -9  -7   60.99    2.70
  -4   9   7   56.19    3.10
   3  -9  -7  994.80   28.40
  -3   9   7  983.90   28.90
   2  -9  -7  184.48    6.10
  -2   9   7  184.88    6.60
   1  -9  -7  137.19    4.80
   1  -9  -7  135.89    4.20
  -1   9   7  136.99    5.30
   0  -9  -7  137.59    4.80
   0  -9  -7  141.99    4.40
   0   9   7  138.89    5.40
  -1  -9  -7    3.00    0.70
  -1  -9  -7    1.40    0.70
   1   9   7    1.00    1.00
  -2  -9  -7   61.59    2.60
  -2  -9  -7   57.89    2.90
   2   9   7   55.99    3.70
  -3  -9  -7    2.90    0.90
  -3  -9  -7    2.90    0.80
   3   9   7    2.00    1.80
  -4  -9  -7   10.20    1.20
  -5  -9  -7  411.96   12.00
  -5  -9  -7  381.06   12.00
  -6  -9  -7    5.10    1.20
  -6  -9  -7    2.60    1.20
   6   9   7    3.10    2.50
  -7  -9  -7    1.80    1.20
 -17  10   7   29.50    4.20
 -17  10   7   24.00    2.60
 -17  10   7   36.70    3.20
 -16  10   7   17.50    2.00
 -16  10   7   17.90    3.50
 -16  10   7   17.90    2.60
 -15  10   7   47.60    2.80
 -15  10   7   50.19    3.80
 -15  10   7   46.10    2.30
  14 -10  -7  112.59    4.60
 -14  10   7  125.09    4.00
 -14  10   7  122.49    4.40
 -14  10   7  129.79    5.40
  13 -10  -7  121.79    4.60
 -13  10   7  117.79    4.20
 -13  10   7  124.09    5.20
 -13  10   7  124.19    3.90
  12 -10  -7  544.15   15.90
 -12  10   7  546.45   16.40
 -12  10   7  526.35   15.40
 -12  10   7  531.05   15.30
  11 -10  -7  149.88    5.10
 -11  10   7  140.29    4.60
 -11  10   7  150.18    5.70
 -11  10   7  151.58    4.40
  10 -10  -7    5.40    0.80
 -10  10   7    6.40    1.20
   9 -10  -7    3.20    0.70
  -9  10   7    3.50    1.00
   8 -10  -7   35.20    2.20
  -8  10   7   37.40    2.80
   7 -10  -7  422.06   12.50
  -7  10   7  408.86   12.90
  -6  10   7   38.90    2.80
  -5  10   7   11.70    2.20
   4 -10  -7    2.90    0.80
  -4  10   7    1.10    0.90
   3 -10  -7  636.14   18.60
  -3  10   7  635.04   19.20
   2 -10  -7  102.69    3.90
  -2  10   7   96.79    4.50
   1 -10  -7   88.99    3.60
  -1  10   7   93.99    4.30
   0 -10  -7  112.69    3.60
   0 -10  -7  106.99    4.10
   0 -10  -7  110.39    3.40
   0  10   7  109.39    4.90
  -1 -10  -7  332.57   10.60
  -1 -10  -7  337.97   10.00
  -1 -10  -7  360.46   10.20
   1  10   7  353.26   11.30
  -2 -10  -7    2.10    0.80
  -2 -10  -7   -0.30    0.80
  -2 -10  -7    1.20    0.50
   2  10   7    0.80    1.30
  -3 -10  -7   54.29    2.70
  -3 -10  -7   47.00    3.00
  -3 -10  -7   50.49    2.30
   3  10   7   54.79    4.00
  -4 -10  -7   45.50    2.80
  -4 -10  -7   46.50    2.30
  -4 -10  -7   38.40    3.00
   4  10   7   48.40    4.00
  -5 -10  -7  210.28    6.80
  -5 -10  -7  200.58    6.50
  -5 -10  -7  193.68    7.00
   5  10   7  212.58    7.90
  -6 -10  -7    3.20    1.20
   6  10   7    1.40    1.80
 -17  11   7   97.49    4.70
 -17  11   7  102.19    5.80
 -16  11   7   31.70    2.70
 -16  11   7   29.30    4.10
 -16  11   7   32.90    4.80
 -15  11   7   14.90    2.40
 -15  11   7    8.60    1.70
 -15  11   7   11.40    1.70
 -14  11   7    0.70    0.90
 -14  11   7    0.40    1.20
 -14  11   7   -0.30    0.60
  13 -11  -7   31.80    3.20
 -13  11   7   26.10    2.10
 -13  11   7   28.40    3.10
  12 -11  -7   42.80    2.70
 -12  11   7   47.30    1.80
 -12  11   7   45.60    3.40
 -12  11   7   45.70    2.20
  11 -11  -7   42.00    2.60
 -11  11   7   42.80    3.20
  10 -11  -7  218.08    7.10
 -10  11   7  222.58    7.70
   9 -11  -7  198.98    6.60
  -9  11   7  208.88    7.30
   8 -11  -7   86.49    3.50
  -8  11   7   87.79    4.20
   7 -11  -7    0.10    0.70
  -7  11   7   -0.10    1.00
   6 -11  -7    2.60    0.90
  -6  11   7    1.60    1.10
   5 -11  -7  164.68    5.70
  -5  11   7  168.08    6.40
   4 -11  -7  311.27    9.60
  -4  11   7  303.57   10.20
   3 -11  -7   46.30    2.60
  -3  11   7   46.10    3.40
   2 -11  -7  273.67    8.70
  -2  11   7  273.07    9.30
   1 -11  -7   80.69    3.50
  -1  11   7   87.99    4.40
   0 -11  -7   70.69    3.40
   0 -11  -7   79.79    2.60
   0 -11  -7   84.39    2.80
   0  11   7   80.89    4.30
  -1 -11  -7   28.30    2.50
  -1 -11  -7   35.10    2.00
  -1 -11  -7   33.90    1.60
   1  11   7   29.50    3.50
  -2 -11  -7   72.19    3.00
  -2 -11  -7   73.49    2.70
  -2 -11  -7   64.99    3.50
   2  11   7   77.59    4.50
  -3 -11  -7   68.99    3.80
  -3 -11  -7   77.69    2.90
  -3 -11  -7   79.89    3.40
   3  11   7   84.29    4.80
  -4 -11  -7    4.00    1.10
  -4 -11  -7    2.00    1.50
   4  11   7    1.80    1.70
  -5 -11  -7   95.89    4.30
   5  11   7   95.89    5.80
 -16  12   7  115.49    4.70
 -16  12   7  110.89    6.00
 -15  12   7   86.29    3.80
 -15  12   7   94.99    5.20
 -14  12   7  192.08    7.50
 -14  12   7  201.78    6.30
 -14  12   7  188.98    6.20
 -13  12   7   26.10    1.50
 -13  12   7   28.80    2.00
 -13  12   7   21.10    3.20
 -12  12   7    7.40    1.40
 -11  12   7  160.68    6.30
 -10  12   7    0.90    1.10
  -9  12   7  119.49    5.20
  -8  12   7    8.90    1.40
  -7  12   7    1.10    1.00
  -6  12   7  396.06   12.80
  -5  12   7  363.86   11.90
  -4  12   7   -1.40    0.90
  -3  12   7    8.20    1.50
  -2  12   7    0.20    1.20
  -1  12   7  281.17    9.70
   0  12   7   23.60    3.40
  -1 -12  -7   -0.80    0.70
  -1 -12  -7   -0.40    0.60
   1  12   7   -0.40    1.30
  -2 -12  -7  110.69    4.00
   2  12   7  104.59    5.70
  -3 -12  -7  125.79    4.60
   3  12   7  126.09    6.20
   4  12   7   -2.30    1.80
 -16  13   7    1.20    1.90
 -15  13   7  106.09    5.90
 -14  13   7   48.60    4.40
 -13  13   7   -0.90    1.30
 -12  13   7    4.80    1.40
 -11  13   7  341.07   11.40
 -10  13   7  139.69    5.90
  -9  13   7   54.29    3.70
  -8  13   7  629.74   19.40
  -7  13   7  199.08    7.50
  -6  13   7    9.50    1.50
  -5  13   7   -1.00    1.20
  -4  13   7    3.70    1.30
  -3  13   7  870.51   26.20
  -2  13   7   96.09    5.00
  -1  13   7   10.90    1.70
   0  13   7  125.09    6.00
   1  13   7  228.78    8.90
   2  13   7   35.60    4.50
 -15  14   7   54.89    5.00
 -14  14   7   -0.50    1.60
 -13  14   7    3.40    1.60
 -12  14   7    1.90    1.30
 -11  14   7   -0.40    1.30
 -10  14   7   60.79    4.10
  -9  14   7   17.30    3.00
  -8  14   7  113.69    5.30
  -7  14   7   39.50    3.40
  -6  14   7  106.89    5.10
  -5  14   7   45.10    3.60
  -4  14   7   53.39    4.00
  -3  14   7    9.20    1.60
  -2  14   7   21.20    3.50
  -1  14   7   -2.00    1.50
   0  14   7   26.90    4.20
   1  14   7   50.89    5.00
 -13  15   7   27.80    4.10
 -12  15   7    3.90    1.60
 -11  15   7   17.80    3.30
 -10  15   7  147.39    6.50
  -9  15   7  143.69    6.30
  -8  15   7   63.99    4.20
  -7  15   7    9.60    1.50
  -6  15   7   -2.20    1.20
  -5  15   7  101.89    5.30
  -4  15   7   72.39    4.70
  -3  15   7   22.50    3.70
  -2  15   7  362.56   12.60
  -1  15   7  144.59    7.00
 -12  16   7    6.90    1.80
 -11  16   7    7.50    1.90
 -10  16   7    7.80    1.70
  -9  16   7   60.69    4.40
  -8  16   7    0.80    1.30
  -7  16   7   18.60    3.30
  -6  16   7    4.60    1.40
  -5  16   7   97.79    5.50
  -4  16   7    2.00    1.80
  -3  16   7   95.89    5.70
   3  18  -8   13.20    1.90
   2  18  -8   51.89    2.50
   1  18  -8   40.60    2.20
   0  18  -8   20.70    1.70
  -1  18  -8   35.40    2.00
   2 -18   8    3.00    1.70
  -3  18  -8   85.09    3.20
  -4  18  -8   -0.20    0.70
  -5  18  -8   20.70    2.10
  -6  18  -8   50.29    2.80
   5  17  -8    1.40    0.80
   4  17  -8    0.90    0.70
  -4 -17   8    0.00    0.90
   3  17  -8  123.39    4.10
  -3 -17   8  109.29    4.40
   2  17  -8   32.00    1.90
  -2 -17   8   28.80    2.50
   1  17  -8    0.70    0.60
  -1 -17   8    0.60    0.80
   0  17  -8    7.90    1.40
   0 -17   8    6.40    1.00
  -1  17  -8  168.78    5.20
   1 -17   8  157.38    5.50
  -2  17  -8   13.70    1.60
   2 -17   8   18.00    2.40
  -3  17  -8   10.10    1.60
   3 -17   8    7.20    1.10
  -4  17  -8  197.28    6.20
   4 -17   8  189.78    6.50
  -5  17  -8  470.45   13.50
   5 -17   8  439.66   13.60
  -6  17  -8  148.19    5.10
   6 -17   8  139.99    5.40
  -7  17  -8  119.19    4.60
  -8  17  -8    4.10    1.10
   6  16  -8   50.29    2.60
   5  16  -8   41.10    2.20
  -5 -16   8   41.70    2.50
   4  16  -8   41.80    2.10
  -4 -16   8   38.70    2.40
   3  16  -8   26.50    1.70
  -3 -16   8   23.50    2.10
   2  16  -8    4.20    0.70
  -2 -16   8    3.70    0.80
   1  16  -8   12.80    1.60
  -1 -16   8   13.50    1.80
   0 -16   8  203.38    6.50
  -1  16  -8  103.99    4.40
   1 -16   8  110.29    4.00
   2 -16   8    0.60    0.80
  -3  16  -8   26.50    1.80
   3 -16   8   28.50    2.30
  -4  16  -8    3.80    0.80
   4 -16   8    3.90    0.90
  -5  16  -8  143.19    4.80
   5 -16   8  137.39    5.00
  -6  16  -8   89.69    3.60
   6 -16   8   83.99    3.80
  -7  16  -8   73.09    3.40
   7 -16   8   70.89    4.00
  -8  16  -8  104.99    4.40
  -9  16  -8   88.79    4.20
   7  15  -8  131.19    4.60
   6  15  -8  449.86   13.20
  -6 -15   8  440.96   13.20
   5  15  -8    6.30    0.80
  -5 -15   8    5.40    0.80
   4  15  -8   10.30    1.30
  -4 -15   8    9.40    1.60
   3  15  -8   18.00    1.40
  -3 -15   8   18.20    1.70
   2  15  -8  354.66   11.60
  -2 -15   8  399.26   11.20
   1  15  -8  158.58    4.90
  -1 -15   8  153.58    5.10
   0  15  -8    3.10    0.60
   0 -15   8    4.30    0.80
  -1  15  -8   15.90    1.40
   1 -15   8   18.20    1.80
  -2  15  -8  107.09    3.70
   2 -15   8  105.29    3.90
  -3  15  -8  370.36   11.50
   3 -15   8  380.76   11.30
  -4  15  -8  279.87    8.50
   4 -15   8  286.57   10.40
   4 -15   8  273.97    8.60
  -5  15  -8   93.69    3.50
   5 -15   8   91.39    3.70
   5 -15   8   87.89    4.70
  -6  15  -8    0.10    0.80
   6 -15   8   -0.20    1.40
   6 -15   8    0.10    0.80
  -7  15  -8    0.70    0.90
   7 -15   8    0.70    1.00
   7 -15   8   -0.50    1.50
  -8  15  -8   40.30    2.90
   8 -15   8   42.20    4.10
  -9  15  -8    0.30    1.10
   9 -15   8   -2.30    1.70
 -10  15  -8   90.69    4.40
   7  14  -8  120.79    4.30
  -7 -14   8  127.79    5.20
   6  14  -8   35.60    1.90
  -6 -14   8   32.80    2.00
   5  14  -8   32.00    1.80
  -5 -14   8   32.60    1.90
   4  14  -8    0.30    0.50
  -4 -14   8    0.40    0.60
   3  14  -8   19.80    1.40
  -3 -14   8   17.40    1.60
   2  14  -8  288.37    8.60
  -2 -14   8  288.37    8.70
   1  14  -8  197.18    6.00
  -1 -14   8  194.18    6.20
   0  14  -8   60.59    2.40
   0 -14   8   58.69    3.40
   0 -14   8   60.39    2.60
  -1  14  -8   37.80    1.80
   1 -14   8   37.40    2.90
   1 -14   8   36.80    2.10
  -2  14  -8   12.80    1.40
   2 -14   8   14.90    1.80
   2 -14   8   13.50    2.50
  -3  14  -8  469.55   13.80
   3 -14   8  472.05   13.90
   3 -14   8  478.05   14.70
   4 -14   8  121.59    4.30
   4 -14   8  122.99    5.20
  -5  14  -8    2.10    0.80
   5 -14   8    2.10    1.20
   5 -14   8    2.40    0.80
  -6  14  -8    3.60    0.90
   6 -14   8    3.60    0.90
   6 -14   8    3.80    1.30
  -7  14  -8  137.39    4.90
   7 -14   8  129.19    4.90
   7 -14   8  136.19    5.70
  -8  14  -8   -0.60    1.00
   8 -14   8    0.90    1.40
  -9  14  -8  200.88    6.80
   9 -14   8  195.98    7.30
 -10  14  -8  192.28    6.80
   8  13  -8    4.00    0.80
   7  13  -8   31.00    1.90
  -7 -13   8   32.70    1.90
   6  13  -8   73.89    2.80
  -6 -13   8   72.59    2.80
   5  13  -8  164.58    5.10
  -5 -13   8  159.18    5.20
   4  13  -8  643.44   19.10
  -4 -13   8  704.43   22.30
  -4 -13   8  656.43   19.20
   3  13  -8  159.48    4.80
  -3 -13   8  146.79    4.90
  -3 -13   8  149.99    5.90
   2  13  -8   10.60    1.10
  -2 -13   8    7.90    1.40
  -2 -13   8   13.40    2.10
   1  13  -8  318.77    9.30
  -1 -13   8  306.17   10.30
  -1 -13   8  319.57    9.40
   0  13  -8  619.74   17.90
   0 -13   8  627.84   18.90
   0 -13   8  620.74   18.00
  -1  13  -8  126.29    4.10
   1 -13   8  125.49    5.10
   1 -13   8  124.79    4.30
  -2  13  -8  872.81   25.90
   2 -13   8  935.11   26.80
   2 -13   8  918.01   26.00
  -3  13  -8  383.26   11.40
   3 -13   8  384.06   11.50
   3 -13   8  394.56   12.20
  -4  13  -8  360.76   10.80
   4 -13   8  355.06   10.80
   4 -13   8  364.46   11.50
  -5  13  -8  307.67    9.60
   5 -13   8  313.67    9.60
   5 -13   8  321.37   10.20
  -6  13  -8   32.30    2.30
   6 -13   8   32.90    2.30
   6 -13   8   36.20    3.20
  -7  13  -8   84.89    3.60
   7 -13   8   79.59    3.50
   7 -13   8   81.29    4.30
  -8  13  -8  176.98    6.10
   8 -13   8  176.18    6.50
  -9  13  -8   99.99    4.30
   9 -13   8  100.99    4.60
 -10  13  -8    0.50    1.10
 -11  13  -8   -1.10    1.10
   8  12  -8    1.80    0.60
  -8 -12   8    2.10    0.60
   7  12  -8  221.38    6.90
  -7 -12   8  225.68    6.90
   6  12  -8    0.80    0.50
  -6 -12   8    0.90    0.50
  -6 -12   8    1.00    0.80
  -5 -12   8   -0.80    0.70
  -5 -12   8    0.20    0.50
   4  12  -8   95.39    3.20
  -4 -12   8   94.99    4.30
  -4 -12   8   96.89    3.30
   3  12  -8   63.39    2.30
  -3 -12   8   63.69    2.50
  -3 -12   8   58.69    3.30
   2  12  -8   79.59    2.70
  -2 -12   8   76.29    3.70
  -2 -12   8   78.19    2.90
   1  12  -8   64.99    2.40
  -1 -12   8   61.89    2.50
  -1 -12   8   62.69    3.30
   0  12  -8  278.67    8.30
   0 -12   8  279.87    9.20
   0 -12   8  283.67    8.40
  -1  12  -8  155.38    4.90
   1 -12   8  153.58    5.70
   1 -12   8  156.58    5.00
  -2  12  -8  130.19    4.30
   2 -12   8  125.09    4.30
   2 -12   8  130.49    5.10
  -3  12  -8  162.68    5.20
   3 -12   8  155.88    5.90
   3 -12   8  159.08    5.20
  -4  12  -8  137.49    4.60
   4 -12   8  138.49    5.30
   4 -12   8  132.29    4.60
   5 -12   8  100.69    3.80
   5 -12   8   99.99    4.40
  -6  12  -8   -0.80    0.80
   6 -12   8    0.30    0.70
   6 -12   8    0.30    1.00
  -7  12  -8   25.70    2.30
   7 -12   8   27.30    2.20
   7 -12   8   26.20    2.90
  -8  12  -8  223.48    7.40
   8 -12   8  218.68    7.50
   8 -12   8  230.88    7.70
  -9  12  -8  146.69    5.50
   9 -12   8  144.29    5.50
 -10  12  -8   11.40    1.40
 -11  12  -8    0.80    1.20
   9  11  -8   43.10    2.20
  -9 -11   8   44.50    2.10
   8  11  -8  112.09    3.80
  -8 -11   8  106.49    4.80
  -8 -11   8  109.29    3.70
   7  11  -8    0.10    0.50
  -7 -11   8    0.00    0.80
  -7 -11   8   -0.10    0.50
   6  11  -8  451.55   14.30
  -6 -11   8  501.15   14.20
  -6 -11   8  511.05   15.20
   5  11  -8  177.48    5.40
  -5 -11   8  173.78    6.40
  -5 -11   8  174.58    5.50
   4  11  -8   67.09    2.40
  -4 -11   8   65.39    2.50
  -4 -11   8   64.49    3.40
   3  11  -8   88.49    3.00
  -3 -11   8   89.99    4.00
  -3 -11   8   91.09    3.10
   2  11  -8  153.38    4.80
  -2 -11   8  157.58    5.70
  -2 -11   8  158.18    4.90
   1  11  -8  712.63   20.80
  -1 -11   8  753.62   21.70
  -1 -11   8  728.23   20.90
   0  11  -8   16.10    1.20
   0 -11   8   15.40    1.40
   0 -11   8   13.90    2.00
  -1  11  -8   66.19    2.50
   1 -11   8   66.69    2.70
   1 -11   8   67.79    3.30
  -2  11  -8  725.53   21.70
   2 -11   8  776.72   22.40
   2 -11   8  774.32   21.80
  -3  11  -8 1161.98   33.50
   3 -11   8 1172.38   33.50
   3 -11   8 1203.08   34.10
  -4  11  -8   21.30    1.90
   4 -11   8   22.30    1.80
   4 -11   8   20.40    2.50
  -5  11  -8    3.40    0.90
   5 -11   8    3.10    0.70
   5 -11   8    3.60    1.10
  -6  11  -8  651.13   19.40
   6 -11   8  681.43   19.70
   6 -11   8  671.43   19.40
  -7  11  -8  135.89    4.90
   7 -11   8  136.19    4.80
   7 -11   8  136.19    5.10
  -8  11  -8   -1.30    0.90
   8 -11   8   -0.70    1.00
   8 -11   8    1.00    0.80
  -9  11  -8    2.20    1.10
   9 -11   8    2.90    1.00
 -10  11  -8  203.78    7.10
 -11  11  -8   40.20    3.10
 -12  11  -8    5.10    1.40
 -10 -10   8   73.99    4.10
   9  10  -8    0.90    0.60
  -9 -10   8    0.80    0.50
  -9 -10   8    1.10    0.90
   8  10  -8  103.99    3.60
  -8 -10   8  108.89    3.60
  -8 -10   8  102.39    4.60
  -7 -10   8   83.99    3.90
  -7 -10   8   82.59    3.00
   6  10  -8    0.50    0.40
  -6 -10   8    0.70    0.40
  -6 -10   8   -0.40    0.70
   5  10  -8    8.80    1.00
  -5 -10   8    8.80    1.70
  -5 -10   8    8.40    1.10
   4  10  -8  362.46   10.70
  -4 -10   8  371.86   10.80
  -4 -10   8  373.46   11.70
   3  10  -8   93.09    3.10
  -3 -10   8   92.49    3.90
  -3 -10   8   93.49    3.20
   2  10  -8   15.80    1.10
  -2 -10   8   17.50    1.90
  -2 -10   8   18.60    1.30
   1  10  -8   56.39    2.10
  -1 -10   8   57.29    2.30
  -1 -10   8   57.79    3.00
   0  10  -8  174.38    5.40
   0 -10   8  180.78    5.50
   0 -10   8  173.08    6.10
  -1  10  -8   13.20    1.30
   1 -10   8   13.80    1.40
   1 -10   8   14.10    1.90
  -2  10  -8  219.48    6.70
   2 -10   8  217.28    7.30
   2 -10   8  218.58    6.70
  -3  10  -8    1.10    0.60
   3 -10   8    1.20    0.80
   3 -10   8    1.60    0.60
  -4  10  -8   33.10    2.00
   4 -10   8   27.40    2.50
   4 -10   8   28.90    1.90
  -5  10  -8    2.60    0.80
   5 -10   8    3.40    1.00
   5 -10   8    3.60    0.70
  -6  10  -8  177.68    6.00
   6 -10   8  181.38    5.90
   6 -10   8  183.38    6.20
  -7  10  -8   -0.40    0.90
   7 -10   8   -0.30    0.90
   7 -10   8    0.50    0.70
  -8  10  -8  186.08    6.30
   8 -10   8  180.38    6.10
  -9  10  -8   61.39    3.30
 -10  10  -8  203.58    7.00
 -11  10  -8   45.80    3.20
 -12  10  -8   -0.10    1.20
 -12  -9   8  174.08    7.00
 -11  -9   8    3.20    1.20
 -10  -9   8  321.17   10.50
 -10  -9   8  316.67    9.50
   9   9  -8    9.20    1.30
  -9  -9   8    6.50    1.20
  -9  -9   8    9.70    1.20
   8   9  -8  504.35   14.90
  -8  -9   8  518.95   14.80
  -8  -9   8  512.85   15.70
   7   9  -8  375.66   11.20
  -7  -9   8  386.36   11.10
   6   9  -8   90.79    3.10
  -6  -9   8   90.59    3.10
   5   9  -8    0.60    0.40
  -5  -9   8    0.40    0.40
   4   9  -8  511.35   15.10
  -4  -9   8  539.85   15.10
   3   9  -8  130.79    4.10
  -3  -9   8  132.29    4.20
   2   9  -8   71.59    2.50
  -2  -9   8   71.59    3.30
  -2  -9   8   75.79    2.60
   1   9  -8  548.35   16.20
  -1  -9   8  568.04   16.30
  -1  -9   8  581.54   16.90
   0   9  -8  494.85   14.70
   0  -9   8  522.85   15.30
   0  -9   8  512.15   14.80
  -1   9  -8  695.73   20.30
   1  -9   8  713.73   20.80
   1  -9   8  717.33   20.30
  -2   9  -8  215.98    6.60
   2  -9   8  217.78    6.60
   2  -9   8  211.38    7.10
  -3   9  -8  351.66   10.50
   3  -9   8  351.66   10.80
   3  -9   8  356.16   10.50
  -4   9  -8  523.45   15.40
   4  -9   8  522.25   15.60
   4  -9   8  533.25   15.40
  -5   9  -8   29.50    2.00
   5  -9   8   23.50    2.30
   5  -9   8   30.10    1.90
  -6   9  -8   -1.20    0.70
   6  -9   8   -1.10    0.60
   6  -9   8   -0.50    1.00
  -7   9  -8    6.90    1.10
   7  -9   8    5.90    1.00
   7  -9   8    6.20    0.80
  -8   9  -8  176.38    6.10
   8  -9   8  179.28    6.00
   8  -9   8  180.98    5.80
  -9   9  -8   58.49    3.20
 -10   9  -8   37.30    2.80
 -11   9  -8   -0.70    1.00
 -12   9  -8   -1.20    1.00
 -13  -8   8  171.48    6.90
 -12  -8   8   24.70    3.10
  10   8  -8  139.69    4.70
 -10  -8   8  139.59    4.50
   9   8  -8 1257.87   36.10
  -9  -8   8 1283.87   36.00
   8   8  -8    9.50    1.20
  -8  -8   8    8.00    1.10
   7   8  -8  142.49    4.50
  -7  -8   8  143.69    4.50
   6   8  -8  247.28    7.40
  -6  -8   8  250.27    7.40
   5   8  -8    6.20    0.90
  -5  -8   8    7.50    0.90
   4   8  -8  240.68    7.30
  -4  -8   8  251.47    7.30
   3   8  -8  316.17    9.40
  -3  -8   8  327.37    9.40
   2   8  -8 1548.74   43.20
  -2  -8   8 1467.65   42.50
   1   8  -8   48.30    1.90
  -1  -8   8   50.49    2.00
   0   8  -8  117.39    3.80
   0  -8   8  121.89    3.90
  -1   8  -8  756.62   21.90
   1  -8   8  769.72   22.00
   1  -8   8  779.52   22.40
  -2   8  -8  878.71   25.30
   2  -8   8  898.81   25.70
   2  -8   8  888.71   25.40
  -3   8  -8  204.88    6.20
   3  -8   8  184.08    6.80
   3  -8   8  204.98    6.20
  -4   8  -8  491.75   14.30
   4  -8   8  494.35   14.30
   4  -8   8  477.75   14.50
  -5   8  -8   37.50    2.30
   5  -8   8   40.10    2.10
   5  -8   8   39.00    2.40
  -6   8  -8  237.98    8.60
   6  -8   8  276.47    8.20
   6  -8   8  280.37    8.20
  -7   8  -8  180.18    6.10
   7  -8   8  183.48    6.00
   7  -8   8  180.08    5.80
  -8   8  -8   77.09    3.40
   8  -8   8   69.79    3.10
  -9   8  -8   26.60    2.60
 -10   8  -8    1.30    1.00
 -11   8  -8    2.90    1.10
 -12   8  -8   47.30    3.30
 -15  -7   8    2.50    1.80
 -14  -7   8  133.09    6.00
 -11  -7   8  115.49    3.90
  10   7  -8   54.99    2.40
 -10  -7   8   52.29    2.20
  -9  -7   8   12.90    1.20
   8   7  -8   16.20    1.30
  -8  -7   8   17.80    1.20
   7   7  -8   88.89    3.00
  -7  -7   8   90.59    3.00
   6   7  -8  289.77    8.70
  -6  -7   8  300.47    8.70
   5   7  -8  570.54   16.40
  -5  -7   8  577.94   16.40
   4   7  -8  465.95   13.60
  -4  -7   8  483.25   13.70
   3   7  -8  237.08    7.10
  -3  -7   8  247.48    7.20
   2   7  -8  595.04   17.30
  -2  -7   8  618.64   17.40
   1   7  -8  503.65   14.80
  -1  -7   8  528.15   14.90
   0   7  -8   60.89    2.30
   0  -7   8   61.79    2.40
  -1   7  -8  431.96   12.70
   1  -7   8  444.36   12.80
  -2   7  -8  197.18    6.10
   2  -7   8  195.98    6.10
  -3   7  -8  749.62   21.60
   3  -7   8  750.02   21.70
   3  -7   8  752.32   21.50
  -4   7  -8   -0.20    0.60
   4  -7   8   -0.20    0.50
   4  -7   8    0.20    0.60
  -5   7  -8   33.80    2.20
   5  -7   8   37.20    2.00
   5  -7   8   37.40    2.10
  -6   7  -8  109.39    5.80
   6  -7   8  130.89    4.30
   6  -7   8  132.19    4.40
  -7   7  -8  226.78    7.40
   7  -7   8  229.58    7.20
  -8   7  -8   -0.20    0.90
   8  -7   8    0.10    0.70
  -9   7  -8    0.80    0.90
 -10   7  -8  302.27    9.70
 -11   7  -8  137.49    5.40
 -12   7  -8    2.40    1.20
 -16  -6   8  374.36   13.90
 -11  -6   8    1.30    0.50
  10   6  -8   81.29    3.00
   9   6  -8  117.29    3.90
  -9  -6   8  120.69    3.90
   8   6  -8  707.83   20.50
  -8  -6   8  721.73   20.40
   7   6  -8 1012.30   29.10
  -7  -6   8 1041.70   29.10
   6   6  -8  190.78    5.80
  -6  -6   8  197.48    5.80
   5   6  -8   15.30    1.00
  -5  -6   8   18.20    1.10
   4   6  -8  108.19    3.40
  -4  -6   8  106.89    3.40
   3   6  -8  367.56   10.80
  -3  -6   8  381.86   10.90
   2   6  -8   20.90    1.20
  -2  -6   8   22.80    1.30
   1   6  -8  781.92   22.60
  -1  -6   8  810.52   22.70
   0   6  -8   54.09    2.20
   0  -6   8   55.29    2.20
  -1   6  -8    0.90    0.50
   1  -6   8    1.30    0.50
  -2   6  -8  205.88    6.40
   2  -6   8  212.58    6.40
  -3   6  -8  131.69    4.40
   3  -6   8  132.99    4.40
  -4   6  -8    9.20    1.50
   4  -6   8   12.20    1.50
   4  -6   8   10.50    1.40
  -5   6  -8  197.18    6.20
   5  -6   8  187.48    6.00
   5  -6   8  195.38    6.10
   6  -6   8   56.79    2.60
  -7   6  -8   14.40    2.10
   7  -6   8   19.50    1.80
  -8   6  -8  263.57    8.30
   8  -6   8  253.67    8.10
  -9   6  -8    6.20    1.10
 -10   6  -8  313.07   10.00
 -11   6  -8    1.20    1.00
 -12   6  -8    1.10    1.10
 -12  -5   8  381.96   11.20
 -11  -5   8  176.28    5.50
  10   5  -8  358.76   10.90
 -10  -5   8  369.66   10.70
   9   5  -8    0.80    0.40
  -9  -5   8    0.90    0.40
   8   5  -8  349.27   10.20
   7   5  -8    2.30    0.40
  -7  -5   8    2.20    0.40
   6   5  -8  190.48    5.80
  -6  -5   8  197.68    5.80
   5   5  -8  512.35   14.70
  -5  -5   8  517.05   14.80
   4   5  -8 1248.68   36.00
  -4  -5   8 1286.97   36.30
   3   5  -8  860.91   23.40
  -3  -5   8  790.82   23.60
   2   5  -8  835.82   23.70
   1   5  -8   69.89    2.50
  -1  -5   8   69.29    2.60
   0   5  -8  707.03   20.30
   0  -5   8  714.23   20.30
  -1   5  -8   34.70    1.70
   1  -5   8   34.30    1.80
  -2   5  -8  126.29    4.20
  -3   5  -8  857.91   25.00
   3  -5   8  893.61   25.00
  -4   5  -8  912.41   26.70
   4  -5   8  954.10   26.70
  -5   5  -8  120.69    4.30
   5  -5   8  125.59    4.20
   6  -5   8  240.28    7.50
  -7   5  -8    4.80    1.00
   7  -5   8    5.30    0.80
  -8   5  -8  325.27    9.90
   8  -5   8  310.07    9.70
  -9   5  -8    2.40    0.90
 -10   5  -8  154.48    5.70
 -11   5  -8  599.44   18.00
 -12   5  -8  143.19    5.60
 -12  -4   8  215.98    6.60
 -11  -4   8    2.00    0.50
  10   4  -8   28.90    1.60
 -10  -4   8   28.80    1.50
   9   4  -8   20.80    1.30
  -9  -4   8   21.10    1.20
   8   4  -8   75.29    2.60
  -8  -4   8   74.39    2.60
   7   4  -8  799.02   22.80
  -7  -4   8  806.82   22.80
   6   4  -8 1441.06   41.10
  -6  -4   8 1438.46   40.90
   5   4  -8  230.58    6.80
  -5  -4   8  229.68    6.80
   4   4  -8   89.09    2.90
   3   4  -8   75.49    2.50
  -3  -4   8   79.19    2.70
   2   4  -8 2763.32   79.29
  -2  -4   8 2813.72   79.39
   1   4  -8   57.99    2.10
  -1  -4   8   56.19    2.40
   0   4  -8   75.59    2.60
   0  -4   8   72.89    2.70
  -1   4  -8  199.98    6.20
   1  -4   8  206.18    6.20
  -2   4  -8 1049.89   30.30
   2  -4   8 1080.99   30.30
  -3   4  -8    2.50    0.60
   3  -4   8    3.30    0.60
  -4   4  -8  125.99    4.30
   4  -4   8  128.39    4.30
  -5   4  -8    2.90    0.70
   5  -4   8    4.10    0.70
  -6   4  -8  269.37   10.50
   6  -4   8  355.76    9.60
  -7   4  -8   -0.10    0.80
   7  -4   8    0.40    0.70
  -8   4  -8  183.68    6.10
   8  -4   8  170.88    5.90
  -9   4  -8  114.89    4.50
 -10   4  -8  156.78    5.80
 -11   4  -8   81.29    4.00
 -12   4  -8   17.20    2.70
 -13  -3   8    0.90    0.50
 -12  -3   8  144.89    4.70
 -11  -3   8    3.80    0.50
  10   3  -8   65.39    2.50
   9   3  -8   10.90    1.00
  -9  -3   8   10.60    1.00
  -8  -3   8   31.30    1.40
   7   3  -8  381.86   11.20
  -7  -3   8  395.56   11.20
   6   3  -8  817.92   23.20
  -6  -3   8  822.22   23.20
   5   3  -8 1895.61   52.19
  -5  -3   8 1768.12   52.69
   4   3  -8   83.69    2.70
  -4  -3   8   83.59    2.80
   3   3  -8  274.37    8.20
  -3  -3   8  289.87    8.30
   2   3  -8  493.55   14.30
  -2  -3   8  508.55   14.40
   1   3  -8  131.89    4.20
  -1  -3   8  135.69    4.30
   0   3  -8  117.89    3.80
  -1   3  -8  720.53   20.90
   1  -3   8  741.23   20.90
  -2   3  -8    3.30    0.60
   2  -3   8    3.60    0.60
  -3   3  -8  150.08    4.90
   3  -3   8  151.08    4.80
  -4   3  -8  119.99    4.20
   4  -3   8  122.39    4.10
  -5   3  -8  257.87    8.10
   5  -3   8  264.07    8.00
  -6   3  -8  487.15   15.70
   6  -3   8  542.55   15.10
  -7   3  -8   -0.10    0.80
   7  -3   8   -0.20    0.70
  -8   3  -8   87.89    3.80
   8  -3   8   85.29    3.50
  -9   3  -8  272.17    8.80
 -10   3  -8  194.98    6.80
 -11   3  -8  173.18    6.30
 -12   3  -8   46.50    3.40
 -18  -2   8   14.70    2.70
 -13  -2   8   29.50    1.70
 -12  -2   8   64.79    2.50
 -11  -2   8   53.39    2.10
  10   2  -8    3.40    0.50
 -10  -2   8    3.10    0.50
   9   2  -8  933.41   26.90
  -9  -2   8  963.10   26.90
   8   2  -8 1280.27   35.80
  -8  -2   8 1225.28   35.30
   7   2  -8  228.08    6.80
  -7  -2   8  231.08    6.80
   6   2  -8   45.60    1.70
   5   2  -8 1050.39   29.90
  -5  -2   8 1071.89   30.00
   4   2  -8  280.47    8.10
  -4  -2   8  280.57    8.20
   3   2  -8    0.80    0.30
  -3  -2   8    0.80    0.40
   2   2  -8   26.00    1.30
  -2  -2   8   26.60    1.40
   1   2  -8  112.79    3.60
  -1  -2   8  116.69    3.70
   0   2  -8  101.19    3.40
   0  -2   8  106.19    3.50
  -1   2  -8   24.60    1.50
   1  -2   8   21.10    1.40
  -2   2  -8  567.84   16.60
   2  -2   8  584.54   16.60
  -3   2  -8  655.23   18.80
   3  -2   8  672.23   18.80
   3  -2   8  633.24   18.50
  -4   2  -8  212.28    6.70
   4  -2   8  216.18    6.70
  -5   2  -8  267.87    8.40
   5  -2   8  276.37    8.30
  -6   2  -8  238.98    7.90
   6  -2   8  257.37    7.70
  -7   2  -8   89.19    3.70
   7  -2   8   90.59    3.50
  -8   2  -8   16.10    2.20
  -9   2  -8  211.68    7.10
 -10   2  -8    7.10    1.20
 -11   2  -8   22.50    2.70
 -12   2  -8   77.59    4.50
 -18  -1   8   35.80    4.90
 -17  -1   8   29.40    2.60
 -16  -1   8   64.39    3.10
 -14  -1   8    1.00    0.50
 -13  -1   8  194.48    6.00
 -12  -1   8  121.39    4.00
 -11  -1   8   48.70    2.00
  10   1  -8  256.97    7.70
 -10  -1   8  259.27    7.60
   9   1  -8  573.54   16.90
  -9  -1   8  606.24   16.80
   8   1  -8  185.18    5.60
  -8  -1   8  188.98    5.60
  -7  -1   8    2.20    0.40
   6   1  -8  254.37    7.70
  -6  -1   8  274.97    7.70
   5   1  -8  192.18    5.70
  -5  -1   8  195.78    5.80
   4   1  -8  546.25   15.70
  -4  -1   8  556.04   15.70
   3   1  -8  107.89    3.40
  -3  -1   8  113.49    3.50
   2   1  -8   36.50    1.50
  -2  -1   8   35.60    1.60
   1   1  -8  338.27   10.00
  -1  -1   8  351.66   10.10
   0   1  -8  513.75   15.00
   0  -1   8  527.85   15.00
  -1   1  -8  316.57    9.30
   1  -1   8  326.67    9.40
   1  -1   8  306.47    9.20
  -2   1  -8  459.75   13.40
   2  -1   8  450.85   13.10
   2  -1   8  468.95   13.40
  -3   1  -8  160.78    5.20
   3  -1   8  166.68    5.20
   3  -1   8  161.38    4.90
  -4   1  -8  932.41   27.10
   4  -1   8  963.90   27.10
  -5   1  -8  142.99    4.90
   5  -1   8  148.79    4.90
  -6   1  -8   74.79    3.20
   6  -1   8   76.29    3.10
  -7   1  -8   28.70    2.30
  -8   1  -8  215.38    7.10
  -9   1  -8    4.30    1.00
 -10   1  -8    9.90    1.40
 -11   1  -8  510.35   15.60
 -18   0   8   33.80    4.80
 -17   0   8    1.60    0.90
 -16   0   8    0.70    0.80
 -15   0   8    4.90    0.90
 -14   0   8   36.10    1.90
 -14   0   8   33.90    2.20
 -13   0   8  259.77    8.00
 -13   0   8  270.57    8.20
 -12   0   8  475.45   13.80
 -11   0   8  739.43   21.10
  10   0  -8  187.48    5.70
 -10   0   8  188.08    5.70
   9   0  -8  161.58    5.00
  -9   0   8  163.78    4.90
   8   0  -8  297.37    8.70
  -8   0   8  301.47    8.70
   7   0  -8  374.66   10.90
  -7   0   8  381.36   10.90
   6   0  -8 1893.11   54.09
  -6   0   8 1931.91   54.19
   5   0  -8 1527.75   44.80
  -5   0   8 1638.74   44.90
   4   0  -8  384.26   11.40
  -4   0   8  413.46   11.50
   3   0  -8  157.58    4.80
  -3   0   8  163.58    4.90
   2   0  -8   81.29    2.80
  -2   0   8   84.99    2.90
  -2   0   8   87.19    2.80
   1   0  -8   37.10    1.70
  -1   0   8   37.80    1.80
  -1   0   8   42.00    1.60
   0   0  -8  386.86   11.20
   0   0   8  367.46   11.10
   0   0   8  399.46   11.20
  -1   0  -8  272.77    8.30
   1   0   8  284.77    8.30
   1   0   8  281.77    8.20
  -2   0  -8 1184.78   34.10
   2   0   8 1233.18   34.10
   2   0   8 1189.78   33.90
  -3   0  -8   71.89    2.80
   3   0   8   74.49    2.60
   3   0   8   73.99    2.80
  -4   0  -8   12.10    1.60
   4   0   8   12.60    1.40
  -5   0  -8    9.60    1.70
   5   0   8   11.30    1.50
  -6   0  -8  437.66   13.10
   6   0   8  443.16   13.10
  -7   0  -8    3.60    0.90
  -8   0  -8   84.49    3.70
  -9   0  -8   46.00    2.90
 -10   0  -8   30.10    2.80
 -11   0  -8   -0.20    1.00
 -18   1   8   45.60    3.60
 -17   1   8    0.30    0.90
 -16   1   8   23.30    2.20
 -15   1   8   17.30    2.00
 -14   1   8   43.10    2.50
 -14   1   8   49.70    2.20
 -13   1   8  457.05   13.10
 -13   1   8  446.76   13.30
 -12   1   8  141.09    4.40
 -12   1   8  132.59    4.60
 -11   1   8  379.16   11.10
 -11   1   8  367.66   10.80
  10  -1  -8  599.24   17.60
 -10   1   8  619.74   17.60
 -10   1   8  629.84   17.80
   9  -1  -8  234.38    7.30
  -9   1   8  248.28    7.20
  -9   1   8  257.87    7.50
   8  -1  -8  134.89    4.10
  -8   1   8  122.39    4.20
  -8   1   8  144.59    4.30
   7  -1  -8  142.89    4.40
  -7   1   8  150.38    4.60
  -7   1   8  145.89    4.40
   6  -1  -8   20.00    0.90
  -6   1   8   18.90    1.20
  -6   1   8   17.30    1.00
   5  -1  -8   69.29    2.20
  -5   1   8   65.79    2.40
  -5   1   8   69.69    2.30
  -4   1   8    0.90    0.40
  -4   1   8    1.60    0.40
   3  -1  -8  487.15   14.20
  -3   1   8  510.55   14.30
  -3   1   8  496.95   14.30
   2  -1  -8   95.49    3.10
  -2   1   8   93.89    3.10
  -2   1   8   96.99    3.20
   1  -1  -8    0.80    0.40
  -1   1   8    0.30    0.30
  -1   1   8   -0.40    0.40
   0  -1  -8 2225.38   63.49
   0   1   8 2310.77   64.09
   0   1   8 2213.88   63.29
  -1  -1  -8  133.39    4.30
   1   1   8  137.49    4.30
   1   1   8  134.89    4.40
  -2  -1  -8  122.39    4.10
   2   1   8  121.99    4.00
   2   1   8  127.89    4.10
  -3  -1  -8   73.49    2.90
   3   1   8   79.39    2.90
   3   1   8   74.69    2.70
  -4  -1  -8   -0.40    0.60
   4   1   8    0.30    0.50
   4   1   8   -0.20    0.50
  -5  -1  -8    4.10    0.80
   5   1   8    5.60    0.80
  -6  -1  -8   32.00    2.30
  -7  -1  -8   33.20    2.50
  -8  -1  -8   28.80    2.50
  -9  -1  -8   13.40    2.30
 -10  -1  -8   63.59    3.50
 -11  -1  -8   36.20    3.10
 -18   2   8    5.20    1.40
 -17   2   8   13.60    2.40
 -16   2   8   50.99    2.80
 -15   2   8    0.00    0.50
 -15   2   8   -1.30    0.70
 -14   2   8  258.37    8.20
 -14   2   8  270.77    8.00
 -13   2   8  216.98    6.60
 -13   2   8  213.68    6.80
 -12   2   8  473.75   14.30
 -12   2   8  503.35   14.10
 -11   2   8  165.98    5.40
 -11   2   8  172.58    5.20
  10  -2  -8   18.40    1.20
 -10   2   8   17.90    1.10
 -10   2   8   19.60    1.50
   9  -2  -8  100.19    3.30
  -9   2   8  101.79    3.50
  -9   2   8  106.09    3.20
   8  -2  -8  209.98    6.30
  -8   2   8  218.28    6.30
  -8   2   8  216.28    6.60
   7  -2  -8    2.40    0.30
  -7   2   8    1.90    0.40
  -7   2   8    1.30    0.30
   6  -2  -8    7.70    0.70
  -6   2   8    8.50    0.80
  -6   2   8    9.50    1.10
   5  -2  -8  710.33   20.60
  -5   2   8  738.83   20.80
  -5   2   8  739.43   20.70
   4  -2  -8   94.09    2.90
  -4   2   8   98.39    3.20
  -4   2   8   93.09    3.00
   3  -2  -8   12.20    0.90
  -3   2   8   11.30    1.10
  -3   2   8   11.40    1.10
   2  -2  -8   60.69    2.10
  -2   2   8   60.99    2.30
  -2   2   8   59.99    2.20
   1  -2  -8   22.10    1.30
  -1   2   8   21.10    1.30
  -1   2   8   23.90    1.40
   0  -2  -8   60.49    2.30
   0   2   8   62.09    2.30
   0   2   8   61.99    2.40
  -1  -2  -8  127.89    4.10
   1   2   8  126.29    4.20
   1   2   8  124.09    4.10
  -2  -2  -8   94.59    3.40
   2   2   8   99.09    3.40
   2   2   8  100.19    3.40
  -3  -2  -8  475.45   14.20
   3   2   8  493.65   14.20
   3   2   8  489.45   14.20
  -4  -2  -8  282.17    8.60
   4   2   8  283.47    8.60
   4   2   8  281.97    8.50
  -5  -2  -8    3.20    0.80
  -6  -2  -8   46.30    2.60
  -7  -2  -8   87.09    3.70
  -8  -2  -8   18.40    2.30
  -9  -2  -8    9.30    1.20
 -10  -2  -8   56.89    3.40
 -17   3   8    2.30    1.10
 -16   3   8    0.90    0.90
 -15   3   8  112.79    3.80
 -15   3   8  107.79    4.20
 -14   3   8   66.29    3.00
 -14   3   8   71.19    2.70
 -13   3   8  100.89    3.40
 -13   3   8   97.69    3.70
 -12   3   8    0.50    0.60
 -12   3   8    1.80    0.50
 -11   3   8  317.17    9.10
 -11   3   8  305.87    9.40
 -10   3   8   17.30    1.10
 -10   3   8   19.60    1.50
   9  -3  -8  130.99    4.10
  -9   3   8  132.79    4.30
  -9   3   8  132.99    4.10
   8  -3  -8   12.00    0.80
  -8   3   8   12.40    1.20
  -8   3   8   11.80    0.90
   7  -3  -8  207.58    6.30
  -7   3   8  215.78    6.60
  -7   3   8  222.48    6.30
   6  -3  -8  211.38    6.10
  -6   3   8  210.88    6.20
   5  -3  -8   24.30    1.00
  -5   3   8   22.20    1.40
  -5   3   8   24.90    1.20
   4  -3  -8   13.00    0.80
  -4   3   8   12.30    1.00
   3  -3  -8   42.10    1.50
  -3   3   8   39.60    1.70
  -3   3   8   38.30    1.80
   2  -3  -8   73.89    2.50
   2  -3  -8   76.89    2.70
  -2   3   8   76.19    2.60
  -2   3   8   73.99    2.80
   1  -3  -8  299.77    8.90
   1  -3  -8  308.07    9.00
  -1   3   8  319.77    9.00
  -1   3   8  300.17    9.20
   0  -3  -8    6.30    1.10
   0  -3  -8    5.70    1.00
   0   3   8    5.80    1.10
  -1  -3  -8    1.20    0.50
  -1  -3  -8    0.50    0.40
   1   3   8    1.10    0.50
   1   3   8    1.20    0.60
  -2  -3  -8  229.68    6.80
  -2  -3  -8  226.78    6.90
   2   3   8  222.08    7.10
   2   3   8  229.88    6.90
  -3  -3  -8    4.60    0.80
   3   3   8    5.30    0.80
   3   3   8    7.80    1.40
  -4  -3  -8    0.20    0.70
   4   3   8   -1.00    0.70
  -5  -3  -8  103.79    3.90
   5   3   8   98.19    3.80
  -6  -3  -8   96.69    3.80
  -7  -3  -8   58.29    3.00
  -8  -3  -8    4.10    1.00
  -9  -3  -8   84.59    3.90
 -10  -3  -8   56.19    3.50
 -19   4   8   33.30    3.70
 -18   4   8    4.20    1.40
 -17   4   8   27.60    4.50
 -16   4   8    2.30    1.00
 -15   4   8   47.70    2.20
 -15   4   8   44.70    2.80
 -14   4   8  136.49    4.40
 -14   4   8  133.99    4.90
 -13   4   8   38.50    2.50
 -13   4   8   43.40    1.90
 -12   4   8  253.17    7.50
 -12   4   8  248.48    7.80
 -11   4   8  880.61   24.70
 -11   4   8  863.61   25.00
 -10   4   8  162.08    5.30
 -10   4   8  162.18    4.90
   9  -4  -8    0.30    0.30
  -9   4   8   -0.20    0.30
  -9   4   8    0.70    0.50
   8  -4  -8  108.69    3.30
  -8   4   8  108.69    3.30
  -8   4   8  107.79    3.70
   7  -4  -8   74.29    2.40
  -7   4   8   77.19    2.40
  -7   4   8   73.89    2.80
   6  -4  -8  642.44   19.00
   6  -4  -8  701.33   19.40
  -6   4   8  678.33   19.10
   5  -4  -8   52.69    1.70
   5  -4  -8   53.59    2.10
  -5   4   8   51.59    2.20
  -5   4   8   48.70    1.80
   4  -4  -8   98.69    3.00
   4  -4  -8  103.49    3.40
  -4   4   8   99.29    3.20
  -4   4   8   99.49    3.50
   3  -4  -8 1495.45   42.70
  -3   4   8 1510.75   42.60
  -3   4   8 1537.35   43.00
   2  -4  -8  154.58    4.80
   2  -4  -8  146.39    4.50
  -2   4   8  153.18    4.60
  -2   4   8  147.79    4.90
   1  -4  -8  229.38    6.80
   1  -4  -8  219.48    6.60
  -1   4   8  228.78    6.70
  -1   4   8  220.18    7.00
   0  -4  -8   58.29    2.20
   0  -4  -8   55.09    2.30
   0   4   8   59.89    2.60
   0   4   8   60.69    2.30
  -1  -4  -8   52.59    2.80
  -1  -4  -8   61.49    2.40
   1   4   8   66.19    2.40
   1   4   8   60.99    2.70
  -2  -4  -8 1633.44   45.50
  -2  -4  -8 1560.04   45.90
   2   4   8 1642.14   45.70
   2   4   8 1604.64   45.50
  -3  -4  -8   96.59    3.50
  -3  -4  -8  105.19    3.70
   3   4   8  101.59    3.90
  -4  -4  -8  313.57    9.20
  -4  -4  -8  316.97    9.50
   4   4   8  305.67    9.60
  -5  -4  -8   68.19    2.60
   5   4   8   69.49    3.20
  -6  -4  -8    4.60    0.90
   6   4   8    3.30    1.00
  -7  -4  -8    0.10    0.90
  -8  -4  -8   18.20    2.40
  -9  -4  -8  127.29    5.00
 -19   5   8    4.10    1.20
 -18   5   8    7.00    1.50
 -17   5   8   19.50    2.90
 -16   5   8   21.30    1.80
 -15   5   8    0.60    0.90
 -14   5   8  217.28    7.00
 -14   5   8  209.78    6.50
 -13   5   8  498.35   15.00
 -13   5   8  515.25   14.60
 -12   5   8   82.59    3.00
 -12   5   8   92.29    3.50
 -11   5   8  157.48    5.30
 -11   5   8  153.88    4.70
 -10   5   8    7.10    0.80
 -10   5   8    9.10    1.50
  -9   5   8   91.69    3.50
  -9   5   8   94.99    2.90
   8  -5  -8    6.70    0.70
   8  -5  -8    4.20    0.60
  -8   5   8    6.00    0.70
  -8   5   8    7.90    1.30
   7  -5  -8    6.70    1.20
   7  -5  -8    9.10    0.70
  -7   5   8    8.00    0.80
  -7   5   8    7.80    1.30
   6  -5  -8   60.99    1.90
   6  -5  -8   62.69    2.50
  -6   5   8   61.19    2.10
   5  -5  -8 1133.49   31.50
   5  -5  -8 1100.69   31.10
  -5   5   8 1086.09   31.10
   4  -5  -8   21.10    1.50
   4  -5  -8   22.10    1.00
  -4   5   8   19.60    1.60
  -4   5   8   19.90    1.20
   3  -5  -8   71.19    2.30
   3  -5  -8   72.19    2.70
  -3   5   8   71.39    2.40
  -3   5   8   67.79    2.90
   2  -5  -8  153.88    4.80
   2  -5  -8  148.29    4.50
  -2   5   8  149.49    5.10
  -2   5   8  151.08    4.60
   1  -5  -8  295.57    8.80
   1  -5  -8  308.27    9.00
  -1   5   8  302.17    8.80
  -1   5   8  296.37    9.20
   0  -5  -8    3.00    0.50
   0  -5  -8    1.80    0.50
   0   5   8    1.90    0.50
   0   5   8    2.20    0.70
  -1  -5  -8   34.40    1.70
  -1  -5  -8   31.80    1.80
   1   5   8   35.40    1.80
   1   5   8   31.70    2.20
  -2  -5  -8    7.90    1.20
  -2  -5  -8    6.40    0.80
   2   5   8    6.20    0.90
  -3  -5  -8  402.96   11.70
  -3  -5  -8  384.96   11.50
   3   5   8  394.06   11.90
  -4  -5  -8   37.50    2.00
  -4  -5  -8   45.30    2.40
   4   5   8   43.40    2.70
  -5  -5  -8  347.07   10.50
  -5  -5  -8  361.96   10.80
   5   5   8  360.86   11.00
  -6  -5  -8   89.09    3.70
   6   5   8   87.69    4.00
  -7  -5  -8  190.68    6.50
  -8  -5  -8   89.09    4.00
  -9  -5  -8   18.70    2.70
 -18   6   8   10.70    1.70
 -18   6   8    9.60    1.30
 -17   6   8   78.69    4.20
 -16   6   8   -0.30    0.70
 -16   6   8    1.00    1.10
 -15   6   8    5.50    0.80
 -15   6   8    5.40    1.50
 -14   6   8   50.09    3.00
 -14   6   8   46.80    2.10
 -13   6   8  175.18    5.30
 -13   6   8  171.38    6.00
 -12   6   8   74.89    3.40
 -12   6   8   74.89    2.60
 -11   6   8   17.70    2.00
 -11   6   8   15.10    1.10
 -10   6   8   55.09    2.60
 -10   6   8   50.89    1.90
   9  -6  -8    9.60    1.40
  -9   6   8   14.00    0.90
  -9   6   8   13.60    1.70
   8  -6  -8  141.49    4.50
  -8   6   8  129.79    4.60
  -8   6   8  133.99    4.00
   7  -6  -8   77.49    2.40
   7  -6  -8   81.39    3.00
  -7   6   8   75.49    3.10
  -7   6   8   75.19    2.50
   6  -6  -8  104.99    3.60
   6  -6  -8  102.09    3.00
  -6   6   8   96.09    3.10
   5  -6  -8 1332.77   35.90
   5  -6  -8 1224.18   35.50
  -5   6   8 1228.08   35.50
   4  -6  -8    7.00    0.60
  -4   6   8    5.00    0.50
  -4   6   8    6.00    0.90
   3  -6  -8    9.30    0.80
   3  -6  -8   11.60    1.30
  -3   6   8   10.40    1.60
  -3   6   8   11.40    1.00
   2  -6  -8    7.80    1.00
   2  -6  -8   12.30    1.30
  -2   6   8   10.20    1.60
  -2   6   8   10.50    1.00
   1  -6  -8  894.91   25.00
   1  -6  -8  871.61   24.70
  -1   6   8  870.71   25.30
  -1   6   8  858.41   24.80
   0  -6  -8   83.29    2.90
   0  -6  -8   82.29    3.00
   0   6   8   78.19    3.50
  -1  -6  -8   31.30    1.80
  -1  -6  -8   32.70    1.80
   1   6   8   32.70    2.40
  -2  -6  -8   42.40    2.10
  -2  -6  -8   48.10    2.30
   2   6   8   48.10    2.80
  -3  -6  -8   41.20    2.10
  -3  -6  -8   41.60    2.30
   3   6   8   41.20    2.80
  -4  -6  -8  818.62   22.90
  -4  -6  -8  743.83   22.70
   4   6   8  819.82   23.20
  -5  -6  -8    0.80    0.90
  -5  -6  -8   -0.60    0.70
   5   6   8   -1.50    1.10
  -6  -6  -8  125.39    4.50
  -6  -6  -8  139.99    4.90
   6   6   8  132.99    5.30
  -7  -6  -8  377.96   11.60
  -8  -6  -8   91.19    4.10
 -18   7   8   71.39    3.90
 -18   7   8   78.59    4.70
 -17   7   8  104.19    4.40
 -17   7   8  109.79    5.10
 -16   7   8   81.79    3.20
 -16   7   8   86.89    4.30
 -15   7   8  433.96   13.50
 -15   7   8  443.16   12.80
 -14   7   8   28.40    2.70
 -14   7   8   30.50    1.70
 -13   7   8   -0.40    0.50
 -13   7   8   -0.30    1.70
 -12   7   8   -0.60    0.40
 -12   7   8    0.20    0.80
 -11   7   8  515.15   14.90
 -11   7   8  533.55   15.70
  10  -7  -8   63.89    2.70
 -10   7   8   64.99    3.00
 -10   7   8   62.09    2.10
   9  -7  -8   47.70    2.20
  -9   7   8   43.80    1.60
  -9   7   8   43.70    2.50
   8  -7  -8    7.10    1.40
  -8   7   8    5.20    0.90
  -8   7   8    4.70    0.80
   7  -7  -8  360.56   10.50
  -7   7   8  340.47   10.70
  -7   7   8  346.17   10.00
   6  -7  -8    8.70    1.40
   5  -7  -8  205.28    6.40
   4  -7  -8   85.09    2.60
   4  -7  -8   91.69    3.30
  -4   7   8   87.29    3.60
   3  -7  -8  160.08    4.80
  -3   7   8  171.98    5.80
  -3   7   8  162.08    4.90
   2  -7  -8   15.20    1.10
   2  -7  -8   17.40    1.50
  -2   7   8   16.50    2.00
   1  -7  -8  472.95   13.80
   1  -7  -8  459.75   13.50
  -1   7   8  479.05   14.30
   0  -7  -8   27.60    1.80
   0  -7  -8   26.40    1.60
   0   7   8   25.20    2.40
  -1  -7  -8   22.40    1.70
  -1  -7  -8   15.70    1.60
   1   7   8   16.70    2.30
  -2  -7  -8   45.70    2.30
  -2  -7  -8   46.70    2.30
   2   7   8   43.80    3.00
  -3  -7  -8  199.88    6.30
  -3  -7  -8  193.48    6.30
   3   7   8  195.08    6.90
  -4  -7  -8   14.20    2.10
  -4  -7  -8   12.30    1.90
   4   7   8   17.50    2.80
  -5  -7  -8  209.78    7.00
  -5  -7  -8  231.48    7.20
   5   7   8  227.38    7.70
  -6  -7  -8    0.90    1.00
  -6  -7  -8   -0.40    0.90
   6   7   8   -0.70    1.30
  -7  -7  -8   77.09    3.80
 -18   8   8    6.00    1.30
 -18   8   8    5.70    1.80
 -17   8   8  198.08    6.80
 -17   8   8  221.28    7.80
 -17   8   8  213.08    7.20
 -16   8   8  227.08    7.20
 -16   8   8  233.58    7.60
 -16   8   8  244.88    8.20
 -15   8   8  276.47    9.20
 -15   8   8  273.97    8.20
 -14   8   8   96.59    4.40
 -14   8   8  100.19    3.40
 -13   8   8    1.30    1.00
 -13   8   8    1.90    0.50
  12  -8  -8    8.00    0.90
 -12   8   8    6.90    1.10
  11  -8  -8  150.68    5.00
 -11   8   8  151.08    4.40
 -11   8   8  137.09    5.50
  10  -8  -8  157.88    5.20
 -10   8   8  149.19    4.60
   9  -8  -8    2.60    0.70
  -9   8   8    4.80    0.80
  -9   8   8    4.40    1.00
   8  -8  -8   80.89    3.20
  -8   8   8   78.89    3.50
   7  -8  -8  247.38    7.50
  -7   8   8  234.68    7.90
   6  -8  -8    7.80    1.50
  -6   8   8    5.90    1.00
   5  -8  -8  259.77    8.00
  -5   8   8  257.77    8.40
   4  -8  -8  465.95   13.60
  -4   8   8  453.25   14.00
   3  -8  -8   90.29    3.40
  -3   8   8   88.59    3.90
   2  -8  -8   61.19    2.60
   2  -8  -8   59.09    2.10
  -2   8   8   57.59    3.20
   1  -8  -8   97.69    3.60
   1  -8  -8   95.19    3.20
  -1   8   8   93.39    4.20
   0  -8  -8   29.90    2.00
   0  -8  -8   29.50    1.70
   0   8   8   26.40    2.60
  -1  -8  -8    4.00    0.80
  -1  -8  -8    4.50    0.70
   1   8   8    2.90    1.10
  -2  -8  -8   17.40    1.90
  -2  -8  -8   17.50    1.90
   2   8   8   16.10    2.60
  -3  -8  -8   14.40    2.00
  -3  -8  -8   16.40    2.00
   3   8   8   19.60    2.90
  -4  -8  -8  211.48    6.80
  -4  -8  -8  196.58    6.70
   4   8   8  216.78    7.50
  -5  -8  -8  805.52   22.40
  -5  -8  -8  730.13   22.30
   5   8   8  780.92   23.00
  -6  -8  -8  109.29    4.40
   6   8   8   99.59    5.20
  -7  -8  -8   41.40    3.20
 -18   9   8   59.09    4.80
 -18   9   8   58.59    3.70
 -17   9   8  404.46   12.30
 -17   9   8  431.66   13.40
 -17   9   8  413.96   12.70
 -16   9   8    0.90    1.40
 -16   9   8    0.80    0.70
 -16   9   8    2.50    1.00
 -15   9   8    0.70    1.30
 -15   9   8    3.50    0.90
 -15   9   8    2.80    0.70
 -14   9   8   10.70    1.40
 -14   9   8    7.80    1.30
 -14   9   8    8.20    1.00
 -13   9   8  221.78    7.80
 -13   9   8  223.78    7.00
 -13   9   8  233.78    6.70
  12  -9  -8   89.09    3.70
 -12   9   8   93.29    3.00
 -12   9   8   91.59    4.20
  11  -9  -8   39.30    2.30
 -11   9   8   43.50    2.80
 -11   9   8   35.70    1.60
  10  -9  -8    2.30    0.70
 -10   9   8    1.20    0.40
 -10   9   8    2.20    1.00
   9  -9  -8   61.69    2.80
  -9   9   8   59.99    3.30
   8  -9  -8   18.20    1.80
   7  -9  -8   49.99    2.50
  -7   9   8   54.99    3.00
   6  -9  -8  131.89    4.50
  -6   9   8  126.59    5.10
   5  -9  -8  121.09    4.30
  -5   9   8  121.59    5.10
   4  -9  -8  123.79    4.30
  -4   9   8  116.99    5.50
  -3   9   8    9.20    1.40
   2  -9  -8   26.30    2.00
  -2   9   8   19.10    2.90
   1  -9  -8    5.20    0.80
   1  -9  -8    4.40    0.60
  -1   9   8    2.80    1.10
   0  -9  -8    0.10    0.70
   0  -9  -8    0.10    0.60
   0   9   8   -0.90    1.00
  -1  -9  -8    0.30    0.70
  -1  -9  -8    0.50    0.80
   1   9   8   -1.00    1.00
  -2  -9  -8  170.58    5.80
  -2  -9  -8  174.68    5.60
   2   9   8  174.58    6.60
  -3  -9  -8  240.78    8.00
  -3  -9  -8  261.47    7.90
   3   9   8  259.37    8.90
  -4  -9  -8    7.40    1.20
  -4  -9  -8   10.00    1.80
   4   9   8    7.90    1.60
  -5  -9  -8   43.70    3.10
  -5  -9  -8   53.39    3.10
   5   9   8   50.19    4.30
  -6  -9  -8    3.70    1.20
   6   9   8    1.50    1.80
 -17  10   8  160.78    6.90
 -17  10   8  159.98    5.70
 -17  10   8  162.78    5.90
 -16  10   8   30.40    2.10
 -16  10   8   30.20    3.70
 -15  10   8   13.30    2.20
 -15  10   8   14.30    1.60
 -15  10   8   11.60    1.70
 -14  10   8   -0.90    0.60
 -14  10   8   -0.10    1.20
 -13  10   8   90.89    3.00
 -13  10   8   87.29    3.30
 -13  10   8   92.49    4.40
  12 -10  -8  107.09    4.20
 -12  10   8  111.89    3.50
 -12  10   8  108.89    3.80
 -12  10   8  120.69    4.90
  11 -10  -8   16.20    2.00
 -11  10   8   22.10    2.60
 -11  10   8   15.90    1.40
 -11  10   8   19.10    1.10
  10 -10  -8   52.19    2.70
 -10  10   8   57.69    3.30
   9 -10  -8  124.19    4.50
  -9  10   8  126.89    5.00
   8 -10  -8    0.20    0.70
  -8  10   8    1.30    0.90
  -7  10   8  181.58    6.60
   6 -10  -8    0.40    0.60
  -6  10   8   -0.70    0.90
   5 -10  -8  785.72   23.00
  -5  10   8  803.12   23.60
   4 -10  -8   94.09    3.70
  -4  10   8   88.59    4.30
   3 -10  -8   35.10    2.30
  -3  10   8   33.90    3.00
   2 -10  -8  314.27    9.70
  -2  10   8  310.97   10.30
   1 -10  -8   42.30    2.60
   1 -10  -8   48.90    1.90
  -1  10   8   42.50    3.20
   0 -10  -8   29.70    1.80
   0 -10  -8   22.60    2.20
   0  10   8   23.10    2.90
  -1 -10  -8    1.50    0.90
  -1 -10  -8    3.50    0.80
   1  10   8    1.70    1.20
  -2 -10  -8   65.29    3.30
  -2 -10  -8   66.59    3.00
   2  10   8   71.79    4.30
  -3 -10  -8  158.88    5.40
  -3 -10  -8  146.19    5.60
   3  10   8  163.58    6.60
  -4 -10  -8   19.90    2.80
  -4 -10  -8   20.90    3.30
   4  10   8   22.30    3.90
  -5 -10  -8    1.20    1.20
   5  10   8   -1.20    1.70
 -17  11   8   40.80    4.60
 -17  11   8   36.00    3.40
 -16  11   8   16.70    2.70
 -16  11   8   10.70    1.90
 -15  11   8    5.60    1.50
 -15  11   8    7.30    0.90
 -14  11   8    0.20    0.80
 -14  11   8   -1.40    1.20
 -13  11   8   -0.60    0.50
 -13  11   8    0.70    0.70
 -13  11   8   -1.70    1.00
 -12  11   8   96.09    4.60
 -12  11   8   93.29    3.30
 -11  11   8  222.28    7.90
 -10  11   8   80.29    4.10
   9 -11  -8    0.50    0.70
  -9  11   8    0.20    0.90
   8 -11  -8   11.30    1.80
  -8  11   8   15.20    2.40
   7 -11  -8  143.29    5.30
  -7  11   8  157.78    5.90
   6 -11  -8  197.18    6.70
  -6  11   8  211.28    7.40
   5 -11  -8  120.89    4.50
  -5  11   8  120.89    5.20
   4 -11  -8  332.67   10.60
  -4  11   8  357.16   11.30
  -3  11   8  143.79    5.90
   2 -11  -8    0.30    0.70
  -2  11   8   -1.60    1.00
   1 -11  -8   -1.30    0.80
   0 -11  -8   30.20    3.20
   0 -11  -8   40.90    2.00
   0 -11  -8   40.50    1.70
   0  11   8   38.60    3.60
  -1 -11  -8   78.39    3.20
  -1 -11  -8   82.79    2.90
   1  11   8   83.39    4.80
  -2 -11  -8   40.90    2.60
  -2 -11  -8   41.00    2.60
   2  11   8   44.00    4.10
  -3 -11  -8    1.40    1.10
   3  11   8    1.10    1.60
  -4 -11  -8  206.68    6.90
   4  11   8  199.58    8.30
 -15  12   8  202.38    7.90
 -14  12   8    0.30    1.40
 -14  12   8    0.40    0.70
 -13  12   8  113.09    5.30
 -12  12   8    7.10    1.50
 -11  12   8   52.39    3.70
 -10  12   8    2.10    1.10
  -9  12   8    0.20    0.90
  -8  12   8   95.69    4.60
  -7  12   8  190.98    7.10
  -6  12   8   35.20    3.20
  -5  12   8   -1.30    0.90
  -4  12   8   37.10    3.30
  -3  12   8   15.70    2.00
  -2  12   8   80.29    4.50
  -1  12   8    1.30    1.30
   0  12   8  199.98    7.90
  -1 -12  -8   95.19    3.70
   1  12   8   94.29    5.40
   2  12   8   12.60    2.10
   3  12   8    3.50    1.90
 -15  13   8   28.00    4.20
 -14  13   8   -2.10    1.50
 -13  13   8   38.90    3.70
 -12  13   8    3.30    1.30
 -11  13   8   68.19    4.20
 -10  13   8  204.38    7.70
  -9  13   8   32.20    3.30
  -8  13   8   60.29    3.90
  -7  13   8   15.50    2.80
  -6  13   8    8.40    1.40
  -5  13   8   38.70    3.30
  -4  13   8   43.30    3.80
  -3  13   8    1.00    1.40
  -2  13   8  553.04   17.50
  -1  13   8   42.90    4.20
   0  13   8    1.20    1.60
   1  13   8    0.70    1.80
 -14  14   8   28.60    4.30
 -13  14   8   -2.40    1.50
 -12  14   8  121.39    5.90
 -11  14   8    2.40    1.50
 -10  14   8   45.90    3.70
  -9  14   8    5.80    1.50
  -8  14   8    2.50    1.30
  -7  14   8   -0.20    1.10
  -6  14   8  121.79    5.70
  -5  14   8  101.69    5.20
  -4  14   8    0.30    1.30
  -3  14   8   80.09    4.90
  -2  14   8   25.10    4.00
  -1  14   8   25.60    4.20
   0  14   8    1.10    1.90
 -13  15   8    7.90    1.80
 -12  15   8  187.08    7.70
 -11  15   8   23.70    3.50
 -10  15   8   21.30    3.30
  -9  15   8   -0.20    1.10
  -8  15   8    8.80    1.70
  -7  15   8  108.59    5.50
  -6  15   8   27.80    3.40
  -5  15   8   46.40    4.10
  -4  15   8  137.19    6.40
  -3  15   8  133.99    6.70
  -2  15   8    5.40    1.80
  -8  16   8    0.30    1.50
  -7  16   8   80.69    7.00
   3  18  -9   59.29    2.80
   2  18  -9   12.40    1.70
   1  18  -9   -0.10    0.70
  -1 -18   9    0.10    1.30
   0  18  -9   42.60    2.20
   0 -18   9   39.60    3.20
  -1  18  -9   99.49    3.70
   1 -18   9  103.69    4.50
  -2  18  -9   36.30    2.20
   2 -18   9   42.10    3.40
  -3  18  -9   -0.40    0.70
   3 -18   9    0.90    1.30
  -4  18  -9  106.79    4.00
  -5  18  -9  136.09    4.90
   5  17  -9  201.88    6.50
   4  17  -9   19.50    1.90
   3  17  -9    2.30    0.70
  -3 -17   9    1.40    1.00
   2  17  -9   30.60    1.90
  -2 -17   9   26.30    2.40
   1  17  -9  122.59    4.00
  -1 -17   9  113.19    4.40
   0  17  -9   49.80    2.30
   0 -17   9   52.19    3.00
  -1  17  -9   78.19    3.00
   1 -17   9   81.59    3.60
  -2  17  -9   34.70    2.10
   2 -17   9   38.10    2.80
  -3  17  -9  321.97    9.40
   3 -17   9  299.07    9.70
  -4  17  -9    0.70    0.80
   4 -17   9    0.00    1.10
  -5  17  -9  175.48    5.90
  -6  17  -9    2.00    0.90
  -7  17  -9   23.60    2.60
   7  16  -9  157.28    5.40
   6  16  -9    0.50    0.70
   5  16  -9  182.98    5.90
   4  16  -9   67.49    2.70
  -4 -16   9   61.29    3.00
   3  16  -9    0.60    0.60
  -3 -16   9   -0.20    0.80
   2  16  -9  275.27    8.10
  -2 -16   9  262.07    8.30
   1  16  -9   85.09    3.00
  -1 -16   9   77.89    3.30
   0  16  -9    4.70    0.70
   0 -16   9    5.70    0.90
  -1  16  -9   64.19    2.60
   1 -16   9   63.49    3.00
  -2  16  -9   42.30    2.20
   2 -16   9   43.60    2.60
  -3  16  -9  121.99    4.20
   3 -16   9  119.09    4.50
  -4  16  -9    9.70    1.80
   4 -16   9    7.30    1.10
  -5  16  -9    1.70    0.80
   5 -16   9    0.90    0.90
  -6  16  -9  111.19    4.30
  -7  16  -9   40.00    2.80
  -8  16  -9   23.00    2.70
   8  15  -9   98.59    3.80
   7  15  -9   59.19    2.70
   6  15  -9   96.09    3.60
   5  15  -9   66.19    2.70
  -5 -15   9   65.09    2.90
   4  15  -9  200.28    6.20
  -4 -15   9  195.98    6.30
   3  15  -9  167.68    5.20
  -3 -15   9  157.48    5.30
   2  15  -9    1.60    0.50
  -2 -15   9    1.40    0.70
   1  15  -9    7.20    1.20
  -1 -15   9    6.60    0.90
   0  15  -9  297.57    8.70
   0 -15   9  284.37    8.90
  -1  15  -9    8.90    1.40
   1 -15   9    5.80    0.90
  -2  15  -9    6.00    0.80
   2 -15   9    6.70    0.90
  -3  15  -9   16.00    1.70
   3 -15   9   16.30    2.00
  -4  15  -9  252.67    7.80
   4 -15   9  247.18    7.90
  -5  15  -9   55.69    2.80
   5 -15   9   55.69    4.90
   5 -15   9   58.29    3.00
  -6  15  -9   -0.10    0.80
   6 -15   9   -0.70    1.50
  -7  15  -9    5.70    1.10
   7 -15   9    2.90    1.70
  -8  15  -9   37.50    2.90
   8 -15   9   34.00    4.40
  -9  15  -9   16.20    2.80
   8  14  -9   24.40    1.90
   7  14  -9   40.20    2.10
   6  14  -9   82.99    3.10
  -6 -14   9   76.29    3.10
   5  14  -9    0.50    0.50
  -5 -14   9    1.00    0.60
   4  14  -9   48.90    2.20
  -4 -14   9   49.90    2.40
   3  14  -9   99.29    3.30
  -3 -14   9   92.99    3.50
   2  14  -9    0.30    0.50
  -2 -14   9   -0.10    0.60
  -1 -14   9    9.90    1.50
   0  14  -9  159.88    6.00
   0 -14   9  164.98    5.40
   0 -14   9  168.98    7.30
   1 -14   9  179.78    6.70
   1 -14   9  178.88    5.80
  -2  14  -9    0.50    0.60
   2 -14   9    1.60    1.10
   2 -14   9    1.70    0.70
  -3  14  -9   80.79    3.20
   3 -14   9   80.09    3.30
   3 -14   9   81.99    4.30
  -4  14  -9   98.09    3.70
   4 -14   9   98.19    3.80
   4 -14   9   95.49    4.80
  -5  14  -9   24.80    2.10
   5 -14   9   27.70    3.40
   5 -14   9   24.80    2.20
  -6  14  -9    7.30    1.10
   6 -14   9    6.10    1.60
   6 -14   9    5.80    1.00
  -7  14  -9   60.69    3.20
   7 -14   9   56.49    4.30
  -8  14  -9  310.67    9.80
   8 -14   9  303.47   10.20
  -9  14  -9    1.40    1.20
 -10  14  -9    3.40    1.30
   9  13  -9    2.00    0.70
   8  13  -9   75.79    3.10
   7  13  -9   38.40    2.00
  -7 -13   9   39.80    2.00
   6  13  -9  516.45   15.00
  -6 -13   9  511.95   15.00
   5  13  -9   40.60    1.90
  -5 -13   9   35.40    2.00
   4  13  -9   18.30    1.40
  -4 -13   9   17.80    1.60
   3  13  -9  650.83   21.60
  -3 -13   9  793.32   22.80
  -3 -13   9  766.42   21.20
   2  13  -9  261.57    7.80
  -2 -13   9  254.27    8.80
  -2 -13   9  260.97    7.90
   1  13  -9  113.99    3.70
  -1 -13   9  108.29    4.70
  -1 -13   9  109.59    3.90
   0  13  -9    1.90    0.50
   0 -13   9    2.90    0.90
   0 -13   9    2.20    0.70
  -1  13  -9   68.19    2.70
   1 -13   9   70.29    3.60
   1 -13   9   68.19    2.90
  -2  13  -9    2.60    0.80
   2 -13   9    3.70    0.80
   2 -13   9    2.20    1.00
  -3  13  -9  484.05   14.90
   3 -13   9  516.65   15.00
   3 -13   9  526.15   15.70
  -4  13  -9  247.78    7.80
   4 -13   9  247.48    7.80
   4 -13   9  253.67    8.60
  -5  13  -9  137.99    4.90
   5 -13   9  137.79    4.90
   5 -13   9  141.69    5.60
  -6  13  -9  350.46   10.60
   6 -13   9  353.96   11.20
   6 -13   9  334.37   10.50
  -7  13  -9    6.40    1.10
   7 -13   9    6.30    1.50
  -8  13  -9    1.90    1.10
   8 -13   9    2.30    1.40
  -9  13  -9    2.80    1.10
 -10  13  -9    0.60    1.10
   9  12  -9   13.50    1.60
   8  12  -9   75.39    2.90
  -8 -12   9   75.19    3.00
   7  12  -9    0.60    0.50
  -7 -12   9    1.10    0.60
   6  12  -9  204.18    6.30
  -6 -12   9  201.68    6.30
   5  12  -9  126.79    4.10
  -5 -12   9  121.99    4.10
  -5 -12   9  122.89    5.10
   4  12  -9  234.68    7.30
  -4 -12   9  241.48    8.40
  -4 -12   9  247.48    7.40
   3  12  -9   73.99    2.70
  -3 -12   9   76.59    2.90
  -3 -12   9   77.29    3.80
   2  12  -9  138.69    4.40
  -2 -12   9  143.19    4.60
  -2 -12   9  137.89    5.40
   1  12  -9  194.08    6.00
  -1 -12   9  197.58    7.00
  -1 -12   9  193.28    6.10
   0  12  -9  167.78    5.30
   0 -12   9  174.78    6.30
   0 -12   9  171.08    5.50
  -1  12  -9    1.40    0.60
   1 -12   9    1.10    0.60
   1 -12   9    1.30    0.90
  -2  12  -9    0.70    0.60
   2 -12   9    2.10    0.70
   2 -12   9    1.50    0.90
  -3  12  -9  261.17    8.80
   3 -12   9  261.07    8.80
   3 -12   9  268.17    8.10
  -4  12  -9  163.68    5.50
   4 -12   9  161.98    6.10
   4 -12   9  164.08    5.50
  -5  12  -9   35.70    2.30
   5 -12   9   36.50    2.20
   5 -12   9   38.10    3.10
  -6  12  -9  145.89    5.20
   6 -12   9  152.48    5.80
   6 -12   9  148.59    5.20
  -7  12  -9  133.49    5.00
   7 -12   9  136.69    5.40
  -8  12  -9   63.89    3.30
   8 -12   9   56.39    3.70
  -9  12  -9   -1.10    1.00
   9 -12   9    2.20    2.00
 -10  12  -9   -1.80    1.10
 -11  12  -9    7.50    1.50
  10  11  -9   48.50    2.40
   9  11  -9   47.10    2.30
   8  11  -9  160.78    5.30
  -8 -11   9  161.48    5.20
  -8 -11   9  167.08    8.00
   7  11  -9   81.69    3.00
  -7 -11   9   77.79    3.90
  -7 -11   9   80.89    3.00
   6  11  -9   12.20    1.20
  -6 -11   9   12.30    2.10
  -6 -11   9   10.60    1.30
   5  11  -9  144.59    4.60
  -5 -11   9  146.19    5.60
  -5 -11   9  143.39    4.70
   4  11  -9  541.25   16.10
  -4 -11   9  571.34   17.20
  -4 -11   9  571.34   16.20
   3  11  -9  163.28    5.10
  -3 -11   9  163.48    5.20
  -3 -11   9  163.88    6.00
   2  11  -9    7.00    1.10
  -2 -11   9    4.50    0.90
  -2 -11   9    7.10    1.30
   1  11  -9    3.20    0.50
  -1 -11   9    3.40    0.60
  -1 -11   9    3.00    1.00
   0  11  -9  219.48    6.70
   0 -11   9  223.18    6.80
   0 -11   9  218.98    7.50
  -1  11  -9    0.90    0.50
   1 -11   9    0.50    0.60
   1 -11   9    1.50    0.90
  -2  11  -9    2.30    0.60
   2 -11   9    1.40    0.90
   2 -11   9    1.90    0.70
  -3  11  -9   39.40    2.20
   3 -11   9   40.30    2.20
   3 -11   9   37.60    2.90
  -4  11  -9 1281.07   39.70
   4 -11   9 1435.06   39.50
   4 -11   9 1449.06   39.90
  -5  11  -9    6.50    1.00
   5 -11   9    6.30    1.20
   5 -11   9    6.50    0.90
  -6  11  -9   14.30    2.10
   6 -11   9   15.60    1.90
   6 -11   9   18.70    2.70
  -7  11  -9    8.30    1.10
   7 -11   9   14.10    2.40
   7 -11   9    8.20    1.30
  -8  11  -9  349.96   11.00
   8 -11   9  360.36   11.00
  -9  11  -9   46.50    3.10
   9 -11   9   52.89    3.30
 -10  11  -9    0.80    1.10
 -11  11  -9    5.80    1.40
  10  10  -9    1.60    0.60
   9  10  -9   13.90    1.40
  -9 -10   9   14.40    1.30
  -9 -10   9   14.50    2.30
   8  10  -9  282.47    8.50
  -8 -10   9  274.57    9.40
  -8 -10   9  282.17    8.40
   7  10  -9   93.29    3.30
  -7 -10   9   96.99    3.30
  -7 -10   9   90.79    4.20
   6  10  -9    1.60    0.50
  -6 -10   9    2.00    0.50
  -6 -10   9    2.90    0.90
   5  10  -9    2.60    0.50
  -5 -10   9    3.50    1.00
  -5 -10   9    2.70    0.50
   4  10  -9    6.20    1.00
  -4 -10   9    6.20    1.10
  -4 -10   9    4.00    1.00
   3  10  -9    3.20    0.50
  -3 -10   9    2.20    0.50
  -3 -10   9    1.70    0.80
   2  10  -9   27.20    1.40
  -2 -10   9   27.30    1.60
  -2 -10   9   27.00    2.20
   1  10  -9   19.60    1.30
  -1 -10   9   16.60    2.00
  -1 -10   9   18.80    1.40
   0  10  -9  290.27    8.80
   0 -10   9  294.37    9.50
   0 -10   9  300.27    8.90
  -1  10  -9  100.49    3.40
   1 -10   9  100.99    3.50
   1 -10   9   95.79    4.10
  -2  10  -9  205.98    6.30
   2 -10   9  197.38    6.90
   2 -10   9  206.28    6.40
  -3  10  -9  127.39    4.30
   3 -10   9  125.59    4.30
   3 -10   9  123.99    4.90
  -4  10  -9  398.46   13.30
   4 -10   9  415.76   12.60
   4 -10   9  419.16   12.20
  -5  10  -9    2.60    0.90
   5 -10   9    2.20    0.70
   5 -10   9    0.40    1.10
  -6  10  -9  250.97    7.90
   6 -10   9  252.97    8.10
   6 -10   9  244.58    7.80
  -7  10  -9   -0.80    0.80
   7 -10   9    0.80    0.80
   7 -10   9    0.50    1.00
  -8  10  -9  260.27    8.40
  -9  10  -9   50.29    3.20
 -10  10  -9   16.60    2.60
 -11  10  -9   -1.40    1.10
 -11  -9   9   18.40    2.80
  10   9  -9  130.99    4.40
 -10  -9   9  125.49    4.30
   9   9  -9    3.40    0.60
  -9  -9   9    2.20    0.50
   8   9  -9   50.39    2.20
  -8  -9   9   51.69    2.20
   7   9  -9  264.57    8.20
  -7  -9   9  277.97    8.10
   6   9  -9  460.15   13.60
  -6  -9   9  478.65   13.60
   5   9  -9  254.37    7.60
  -5  -9   9  259.77    7.70
   4   9  -9   28.60    1.40
  -4  -9   9   27.90    1.50
   3   9  -9  179.98    5.60
  -3  -9   9  186.68    5.70
   2   9  -9  670.23   19.60
  -2  -9   9  702.33   19.70
   1   9  -9   22.30    1.30
  -1  -9   9   21.30    1.40
   0   9  -9   11.60    1.20
   0  -9   9   13.30    1.80
   0  -9   9   13.60    1.30
  -1   9  -9  404.96   11.90
   1  -9   9  409.36   12.00
   1  -9   9  407.86   12.50
  -2   9  -9  507.35   14.70
   2  -9   9  501.25   15.10
   2  -9   9  500.95   14.70
  -3   9  -9  128.49    4.30
   3  -9   9  122.39    4.70
   3  -9   9  124.29    4.30
  -4   9  -9   94.79    3.60
   4  -9   9   90.49    3.90
   4  -9   9   91.49    3.50
  -5   9  -9  127.19    4.60
   5  -9   9  131.09    4.50
   5  -9   9  121.39    4.80
  -6   9  -9  366.86   11.20
   6  -9   9  365.96   11.00
  -7   9  -9   82.39    3.70
   7  -9   9   87.29    3.50
   7  -9   9   87.09    3.60
  -8   9  -9   17.00    2.40
  -9   9  -9   29.60    2.70
 -10   9  -9   33.70    2.90
 -11   9  -9    5.10    1.30
 -13  -8   9   23.80    4.40
  11   8  -9  114.59    4.10
  10   8  -9   73.49    2.90
 -10  -8   9   71.49    2.70
   9   8  -9   91.19    3.30
  -9  -8   9   91.59    3.20
  -8  -8   9  383.66   11.20
   7   8  -9  123.89    4.10
  -7  -8   9  127.19    4.10
   6   8  -9  443.86   13.00
  -6  -8   9  453.85   13.00
   5   8  -9    1.70    0.40
  -5  -8   9    1.10    0.40
   4   8  -9  939.91   27.10
  -4  -8   9  970.40   27.20
   3   8  -9   18.80    1.20
  -3  -8   9   19.30    1.30
   2   8  -9  192.58    6.00
  -2  -8   9  202.98    6.10
   1   8  -9   24.50    1.40
  -1  -8   9   24.10    1.50
   0   8  -9  113.59    3.80
   0  -8   9  118.59    3.90
  -1   8  -9  189.28    5.90
   1  -8   9  189.18    5.90
  -2   8  -9    3.30    0.70
   2  -8   9    4.10    0.70
   2  -8   9    2.90    0.80
  -3   8  -9  721.13   20.80
   3  -8   9  723.73   21.10
   3  -8   9  721.33   20.80
  -4   8  -9  320.27    9.70
   4  -8   9  321.17    9.70
  -5   8  -9    1.70    0.90
   5  -8   9    1.90    0.90
   5  -8   9    1.30    0.70
  -6   8  -9  382.26   11.50
   6  -8   9  371.46   11.40
   6  -8   9  381.86   11.40
  -7   8  -9   -0.70    0.80
   7  -8   9    1.20    0.70
   7  -8   9   -0.60    0.80
  -8   8  -9  251.87    8.20
  -9   8  -9   18.80    2.40
 -10   8  -9   21.00    2.60
 -11   8  -9    2.20    1.10
  11   7  -9    0.90    0.60
 -11  -7   9    0.30    0.50
  10   7  -9    0.30    0.50
 -10  -7   9    0.00    0.50
   9   7  -9   52.39    2.20
   8   7  -9  910.31   26.50
  -8  -7   9  954.00   26.50
   7   7  -9    7.10    1.00
  -7  -7   9    6.90    1.00
   6   7  -9   12.60    1.00
  -6  -7   9   13.10    1.10
   5   7  -9   24.90    1.30
  -5  -7   9   25.40    1.40
   4   7  -9   18.20    1.10
  -4  -7   9   23.10    1.30
   3   7  -9   51.19    2.00
  -3  -7   9   53.69    2.10
   2   7  -9   23.10    1.30
  -2  -7   9   25.90    1.40
   1   7  -9  166.38    5.20
  -1  -7   9  168.18    5.20
   0   7  -9   91.09    3.20
   0  -7   9   92.19    3.20
  -1   7  -9  434.76   12.90
   1  -7   9  446.36   12.90
  -2   7  -9    2.30    0.60
   2  -7   9    2.10    0.60
  -3   7  -9  297.17    9.00
   3  -7   9  297.77    9.00
  -4   7  -9  662.33   19.30
   4  -7   9  652.63   19.30
   4  -7   9  676.13   19.20
  -5   7  -9  220.28    7.10
   5  -7   9  220.48    6.90
   5  -7   9  212.18    6.90
  -6   7  -9   54.39    3.00
   6  -7   9   59.09    2.80
  -7   7  -9   66.09    3.20
   7  -7   9   65.99    3.00
  -9   7  -9  169.28    6.00
 -10   7  -9   -0.70    0.90
 -11   7  -9   69.19    3.70
  11   6  -9  313.47    9.40
 -11  -6   9  310.77    9.30
  10   6  -9    8.50    1.20
 -10  -6   9    9.90    1.20
   9   6  -9  222.08    6.80
  -9  -6   9  222.68    6.70
   8   6  -9   85.19    3.00
  -8  -6   9   89.79    3.00
   7   6  -9  824.62   23.60
  -7  -6   9  831.32   23.60
   6   6  -9  245.68    7.40
  -6  -6   9  254.37    7.40
   5   6  -9   45.10    1.80
  -5  -6   9   50.49    1.90
   4   6  -9    5.30    0.80
  -4  -6   9    4.70    0.50
   3   6  -9   88.09    2.90
  -3  -6   9   89.99    3.00
   2   6  -9  795.62   23.10
  -2  -6   9  826.52   23.10
   1   6  -9    2.90    0.50
  -1  -6   9    2.90    0.50
   0   6  -9   18.50    1.30
   0  -6   9   18.70    1.40
  -1   6  -9  123.69    4.10
   1  -6   9  128.29    4.20
  -2   6  -9   96.29    3.40
   2  -6   9   97.09    3.40
  -3   6  -9    4.20    0.70
  -4   6  -9  173.38    5.70
   4  -6   9  176.18    5.60
  -5   6  -9  173.08    6.40
   5  -6   9  183.68    5.80
   5  -6   9  178.68    5.70
  -6   6  -9  503.35   15.30
   6  -6   9  527.15   15.20
  -7   6  -9  352.86   10.90
   7  -6   9  358.26   10.80
  -8   6  -9  328.47   10.20
  -9   6  -9    7.40    1.20
 -10   6  -9    0.60    1.00
 -11   6  -9   96.19    4.40
 -12  -5   9  400.16   11.80
  11   5  -9   83.79    3.20
 -11  -5   9   86.39    3.00
 -10  -5   9   63.29    2.40
   9   5  -9  150.78    4.70
  -9  -5   9  145.89    4.70
   8   5  -9  208.98    6.30
   7   5  -9  110.19    3.50
  -7  -5   9  110.19    3.60
   6   5  -9 1842.62   53.89
  -6  -5   9 1939.81   53.79
   5   5  -9   33.60    1.40
  -5  -5   9   32.70    1.50
   4   5  -9    1.50    0.40
  -4  -5   9    1.50    0.40
   3   5  -9   28.00    1.40
  -3  -5   9   29.70    1.50
   2   5  -9 1038.70   29.70
  -2  -5   9 1061.79   29.80
   1   5  -9   97.99    3.30
  -1  -5   9  103.19    3.40
   0   5  -9  310.37    9.40
   0  -5   9  325.07    9.40
  -1   5  -9  720.33   21.10
   1  -5   9  752.82   21.10
  -2   5  -9  823.42   24.00
   2  -5   9  852.01   24.00
  -3   5  -9   20.20    1.70
   3  -5   9   22.10    1.60
  -4   5  -9   85.19    3.30
   4  -5   9   85.29    3.20
  -5   5  -9   23.60    3.20
   5  -5   9   29.60    2.00
   5  -5   9   31.80    1.90
  -6   5  -9   55.59    2.80
   6  -5   9   53.19    2.70
  -7   5  -9   88.79    3.70
  -8   5  -9   -0.70    0.80
  -9   5  -9  410.86   12.60
 -10   5  -9  100.39    4.40
 -11   5  -9  122.99    5.10
 -12  -4   9  236.88    7.20
  11   4  -9   30.70    1.70
 -11  -4   9   31.10    1.60
  10   4  -9   12.30    1.20
 -10  -4   9   11.90    1.10
   9   4  -9  309.37    9.10
  -9  -4   9  306.87    9.10
   8   4  -9 1029.50   29.80
  -8  -4   9 1075.79   29.80
   7   4  -9   17.60    1.10
  -7  -4   9   16.80    1.10
   6   4  -9  740.43   21.40
  -6  -4   9  768.12   21.50
   5   4  -9   84.59    2.80
  -5  -4   9   87.29    2.90
   4   4  -9  566.04   16.30
  -4  -4   9  578.44   16.40
   3   4  -9  196.88    6.00
  -3  -4   9  203.88    6.10
   2   4  -9  177.08    5.50
  -2  -4   9  186.08    5.60
   1   4  -9 1539.75   43.00
  -1  -4   9 1473.75   42.50
   0   4  -9  444.86   13.00
   0  -4   9  448.56   13.00
  -1   4  -9   26.20    1.60
   1  -4   9   25.80    1.60
  -2   4  -9   22.90    1.60
   2  -4   9   22.40    1.60
  -3   4  -9   50.59    2.40
   3  -4   9   52.39    2.30
  -4   4  -9  119.39    4.20
   4  -4   9  118.49    4.10
  -5   4  -9    3.10    1.50
   5  -4   9    4.60    0.80
  -6   4  -9    2.00    0.80
   6  -4   9    3.00    0.80
  -7   4  -9  709.23   20.40
   7  -4   9  687.13   20.30
  -8   4  -9    0.20    0.90
  -9   4  -9  404.36   12.50
 -10   4  -9    7.70    1.30
 -11   4  -9    2.20    1.10
 -13  -3   9    3.60    0.60
 -11  -3   9   24.20    1.40
  10   3  -9   74.79    2.70
 -10  -3   9   74.19    2.60
   9   3  -9  750.62   21.80
  -9  -3   9  777.22   21.80
   8   3  -9   57.09    2.10
  -8  -3   9   59.59    2.10
   7   3  -9   66.79    2.30
  -7  -3   9   66.29    2.30
   6   3  -9  422.46   12.10
   5   3  -9 1066.89   29.80
  -5  -3   9 1031.80   29.70
   4   3  -9  386.66   11.30
  -4  -3   9  401.96   11.40
  -3  -3   9  774.52   22.10
   2   3  -9   48.90    1.90
  -2  -3   9   51.39    2.10
   1   3  -9  695.83   20.00
  -1  -3   9  707.23   20.10
   0   3  -9   32.30    1.60
   0  -3   9   30.90    1.70
   1  -3   9  116.09    3.90
  -2   3  -9   11.10    1.40
   2  -3   9   11.70    1.40
  -3   3  -9  447.96   13.30
   3  -3   9  458.95   13.30
  -4   3  -9  267.87    8.30
   4  -3   9  266.27    7.80
   4  -3   9  273.77    8.20
   5  -3   9  154.08    5.20
  -6   3  -9    3.20    0.90
   6  -3   9    4.60    0.80
  -7   3  -9  671.03   19.50
   7  -3   9  658.13   19.40
  -8   3  -9   80.09    3.70
  -9   3  -9  195.48    6.80
 -10   3  -9   27.10    2.70
 -11   3  -9   61.39    3.60
 -18  -2   9   33.80    3.10
 -17  -2   9   62.19    3.30
 -13  -2   9    2.10    0.50
 -12  -2   9  152.48    4.80
  11   2  -9  190.68    6.00
 -11  -2   9  192.68    5.80
  10   2  -9  638.04   18.70
 -10  -2   9  666.43   18.60
   9   2  -9  123.09    4.00
  -9  -2   9  127.29    4.00
   8   2  -9  105.49    3.40
  -8  -2   9  109.99    3.50
   7   2  -9  512.85   15.00
  -7  -2   9  535.85   15.00
   6   2  -9  784.52   22.50
  -6  -2   9  807.42   22.60
   5   2  -9   85.59    2.70
  -5  -2   9   80.49    3.00
   4   2  -9  609.04   17.00
  -4  -2   9  585.14   17.20
   3   2  -9 2575.04   74.09
  -3  -2   9 2660.43   74.89
   2   2  -9  460.95   13.30
   1   2  -9  144.19    4.60
  -1  -2   9  147.79    4.60
   0   2  -9  191.58    6.00
   0  -2   9  199.18    6.00
  -1   2  -9  417.36   12.40
   1  -2   9  436.46   12.50
  -2   2  -9  435.56   12.90
   2  -2   9  446.46   12.90
   2  -2   9  435.06   12.60
  -3   2  -9  436.06   13.00
   3  -2   9  449.56   13.00
   3  -2   9  436.66   12.60
  -4   2  -9   19.50    1.90
   4  -2   9   21.30    1.80
   5  -2   9   24.20    1.90
  -6   2  -9  139.49    5.00
   6  -2   9  140.89    4.90
  -7   2  -9    5.80    1.00
   7  -2   9    7.30    1.00
  -8   2  -9    3.40    1.00
  -9   2  -9   97.59    4.20
 -10   2  -9   10.20    1.40
 -11   2  -9  207.08    7.30
 -18  -1   9   19.30    2.80
 -17  -1   9   40.10    2.80
 -16  -1   9   89.49    3.80
 -14  -1   9   28.40    1.70
 -13  -1   9   44.20    2.00
 -12  -1   9   37.20    1.80
  11   1  -9   29.40    1.60
 -11  -1   9   30.00    1.50
  10   1  -9  205.38    6.40
 -10  -1   9  215.38    6.30
   9   1  -9  129.19    4.20
  -9  -1   9  135.29    4.10
   8   1  -9   32.20    1.40
  -8  -1   9   32.60    1.40
   7   1  -9  141.49    4.40
  -7  -1   9  149.88    4.50
   6   1  -9  144.49    3.90
  -6  -1   9  108.79    4.50
   5   1  -9  402.46   11.60
  -5  -1   9  404.96   11.60
   4   1  -9  488.75   14.40
  -4  -1   9  521.35   14.50
   3   1  -9  194.58    5.90
  -3  -1   9  202.18    6.00
   2   1  -9   44.50    1.80
  -2  -1   9   44.80    1.90
   1   1  -9  309.77    8.80
  -1  -1   9  286.67    9.00
   0   1  -9  224.68    6.80
   0  -1   9  231.58    6.90
   0  -1   9  221.78    6.70
  -1   1  -9  462.95   13.50
   1  -1   9  477.35   13.50
   1  -1   9  452.25   13.30
  -2   1  -9  273.17    8.40
   2  -1   9  276.07    8.10
   2  -1   9  287.07    8.40
  -3   1  -9    1.40    0.60
   3  -1   9    2.20    0.50
   3  -1   9    2.10    0.60
  -4   1  -9   -1.00    0.70
   4  -1   9    0.10    0.60
  -5   1  -9  386.06   12.10
   5  -1   9  413.16   11.90
  -6   1  -9   56.39    3.00
   6  -1   9   58.39    2.70
  -7   1  -9   95.89    4.00
   7  -1   9  102.19    4.20
  -8   1  -9    1.30    1.00
  -9   1  -9  423.76   13.00
 -10   1  -9  358.86   11.40
 -11   1  -9   -1.20    1.10
 -18   0   9    0.10    1.00
 -17   0   9    0.40    0.90
 -16   0   9   12.50    1.90
 -15   0   9    7.50    1.00
 -14   0   9  386.06   11.60
 -14   0   9  383.96   11.30
 -13   0   9 1203.28   33.50
 -13   0   9 1162.58   33.70
 -12   0   9   76.69    2.70
  11   0  -9    4.70    0.60
 -11   0   9    5.50    1.00
  10   0  -9   45.80    1.90
 -10   0   9   46.10    1.80
   9   0  -9  876.41   25.30
  -9   0   9  907.11   25.30
   8   0  -9  370.46   10.80
  -8   0   9  379.36   10.80
   7   0  -9  286.47    8.00
  -7   0   9  259.77    8.20
   6   0  -9   31.00    1.30
  -6   0   9   35.10    1.50
   5   0  -9  547.85   15.90
  -5   0   9  574.54   16.00
   4   0  -9  308.87    9.00
  -4   0   9  315.17    9.10
   3   0  -9   21.90    1.20
  -3   0   9   23.70    1.40
  -3   0   9   24.70    1.30
   2   0  -9  478.45   13.80
  -2   0   9  481.55   13.90
  -2   0   9  487.05   13.90
   1   0  -9    1.50    0.50
  -1   0   9    2.10    0.50
   0   0  -9   37.90    1.80
   0   0   9   36.80    1.80
   0   0   9   38.90    1.70
  -1   0  -9  183.28    5.90
   1   0   9  192.18    5.90
   1   0   9  191.68    5.70
  -2   0  -9  133.69    4.50
   2   0   9  135.39    4.30
   2   0   9  140.59    4.50
  -3   0  -9  435.46   13.10
   3   0   9  459.05   13.10
   3   0   9  439.66   12.90
  -4   0  -9    3.50    0.80
   4   0   9    4.10    0.60
   4   0   9    3.70    0.80
  -5   0  -9   14.60    2.00
   5   0   9   16.90    1.80
  -6   0  -9    8.10    1.00
   6   0   9    9.70    1.70
  -7   0  -9   61.49    3.10
  -8   0  -9   22.60    2.40
  -9   0  -9   34.60    2.80
 -10   0  -9   22.50    2.80
 -18   1   9   18.20    2.70
 -17   1   9    0.00    0.90
 -15   1   9  148.39    5.20
 -15   1   9  155.68    5.50
 -14   1   9   46.00    2.60
 -14   1   9   52.59    2.20
 -13   1   9  248.08    7.70
 -13   1   9  245.68    7.40
 -12   1   9  226.08    7.00
 -12   1   9  219.38    6.70
  11  -1  -9   37.80    1.90
 -11   1   9   44.00    2.20
 -11   1   9   43.30    1.80
  10  -1  -9  387.96   11.60
 -10   1   9  412.16   11.60
 -10   1   9  403.06   11.80
   9  -1  -9  468.05   14.10
  -9   1   9  506.95   14.00
  -9   1   9  495.15   14.30
   8  -1  -9  104.59    3.40
  -8   1   9  110.29    3.70
  -8   1   9  111.79    3.40
   7  -1  -9    6.70    0.70
  -7   1   9    6.90    0.90
  -7   1   9    5.90    1.10
   6  -1  -9  181.08    5.40
  -6   1   9  181.28    5.50
  -6   1   9  186.08    5.70
   5  -1  -9  345.17   10.00
  -5   1   9  344.67   10.20
  -5   1   9  358.16   10.10
   4  -1  -9  464.85   13.80
  -4   1   9  496.15   13.90
  -4   1   9  487.05   14.00
   3  -1  -9    0.90    0.40
  -3   1   9    1.40    0.50
  -3   1   9    1.20    0.40
   2  -1  -9  388.26   11.30
  -2   1   9  396.66   11.30
  -2   1   9  386.16   11.30
   1  -1  -9  674.23   19.20
  -1   1   9  688.23   19.40
  -1   1   9  661.93   19.30
   0  -1  -9  137.89    4.40
   0   1   9  138.99    4.40
   0   1   9  141.79    4.50
  -1  -1  -9   -0.10    0.50
   1   1   9    0.60    0.50
   1   1   9    0.60    0.40
  -2  -1  -9    3.00    0.60
   2   1   9    2.90    0.60
   2   1   9    2.90    0.50
  -3  -1  -9  278.77    8.60
   3   1   9  291.57    8.60
   3   1   9  277.27    8.50
  -4  -1  -9  102.19    3.90
   4   1   9  107.69    3.90
   4   1   9  110.79    3.70
  -5  -1  -9  152.48    5.30
   5   1   9  152.28    5.20
  -6  -1  -9  235.68    7.60
  -7  -1  -9  167.48    5.90
  -8  -1  -9    1.50    1.00
  -9  -1  -9   51.69    3.20
 -10  -1  -9   40.80    3.30
 -18   2   9    5.20    1.20
 -17   2   9   -0.50    0.90
 -16   2   9  150.58    6.60
 -15   2   9   20.30    2.10
 -15   2   9   20.30    1.60
 -14   2   9  320.47   10.00
 -14   2   9  340.67    9.80
 -13   2   9   33.70    1.80
 -13   2   9   36.70    2.20
 -12   2   9  628.24   18.20
 -12   2   9  645.94   18.50
  11  -2  -9  454.55   13.50
 -11   2   9  470.55   13.70
 -11   2   9  470.95   13.40
  10  -2  -9  461.55   13.60
 -10   2   9  474.55   13.80
 -10   2   9  478.85   13.50
   9  -2  -9   93.09    3.00
  -9   2   9   90.49    3.00
  -9   2   9   93.29    3.30
   8  -2  -9  404.46   11.80
  -8   2   9  413.06   12.10
  -8   2   9  419.36   11.90
   7  -2  -9  602.34   17.80
  -7   2   9  645.04   17.90
  -7   2   9  636.34   18.10
   6  -2  -9  219.38    6.60
  -6   2   9  230.08    6.70
  -6   2   9  232.78    6.90
   5  -2  -9  404.36   11.30
  -5   2   9  398.16   11.40
  -5   2   9  387.36   11.60
   4  -2  -9   18.30    1.00
  -4   2   9   20.40    1.30
  -4   2   9   19.80    1.30
   3  -2  -9  698.03   20.40
  -3   2   9  720.73   20.50
  -3   2   9  738.23   20.60
   2  -2  -9  194.98    5.90
  -2   2   9  198.88    6.00
  -2   2   9  201.58    6.10
   1  -2  -9   92.69    3.20
  -1   2   9   94.89    3.20
  -1   2   9   96.99    3.30
   0  -2  -9   13.10    1.30
   0   2   9   15.10    1.30
   0   2   9   13.60    1.30
  -1  -2  -9   97.49    3.40
   1   2   9  100.89    3.40
   1   2   9   94.99    3.40
  -2  -2  -9  548.75   15.80
   2   2   9  549.05   15.80
   2   2   9  533.65   15.80
  -3  -2  -9   91.09    3.50
   3   2   9   95.89    3.40
   3   2   9   90.69    3.40
  -4  -2  -9  227.88    7.20
   4   2   9  231.58    7.10
   4   2   9  226.78    7.20
  -5  -2  -9   68.09    3.10
   5   2   9   66.89    2.90
  -6  -2  -9    5.60    1.00
  -7  -2  -9   12.80    2.20
  -8  -2  -9   59.29    3.30
  -9  -2  -9  379.36   11.90
 -10  -2  -9   58.69    3.70
 -19   3   9    2.20    1.40
 -18   3   9   23.90    3.20
 -17   3   9   38.00    3.00
 -16   3   9    6.50    1.10
 -15   3   9   46.00    2.70
 -15   3   9   46.80    2.20
 -14   3   9  256.67    7.60
 -14   3   9  242.68    7.90
 -13   3   9   81.59    2.80
 -13   3   9   68.59    3.20
 -12   3   9   16.10    1.80
 -12   3   9   18.50    1.30
 -11   3   9   65.59    2.80
 -11   3   9   67.79    2.40
  10  -3  -9   25.40    1.30
 -10   3   9   25.70    1.70
 -10   3   9   23.70    1.30
   9  -3  -9   29.90    1.30
  -9   3   9   29.60    1.70
   8  -3  -9  108.19    3.40
  -8   3   9  109.19    3.70
  -8   3   9  113.29    3.40
   7  -3  -9    0.70    0.30
  -7   3   9    1.20    0.50
  -7   3   9    0.80    0.30
   6  -3  -9  173.08    5.20
  -6   3   9  170.68    5.60
  -6   3   9  191.08    5.30
   5  -3  -9   18.60    0.90
  -5   3   9   17.80    1.20
  -5   3   9   17.60    1.30
   4  -3  -9    1.50    0.30
  -4   3   9    2.00    0.50
  -4   3   9    2.10    0.50
   3  -3  -9    7.70    0.90
  -3   3   9    7.80    1.10
  -3   3   9    7.10    1.20
   2  -3  -9   38.60    1.60
  -2   3   9   40.40    1.80
  -2   3   9   41.00    1.90
   1  -3  -9   97.79    3.30
  -1   3   9  100.69    3.50
  -1   3   9  101.39    3.40
   0  -3  -9   22.20    1.50
   0   3   9   17.80    1.60
   0   3   9   23.00    1.50
  -1  -3  -9  229.78    6.90
   1   3   9  225.98    6.90
   1   3   9  225.38    7.10
  -2  -3  -9  200.58    6.30
   2   3   9  200.88    6.50
   2   3   9  205.18    6.30
  -3  -3  -9   32.40    2.10
   3   3   9   34.80    2.20
   3   3   9   35.20    2.10
  -4  -3  -9   36.70    2.30
   4   3   9   41.20    2.40
  -5  -3  -9  139.99    5.00
   5   3   9  145.19    5.00
  -6  -3  -9    0.40    0.80
  -7  -3  -9   47.80    3.00
  -8  -3  -9   -0.40    1.00
  -9  -3  -9   60.89    3.60
 -19   4   9   27.40    3.80
 -18   4   9    7.40    1.40
 -17   4   9  106.39    4.60
 -16   4   9   23.30    2.60
 -16   4   9   23.40    2.20
 -15   4   9   -0.20    0.60
 -14   4   9  113.79    4.40
 -14   4   9  117.89    3.90
 -13   4   9  570.04   16.90
 -13   4   9  580.54   16.50
 -12   4   9  725.23   21.50
 -12   4   9  760.12   21.10
 -11   4   9   46.30    2.30
 -11   4   9   45.80    1.80
  10  -4  -9   19.30    1.20
 -10   4   9   17.30    1.60
 -10   4   9   18.10    1.10
   9  -4  -9    6.00    0.80
  -9   4   9    7.10    0.80
   8  -4  -9   42.50    1.50
  -8   4   9   40.20    1.60
  -8   4   9   38.50    2.00
   7  -4  -9   52.09    1.80
  -7   4   9   50.69    2.30
  -7   4   9   53.29    1.90
   6  -4  -9  431.36   12.50
  -6   4   9  440.26   12.90
  -6   4   9  445.46   12.60
   5  -4  -9  784.92   21.90
  -5   4   9  783.62   22.00
  -5   4   9  757.42   22.30
   4  -4  -9   25.70    1.20
   4  -4  -9   27.40    1.60
  -4   4   9   27.80    1.70
  -4   4   9   25.50    1.40
   3  -4  -9   27.20    1.50
   3  -4  -9   25.60    1.20
  -3   4   9   24.40    1.40
  -3   4   9   26.60    1.70
   2  -4  -9    0.40    0.40
   2  -4  -9    1.00    0.40
  -2   4   9    1.00    0.50
  -2   4   9    1.50    0.50
   1  -4  -9  357.16   10.40
   1  -4  -9  362.66   10.50
  -1   4   9  349.17   10.70
  -1   4   9  355.86   10.40
   0  -4  -9  351.06   10.20
   0  -4  -9  349.67   10.20
   0   4   9  332.47   10.50
   0   4   9  356.66   10.30
  -1  -4  -9  193.78    6.10
  -1  -4  -9  196.08    6.00
   1   4   9  196.88    6.10
   1   4   9  196.68    6.40
  -2  -4  -9  677.53   19.10
  -2  -4  -9  645.14   19.00
   2   4   9  670.23   19.10
   2   4   9  658.73   19.40
  -3  -4  -9   19.50    1.50
  -3  -4  -9   19.70    2.00
   3   4   9   18.60    2.20
  -4  -4  -9    1.50    0.80
   4   4   9    1.70    0.90
  -5  -4  -9   31.60    2.40
   5   4   9   28.70    2.60
  -6  -4  -9   47.00    2.90
   6   4   9   43.30    2.90
  -7  -4  -9  187.68    6.50
  -8  -4  -9    8.40    1.30
  -9  -4  -9    0.00    1.20
 -19   5   9    2.50    1.60
 -18   5   9   22.80    3.40
 -17   5   9    2.20    1.20
 -16   5   9   77.39    3.10
 -16   5   9   83.69    3.90
 -15   5   9  579.14   17.00
 -15   5   9  597.94   17.50
 -14   5   9  107.59    5.80
 -14   5   9  116.39    3.80
 -13   5   9  298.97    8.90
 -13   5   9  308.47    9.50
 -12   5   9   28.80    1.50
 -12   5   9   29.80    2.30
 -11   5   9  145.79    5.10
 -11   5   9  146.19    4.50
 -10   5   9    1.00    0.60
   9  -5  -9  107.29    3.30
  -9   5   9  102.59    3.80
  -9   5   9  107.59    3.30
   8  -5  -9   75.19    2.40
  -8   5   9   72.59    2.40
  -8   5   9   73.29    3.00
   7  -5  -9  636.34   18.20
   7  -5  -9  660.03   18.70
  -7   5   9  648.54   18.30
  -7   5   9  633.24   18.70
   6  -5  -9   18.70    1.50
   6  -5  -9   20.70    0.90
  -6   5   9   19.80    1.20
  -6   5   9   19.40    1.70
   5  -5  -9  868.51   25.30
   5  -5  -9  928.61   25.80
  -5   5   9  894.11   25.50
  -5   5   9  913.11   26.00
   4  -5  -9   99.09    3.20
   4  -5  -9  111.19    3.60
  -4   5   9  103.99    3.40
  -4   5   9  104.39    3.80
   3  -5  -9    7.30    1.20
   3  -5  -9    5.50    0.80
  -3   5   9    7.30    1.10
  -3   5   9    5.40    0.80
   2  -5  -9   67.59    2.60
   2  -5  -9   66.69    2.30
  -2   5   9   64.09    2.90
  -2   5   9   67.89    2.50
   1  -5  -9  267.87    8.00
   1  -5  -9  262.77    7.80
  -1   5   9  273.47    7.90
  -1   5   9  258.77    8.40
   0  -5  -9    6.00    0.70
   0   5   9    9.30    1.80
   0   5   9    8.60    1.30
  -1  -5  -9  423.36   12.20
  -1  -5  -9  414.26   12.20
   1   5   9  411.16   12.20
   1   5   9  412.46   12.60
  -2  -5  -9   42.00    2.30
  -2  -5  -9   41.30    2.00
   2   5   9   41.80    2.70
  -3  -5  -9    7.30    0.90
  -3  -5  -9    8.80    1.40
   3   5   9    7.00    1.10
  -5  -5  -9   21.70    2.30
   5   5   9   21.80    2.80
  -6  -5  -9   13.30    2.40
   6   5   9   10.60    1.40
  -7  -5  -9   62.39    3.40
  -8  -5  -9   25.50    2.90
 -18   6   9    3.20    1.60
 -17   6   9   10.50    1.50
 -16   6   9  183.38    6.50
 -16   6   9  177.08    5.70
 -15   6   9  190.58    5.90
 -15   6   9  188.78    6.70
 -14   6   9    3.60    0.60
 -14   6   9    4.60    1.00
 -13   6   9  377.46   11.00
 -13   6   9  376.06   11.70
 -12   6   9   38.00    3.70
 -12   6   9   38.20    1.70
 -11   6   9  606.14   17.00
 -11   6   9  590.14   17.60
 -10   6   9  162.28    5.60
 -10   6   9  168.38    5.00
   9  -6  -9    4.10    0.70
  -9   6   9    5.60    0.90
  -9   6   9    4.00    0.70
   8  -6  -9    0.70    0.50
   8  -6  -9    1.30    0.30
  -8   6   9    2.00    0.70
  -8   6   9    2.00    0.40
   7  -6  -9  277.77    8.10
  -7   6   9  283.17    8.80
  -7   6   9  286.27    8.20
   6  -6  -9   36.20    1.90
   6  -6  -9   36.60    1.20
  -6   6   9   32.80    2.10
  -6   6   9   29.50    1.50
   5  -6  -9    1.00    0.50
   5  -6  -9    0.80    0.30
  -5   6   9    1.80    0.50
  -5   6   9    1.70    0.70
   4  -6  -9  432.66   12.90
   4  -6  -9  481.35   13.40
  -4   6   9  460.95   13.70
  -4   6   9  448.26   13.00
   3  -6  -9  259.97    7.60
   3  -6  -9  267.97    8.00
  -3   6   9  260.77    7.70
  -3   6   9  263.57    8.40
   2  -6  -9  390.76   11.70
   2  -6  -9  400.06   11.40
  -2   6   9  407.16   12.10
  -2   6   9  391.66   11.50
   1  -6  -9  224.58    6.90
   1  -6  -9  226.08    6.60
  -1   6   9  213.18    7.30
  -1   6   9  222.18    6.70
   0  -6  -9    7.80    1.40
   0  -6  -9    5.90    0.70
   0   6   9    5.30    1.00
  -1  -6  -9   93.09    3.40
  -1  -6  -9   93.09    3.40
   1   6   9   92.49    4.00
  -2  -6  -9  397.76   11.70
  -2  -6  -9  385.16   11.60
   2   6   9  397.86   12.20
  -3  -6  -9   19.50    2.10
  -3  -6  -9   16.60    1.70
   3   6   9   20.20    2.60
  -4  -6  -9   84.49    3.30
  -4  -6  -9   83.39    3.80
   4   6   9   91.79    4.20
  -5  -6  -9  402.06   12.50
  -5  -6  -9  436.26   12.80
   5   6   9  438.06   13.10
  -6  -6  -9   79.19    3.70
   6   6   9   76.39    4.20
  -7  -6  -9    0.80    1.10
 -18   7   9   74.39    4.70
 -17   7   9  294.67    9.80
 -16   7   9   -0.20    1.10
 -15   7   9   37.10    3.10
 -15   7   9   31.10    2.00
 -14   7   9  300.37    9.50
 -14   7   9  290.47    8.70
 -13   7   9  456.25   13.10
 -13   7   9  454.35   13.90
 -12   7   9  131.49    4.10
 -12   7   9  131.49    5.00
 -11   7   9    4.10    0.90
 -11   7   9    3.30    0.50
  10  -7  -9   74.79    3.10
 -10   7   9   77.59    2.50
   9  -7  -9    1.10    0.60
  -9   7   9    2.50    0.40
  -9   7   9    3.80    0.90
   8  -7  -9   58.09    2.00
   8  -7  -9   58.39    2.60
  -8   7   9   58.29    2.90
  -8   7   9   60.79    2.10
   7  -7  -9   16.20    0.90
   7  -7  -9   18.10    1.70
  -7   7   9   18.50    1.20
   6  -7  -9 1219.68   34.10
   6  -7  -9 1224.38   34.60
  -6   7   9 1202.28   34.10
  -6   7   9 1208.88   34.90
   5  -7  -9 1290.07   36.40
   5  -7  -9 1290.97   35.90
  -5   7   9 1287.27   36.80
  -5   7   9 1252.87   36.00
   4  -7  -9   60.99    2.10
   4  -7  -9   72.89    2.80
  -4   7   9   73.79    3.20
  -4   7   9   60.69    2.30
   3  -7  -9   18.40    1.60
   3  -7  -9   16.70    1.00
  -3   7   9   18.50    1.30
  -3   7   9   15.90    2.00
   2  -7  -9   56.49    2.10
   2  -7  -9   58.89    2.50
  -2   7   9   54.09    3.00
  -2   7   9   56.49    2.20
   1  -7  -9   36.50    1.80
   1  -7  -9   34.50    2.00
  -1   7   9   32.10    2.50
   0  -7  -9    0.40    0.60
   0  -7  -9    0.20    0.60
   0   7   9    0.20    0.90
  -1  -7  -9    0.60    0.70
  -1  -7  -9    1.10    0.70
   1   7   9    1.70    1.10
  -2  -7  -9   37.20    2.30
  -2  -7  -9   39.60    2.20
   2   7   9   36.00    3.00
  -3  -7  -9  536.65   16.50
  -3  -7  -9  585.34   16.60
   3   7   9  580.24   17.20
  -4  -7  -9   16.50    2.30
  -4  -7  -9   13.10    2.00
   4   7   9   10.20    1.60
  -5  -7  -9  288.67    9.40
  -5  -7  -9  326.37    9.70
   5   7   9  316.17   10.20
  -6  -7  -9    4.70    1.20
   6   7   9    2.90    1.60
  -7  -7  -9   45.00    3.40
 -18   8   9  158.38    5.90
 -18   8   9  155.88    6.70
 -17   8   9   65.79    4.30
 -17   8   9   63.99    3.00
 -17   8   9   64.09    3.50
 -16   8   9    4.30    0.80
 -16   8   9    6.60    1.40
 -15   8   9   10.20    1.60
 -15   8   9   12.70    1.50
 -14   8   9    0.80    1.00
 -14   8   9    0.60    0.60
 -13   8   9  117.19    4.90
 -13   8   9  124.59    3.90
 -12   8   9    4.00    1.10
 -12   8   9    3.80    0.60
  11  -8  -9    4.20    0.80
 -11   8   9    2.80    0.50
 -11   8   9    3.80    0.90
  10  -8  -9  327.67    9.90
 -10   8   9  322.57    9.30
 -10   8   9  318.77   10.20
   9  -8  -9    9.70    1.60
  -9   8   9   10.40    1.00
  -9   8   9   10.30    2.00
   8  -8  -9  488.25   14.20
  -8   8   9  467.95   14.50
   7  -8  -9   64.09    2.90
  -7   8   9   66.39    3.70
   6  -8  -9   69.89    2.90
   5  -8  -9  394.26   11.80
   4  -8  -9   39.70    2.20
  -4   8   9   44.00    4.20
   3  -8  -9    0.60    0.60
   3  -8  -9    0.60    0.40
  -3   8   9    0.70    1.00
   2  -8  -9   17.40    1.20
   2  -8  -9   15.90    1.70
  -2   8   9   16.60    2.80
   1  -8  -9   85.99    3.40
   1  -8  -9   90.99    3.00
  -1   8   9   81.49    4.50
   0  -8  -9   16.40    1.60
   0  -8  -9   14.40    1.80
   0   8   9   10.00    1.70
  -1  -8  -9    4.70    0.80
  -1  -8  -9    5.80    0.90
   1   8   9    4.60    1.40
  -2  -8  -9  213.78    7.10
  -2  -8  -9  232.18    7.00
  -3  -8  -9  228.88    7.50
  -3  -8  -9  246.28    7.50
  -4  -8  -9   83.79    3.80
  -4  -8  -9  103.49    4.00
  -5  -8  -9    2.60    1.10
  -5  -8  -9    1.50    1.40
   5   8   9    0.40    1.80
  -6  -8  -9   72.79    3.80
   6   8   9   52.69    5.30
 -18   9   9   14.10    2.10
 -17   9   9    3.40    1.00
 -17   9   9    3.30    1.20
 -17   9   9    3.20    1.70
 -16   9   9   20.00    3.30
 -16   9   9   20.70    1.90
 -16   9   9   20.40    2.90
 -15   9   9  134.89    5.60
 -15   9   9  135.29    4.40
 -15   9   9  136.99    4.80
 -14   9   9  150.98    4.80
 -14   9   9  155.08    6.00
 -13   9   9  160.98    6.10
 -13   9   9  159.48    4.90
  12  -9  -9   99.89    4.10
 -12   9   9  110.79    4.60
 -12   9   9  106.39    3.40
  11  -9  -9   80.29    3.40
 -11   9   9   82.89    2.70
 -11   9   9   84.69    3.90
  10  -9  -9  124.89    4.50
 -10   9   9  123.69    3.80
 -10   9   9  128.89    5.00
   9  -9  -9   67.19    3.00
  -9   9   9   67.39    3.50
   8  -9  -9  238.28    7.70
  -8   9   9  247.48    8.20
   7  -9  -9  300.37    9.30
  -7   9   9  301.47    9.80
   6  -9  -9  287.17    9.10
  -6   9   9  302.97    9.60
   5  -9  -9  101.09    3.80
  -5   9   9   99.29    4.40
   4  -9  -9  428.76   12.80
  -4   9   9  427.36   13.40
   3  -9  -9    6.00    0.90
  -3   9   9    5.10    1.10
   2  -9  -9    0.60    0.50
   2  -9  -9   -0.40    0.70
  -2   9   9   -1.40    0.90
   1  -9  -9   -0.20    0.70
   1  -9  -9    1.00    0.60
  -1   9   9    0.40    1.00
   0  -9  -9   36.40    2.00
   0  -9  -9   31.30    2.30
   0   9   9   32.50    3.00
  -1  -9  -9  103.09    3.70
  -1  -9  -9   92.39    3.90
   1   9   9   96.19    4.80
  -2  -9  -9   25.60    2.30
  -2  -9  -9   30.30    2.30
   2   9   9   28.90    3.40
  -3  -9  -9   75.59    3.30
  -3  -9  -9   62.69    3.40
   3   9   9   73.49    4.50
  -4  -9  -9    2.00    1.10
  -4  -9  -9    3.80    1.10
   4   9   9    3.20    1.70
  -5  -9  -9   65.69    3.70
   5   9   9   57.19    4.80
 -17  10   9   13.20    1.90
 -17  10   9   12.30    1.40
 -16  10   9   45.20    2.50
 -16  10   9   46.40    4.00
 -16  10   9   49.99    3.00
 -15  10   9   37.40    3.60
 -15  10   9   39.30    2.60
 -15  10   9   40.40    2.10
 -14  10   9    1.80    0.80
 -14  10   9    0.10    1.10
 -14  10   9   -0.50    0.60
 -13  10   9   -1.00    1.10
 -13  10   9   -0.10    0.70
 -12  10   9    7.50    1.20
 -12  10   9    9.50    1.50
 -12  10   9    5.40    1.20
 -11  10   9  141.19    5.50
 -11  10   9  136.29    4.30
  10 -10  -9    6.10    0.90
   9 -10  -9   42.40    2.50
  -9  10   9   45.60    3.00
   8 -10  -9    3.90    0.90
  -8  10   9    6.30    1.30
   7 -10  -9   40.80    2.40
  -7  10   9   44.60    3.00
   6 -10  -9   43.50    2.50
  -6  10   9   46.00    3.20
   5 -10  -9    2.60    0.80
  -5  10   9    3.60    1.10
   4 -10  -9  136.69    4.90
  -4  10   9  142.39    5.60
   3 -10  -9  112.09    4.20
  -3  10   9  114.79    5.00
   2 -10  -9    2.70    0.70
  -2  10   9    2.00    1.10
   1 -10  -9   70.69    3.30
   1 -10  -9   77.79    2.70
  -1  10   9   77.29    4.20
   0 -10  -9   88.79    3.90
   0 -10  -9  102.29    3.50
   0  10   9   98.59    4.90
  -1 -10  -9   87.39    3.90
  -1 -10  -9   98.09    3.60
   1  10   9   99.49    5.00
  -2 -10  -9   36.80    2.60
  -2 -10  -9   26.30    2.70
   2  10   9   36.40    3.90
  -3 -10  -9    1.00    1.10
  -3 -10  -9   -1.60    1.10
   3  10   9    0.50    1.60
  -4 -10  -9  264.47    8.40
   4  10   9  251.07    9.50
 -17  11   9   12.40    2.10
 -17  11   9   17.70    3.20
 -16  11   9    6.90    1.20
 -16  11   9    5.80    1.60
 -15  11   9    0.00    0.90
 -15  11   9    0.50    1.40
 -14  11   9   24.90    3.30
 -14  11   9   23.20    2.20
 -14  11   9   26.90    1.90
 -13  11   9  289.57    8.50
 -13  11   9  281.97    8.60
 -13  11   9  304.07    9.90
 -12  11   9    6.20    1.20
 -11  11   9   59.59    3.60
 -10  11   9   23.40    2.80
  -9  11   9  169.38    6.40
  -8  11   9   71.99    3.90
  -7  11   9    4.80    1.30
  -6  11   9  166.98    6.40
  -5  11   9  230.38    8.20
  -4  11   9   -1.00    1.00
  -3  11   9  105.09    4.90
  -2  11   9   15.30    2.90
   1 -11  -9   -0.30    0.60
  -1  11   9   -1.30    1.30
   0 -11  -9  146.99    4.60
   0 -11  -9  135.59    4.70
   0  11   9  142.49    6.30
   1  11   9   -2.20    1.50
  -2 -11  -9   59.49    3.10
   2  11   9   58.89    4.70
   3  11   9  356.96   12.30
 -16  12   9    1.10    1.60
 -15  12   9    0.00    1.40
 -14  12   9    1.60    1.40
 -13  12   9   26.40    3.20
 -12  12   9   87.09    4.50
 -11  12   9    1.60    1.20
 -10  12   9  206.38    7.60
  -9  12   9  139.49    5.80
  -8  12   9  189.58    7.20
  -7  12   9  247.48    8.70
  -6  12   9  156.48    6.30
  -5  12   9    0.20    1.10
  -4  12   9  144.69    6.10
  -3  12   9   -0.80    1.10
  -2  12   9  388.96   12.90
  -1  12   9   11.20    1.90
   0  12   9   57.49    4.60
   1  12   9   -1.40    1.70
   2  12   9  176.38    7.90
 -15  13   9    1.60    1.60
 -14  13   9    6.60    1.70
 -13  13   9   -1.00    1.40
 -12  13   9  417.16   13.60
 -11  13   9   18.30    3.00
 -10  13   9    0.60    1.10
  -9  13   9   -0.40    1.00
  -8  13   9    7.50    1.40
  -7  13   9   45.60    3.60
  -6  13   9   -1.00    1.00
  -5  13   9  220.28    8.20
  -4  13   9  576.64   18.20
  -3  13   9   56.59    4.20
  -2  13   9  147.19    6.60
  -1  13   9   10.80    2.00
   0  13   9  100.09    6.00
 -14  14   9   32.60    4.10
 -13  14   9   51.49    4.30
 -12  14   9   -0.20    1.30
 -11  14   9   49.99    4.10
 -10  14   9    6.50    1.60
  -9  14   9    1.20    1.10
  -8  14   9    0.10    1.30
  -7  14   9   48.90    3.90
  -6  14   9   -1.40    1.10
  -5  14   9   74.69    4.70
  -4  14   9   28.60    3.70
  -3  14   9   27.70    4.00
  -2  14   9    0.50    1.80
 -12  15   9    2.50    1.60
 -11  15   9  153.48    6.80
 -10  15   9  226.28    8.70
  -9  15   9   94.39    5.10
  -8  15   9    0.80    1.20
  -7  15   9   -1.20    1.20
  -6  15   9  191.28    7.80
  -5  15   9  114.59    5.90
  -4  15   9   33.40    4.20
   2  18 -10   79.49    3.20
   1  18 -10    6.50    0.90
   0  18 -10   32.40    2.10
  -1  18 -10   19.00    1.90
  -2  18 -10    9.30    1.00
  -3  18 -10   81.99    3.40
   5  17 -10  109.09    4.00
   4  17 -10   28.10    2.00
   3  17 -10    6.90    0.90
   2  17 -10   75.59    3.00
   1  17 -10   15.60    1.60
  -1 -17  10   15.10    2.80
   0  17 -10  200.78    6.20
   0 -17  10  192.98    6.70
  -1  17 -10   56.19    2.60
   1 -17  10   62.99    3.40
  -2  17 -10    7.90    0.90
  -3  17 -10    0.00    0.70
  -4  17 -10    0.20    0.80
  -5  17 -10    4.50    1.00
  -6  17 -10  128.59    4.90
   7  16 -10   75.79    3.20
   6  16 -10    0.80    0.70
   5  16 -10   35.50    2.10
   4  16 -10  136.89    4.60
   3  16 -10   67.19    2.70
  -3 -16  10   61.49    3.10
   2  16 -10   94.19    3.40
  -2 -16  10   90.09    3.70
   1  16 -10   95.09    3.30
  -1 -16  10   87.79    3.70
   0  16 -10   82.49    3.10
   0 -16  10   84.29    3.60
  -1  16 -10   49.40    2.40
   1 -16  10   51.29    2.80
  -2  16 -10   72.09    3.00
   2 -16  10   70.49    3.30
  -3  16 -10   -0.30    0.70
   3 -16  10    1.10    0.90
  -4  16 -10  138.89    4.90
  -5  16 -10  142.89    5.10
  -6  16 -10   77.49    3.70
  -7  16 -10  131.69    5.00
   8  15 -10   15.00    1.90
   7  15 -10    3.00    0.80
   6  15 -10  426.16   12.60
   5  15 -10  112.79    4.00
   4  15 -10  157.68    5.00
  -4 -15  10  149.88    5.20
   3  15 -10    0.70    0.60
  -3 -15  10    0.10    0.70
   2  15 -10   75.09    2.80
  -2 -15  10   71.79    3.10
   1  15 -10   60.99    2.50
  -1 -15  10   59.39    2.80
   0  15 -10   40.80    2.10
   0 -15  10   44.40    2.40
  -1  15 -10   62.59    2.60
   1 -15  10   57.29    2.80
  -2  15 -10  107.69    3.80
   2 -15  10  104.09    4.00
  -3  15 -10  144.09    4.90
   3 -15  10  141.09    5.00
  -4  15 -10    0.90    0.80
   4 -15  10    1.10    1.00
  -5  15 -10   19.30    2.20
  -6  15 -10   51.19    2.90
   6 -15  10   50.19    4.80
  -7  15 -10    6.60    1.20
   7 -15  10    4.90    2.00
  -8  15 -10   41.70    3.20
   9  14 -10   23.60    2.00
   8  14 -10   43.00    2.30
   7  14 -10   36.40    2.10
   6  14 -10   -0.40    0.60
   5  14 -10    0.00    0.50
  -5 -14  10    0.30    0.60
   4  14 -10   64.29    2.50
  -4 -14  10   58.29    2.70
   3  14 -10  157.78    5.00
  -3 -14  10  157.98    5.20
   2  14 -10  262.47    7.90
  -2 -14  10  262.37    8.10
   1  14 -10   11.60    1.40
  -1 -14  10   13.50    1.70
   0  14 -10   23.90    1.70
   0 -14  10   28.20    2.00
  -1  14 -10    3.20    0.70
   1 -14  10    3.70    1.40
   1 -14  10    4.00    0.80
  -2  14 -10   17.40    1.70
   2 -14  10   17.60    1.90
  -3  14 -10    0.60    0.70
   3 -14  10    1.00    1.30
  -4  14 -10    3.90    0.80
   4 -14  10    4.20    0.90
   4 -14  10    4.70    1.40
  -5  14 -10   26.10    2.30
   5 -14  10   32.70    3.80
  -6  14 -10  227.78    7.30
   6 -14  10  218.88    8.20
  -7  14 -10   23.40    2.60
   7 -14  10   23.40    4.10
  -8  14 -10   21.20    2.70
  10  13 -10   10.10    1.70
   9  13 -10   17.40    1.80
   8  13 -10    3.50    0.70
   7  13 -10    0.80    0.60
   6  13 -10   45.40    2.10
  -6 -13  10   44.00    2.20
   5  13 -10  216.98    6.60
  -5 -13  10  213.88    6.70
   4  13 -10  212.38    6.50
  -4 -13  10  211.08    6.70
   3  13 -10    2.90    0.60
  -3 -13  10    3.20    0.70
   2  13 -10   21.50    1.50
  -2 -13  10   22.60    2.50
  -2 -13  10   22.70    1.70
   1  13 -10   22.80    1.60
  -1 -13  10   23.50    2.50
  -1 -13  10   26.30    1.80
   0  13 -10   98.49    3.50
   0 -13  10  101.89    3.70
   0 -13  10   97.69    4.50
  -1  13 -10  235.68    7.30
   1 -13  10  242.58    8.30
   1 -13  10  236.38    7.50
  -2  13 -10  106.09    3.80
   2 -13  10  100.69    4.70
   2 -13  10  106.29    3.90
  -3  13 -10  310.77    9.40
   3 -13  10  303.57    9.40
   3 -13  10  307.17   10.20
  -4  13 -10  169.08    5.70
   4 -13  10  172.68    5.70
   4 -13  10  167.08    6.60
  -5  13 -10   95.59    3.90
   5 -13  10   94.79    4.80
   5 -13  10  101.39    4.10
  -6  13 -10    5.70    1.00
   6 -13  10    3.40    1.50
  -7  13 -10  124.09    4.70
   7 -13  10  118.89    5.40
  -8  13 -10   48.30    3.20
   8 -13  10   47.70    4.30
  -9  13 -10  148.49    5.70
  10  12 -10   70.49    3.00
   9  12 -10  225.18    7.10
   8  12 -10    2.50    0.60
   7  12 -10  258.37    7.90
  -7 -12  10  258.37    7.90
   6  12 -10  249.28    7.50
  -6 -12  10  238.78    7.50
   5  12 -10   10.90    1.20
  -5 -12  10    6.80    1.40
  -5 -12  10    8.70    1.30
   4  12 -10   12.50    1.20
  -4 -12  10    8.70    1.30
  -4 -12  10   12.30    1.50
   3  12 -10  251.37    8.20
  -3 -12  10  273.67    9.10
  -3 -12  10  275.77    8.10
   2  12 -10   44.70    2.90
  -2 -12  10   49.90    3.10
  -2 -12  10   51.49    2.30
   1  12 -10   87.39    3.60
  -1 -12  10   96.29    4.20
  -1 -12  10   88.89    3.40
   0 -12  10    5.90    1.10
   0 -12  10    9.50    1.50
  -1  12 -10   89.19    3.70
   1 -12  10   94.59    3.60
   1 -12  10   99.39    4.40
  -2  12 -10  126.19    4.30
   2 -12  10  121.69    5.10
   2 -12  10  124.29    4.40
  -3  12 -10   48.60    2.40
   3 -12  10   48.10    2.40
   3 -12  10   41.90    3.40
  -4  12 -10  196.28    6.30
   4 -12  10  189.18    6.30
   4 -12  10  191.58    7.00
  -5  12 -10   37.70    2.50
   5 -12  10   37.60    2.40
   5 -12  10   34.20    3.30
  -6  12 -10    4.00    1.00
   6 -12  10    3.20    1.40
  -7  12 -10   20.40    2.40
   7 -12  10   20.20    3.20
  -8  12 -10  273.17    8.90
   8 -12  10  277.57    9.10
  -9  12 -10   84.89    4.00
 -10  12 -10   50.79    3.60
  11  11 -10  156.18    5.30
  10  11 -10  182.08    6.00
   9  11 -10   63.59    2.70
   8  11 -10   89.69    3.30
  -8 -11  10   86.39    3.20
   7  11 -10  349.07   10.50
  -7 -11  10  351.56   10.50
  -7 -11  10  357.86   11.70
   6  11 -10  614.64   18.30
  -6 -11  10  645.24   18.40
  -6 -11  10  650.43   19.40
   5  11 -10   10.20    1.20
  -5 -11  10    8.90    1.30
  -5 -11  10    6.70    1.20
   4  11 -10  304.77    9.70
  -4 -11  10  318.77    9.50
  -4 -11  10  330.77   10.50
   3  11 -10   83.59    3.00
  -3 -11  10   81.89    3.10
  -3 -11  10   86.49    3.90
   2  11 -10  260.97    8.00
  -2 -11  10  268.17    8.10
  -2 -11  10  274.47    9.00
   1  11 -10  152.18    4.90
  -1 -11  10  155.98    5.80
  -1 -11  10  156.38    5.10
   0  11 -10   21.80    1.50
   0 -11  10   19.40    2.40
   0 -11  10   22.70    1.70
  -1  11 -10   72.69    2.90
   1 -11  10   76.29    3.70
   1 -11  10   75.39    3.00
  -2  11 -10 1358.16   43.90
   2 -11  10 1664.13   44.40
   2 -11  10 1599.04   43.70
  -3  11 -10  106.79    4.00
   3 -11  10  113.39    4.80
   3 -11  10  105.39    4.00
  -4  11 -10  223.88    7.10
   4 -11  10  221.78    7.60
   4 -11  10  218.78    7.10
  -5  11 -10   75.39    3.30
   5 -11  10   73.69    3.20
   5 -11  10   73.59    3.90
  -6  11 -10   79.19    3.50
   6 -11  10   78.19    4.10
  -7  11 -10  237.98    7.90
   7 -11  10  247.18    8.10
  -8  11 -10   19.60    2.50
   8 -11  10   18.10    3.00
  -9  11 -10   16.90    2.70
 -10  11 -10    9.90    1.50
  11  10 -10   86.09    3.40
  10  10 -10  190.08    6.10
   9  10 -10   24.40    1.70
  -9 -10  10   24.60    1.70
   8  10 -10  127.99    4.20
  -8 -10  10  123.89    4.20
   7  10 -10  478.95   14.20
  -7 -10  10  493.85   14.20
   6  10 -10   25.80    1.60
  -6 -10  10   28.60    1.60
   5  10 -10    6.70    1.10
  -5 -10  10    5.20    0.70
   4  10 -10  246.38    7.50
  -4 -10  10  252.47    7.60
   3  10 -10    1.00    0.50
  -3 -10  10    1.30    0.50
   2  10 -10  255.27    7.70
  -2 -10  10  262.07    7.90
   1  10 -10   28.80    1.60
  -1 -10  10   30.00    2.50
  -1 -10  10   30.60    1.80
   0  10 -10  172.98    5.60
   0 -10  10  178.68    5.70
   0 -10  10  178.08    6.30
  -1  10 -10  618.34   18.10
   1 -10  10  636.14   18.80
   1 -10  10  628.64   18.20
  -2  10 -10    2.80    0.80
   2 -10  10    2.10    0.70
   2 -10  10    0.60    1.10
  -3  10 -10  666.03   19.40
   3 -10  10  669.73   19.80
   3 -10  10  666.73   19.40
  -4  10 -10   75.59    3.30
   4 -10  10   71.69    3.10
   4 -10  10   76.79    3.70
  -5  10 -10   91.29    3.80
   5 -10  10   92.59    4.10
   5 -10  10   91.09    3.60
  -6  10 -10   35.20    2.50
   6 -10  10   36.60    3.00
   6 -10  10   38.00    3.30
  -7  10 -10  194.58    6.70
   7 -10  10  198.48    6.70
  -8  10 -10   38.40    2.80
   8 -10  10   31.30    4.50
  -9  10 -10   41.40    3.00
 -10  10 -10   -0.20    1.10
  11   9 -10   22.00    1.80
  10   9 -10   10.20    1.40
   9   9 -10   18.90    1.50
  -9  -9  10   19.90    1.50
   8   9 -10   48.00    2.10
  -8  -9  10   44.70    2.10
   7   9 -10  181.58    5.70
  -7  -9  10  185.38    5.70
   6   9 -10  131.69    4.30
  -6  -9  10  134.29    4.30
   5   9 -10  603.04   17.50
  -5  -9  10  620.24   17.60
   4   9 -10  264.07    8.00
  -4  -9  10  273.47    8.10
   3   9 -10  186.68    5.70
  -3  -9  10  183.28    5.80
   2   9 -10   31.50    1.60
  -2  -9  10   35.10    1.80
   1   9 -10  597.54   17.50
  -1  -9  10  620.54   17.60
   0   9 -10   95.69    3.30
   0  -9  10   94.39    3.40
  -1   9 -10   92.19    3.30
   1  -9  10   87.59    3.90
   1  -9  10   90.89    3.30
  -2   9 -10   32.90    2.00
   2  -9  10   31.20    2.60
   2  -9  10   32.20    2.00
  -3   9 -10  678.13   21.00
   3  -9  10  726.53   20.70
   3  -9  10  736.03   21.00
  -4   9 -10 1644.14   47.50
   4  -9  10 1691.53   47.70
   4  -9  10 1681.33   47.50
  -5   9 -10    2.30    0.90
   5  -9  10    2.70    1.00
   5  -9  10    2.80    0.80
  -6   9 -10   35.20    2.50
   6  -9  10   31.30    2.70
   6  -9  10   34.50    2.20
  -7   9 -10  146.09    5.30
   7  -9  10  148.09    5.30
  -8   9 -10  134.09    5.10
  -9   9 -10    4.60    1.20
 -10   9 -10   -0.30    1.10
 -11   9 -10  142.79    6.00
  12   8 -10   17.20    1.70
  11   8 -10  640.74   18.70
  10   8 -10    6.50    0.80
 -10  -8  10    9.00    1.30
   9   8 -10   21.60    1.50
  -9  -8  10   20.60    1.50
   8   8 -10  414.86   12.30
  -8  -8  10  424.16   12.30
   7   8 -10  480.95   14.20
  -7  -8  10  498.85   14.20
   6   8 -10  301.77    9.00
  -6  -8  10  307.97    9.10
   5   8 -10   18.30    1.20
  -5  -8  10   17.40    1.30
   4   8 -10  123.49    4.00
  -4  -8  10  130.49    4.20
   3   8 -10  172.28    5.40
  -3  -8  10  179.18    5.50
   2   8 -10    0.70    0.40
  -2  -8  10    1.30    0.50
   1   8 -10   95.99    3.30
  -1  -8  10   98.19    3.40
   0   8 -10  939.11   27.40
   0  -8  10  985.20   27.50
  -1   8 -10  512.75   15.10
   1  -8  10  524.85   15.20
  -2   8 -10  670.93   19.70
   2  -8  10  696.83   19.80
  -3   8 -10  149.69    6.00
   3  -8  10  151.78    5.10
   3  -8  10  155.78    5.50
  -4   8 -10 1172.08   34.40
   4  -8  10 1203.88   34.60
   4  -8  10 1239.58   34.40
   5  -8  10   91.19    5.50
   5  -8  10  116.79    4.00
  -6   8 -10   38.80    2.60
   6  -8  10   41.50    2.70
   6  -8  10   41.70    2.40
  -7   8 -10    6.00    1.00
  -8   8 -10   44.90    2.90
  -9   8 -10   19.70    2.50
 -10   8 -10    1.60    1.10
 -11   8 -10    7.80    1.50
  12   7 -10  279.17    8.60
  11   7 -10  132.69    4.50
 -11  -7  10  125.39    4.30
  10   7 -10   71.99    2.80
 -10  -7  10   72.79    2.70
   9   7 -10    2.10    0.50
  -9  -7  10    1.60    0.50
   8   7 -10  135.49    4.70
  -8  -7  10  147.79    4.60
   7   7 -10  353.46   10.50
  -7  -7  10  363.16   10.50
   6   7 -10  176.88    5.40
  -6  -7  10  175.38    5.50
   5   7 -10   58.29    2.20
  -5  -7  10   60.59    2.30
   4   7 -10   82.09    2.90
  -4  -7  10   86.59    3.00
   3   7 -10  306.27    9.20
  -3  -7  10  322.27    9.30
   2   7 -10  480.15   14.20
  -2  -7  10  504.95   14.30
   1   7 -10    8.00    1.10
  -1  -7  10    7.20    1.20
   0   7 -10  255.47    7.80
   0  -7  10  260.87    7.90
  -1   7 -10 1137.09   32.70
   1  -7  10 1163.18   32.80
  -2   7 -10   91.19    3.40
   2  -7  10   92.09    3.40
  -3   7 -10  258.27    8.10
   3  -7  10  266.57    8.10
  -4   7 -10  186.68    6.20
   4  -7  10  192.28    6.10
   4  -7  10  186.98    6.30
   5  -7  10  471.05   14.10
   5  -7  10  480.45   14.10
  -6   7 -10   44.20    2.70
   6  -7  10   43.30    2.50
   6  -7  10   45.30    2.60
  -7   7 -10    2.30    1.00
  -8   7 -10   28.80    2.60
  -9   7 -10    2.40    1.10
 -10   7 -10   84.09    4.10
 -11   7 -10    7.20    1.50
  12   6 -10  689.73   20.00
  11   6 -10    2.80    0.60
 -11  -6  10    2.50    0.60
  10   6 -10    4.60    0.70
 -10  -6  10    4.40    0.60
  -9  -6  10  542.95   15.70
   8   6 -10  904.81   25.70
  -8  -6  10  898.11   25.70
   7   6 -10    2.40    0.40
  -7  -6  10    2.00    0.40
   6   6 -10    5.20    0.90
  -6  -6  10    4.30    0.50
   5   6 -10  406.06   11.90
  -5  -6  10  418.26   12.00
   4   6 -10  811.42   23.50
  -4  -6  10  839.22   23.60
   3   6 -10  132.49    4.30
  -3  -6  10  141.59    4.40
   2   6 -10   68.79    2.50
  -2  -6  10   69.29    2.60
   1   6 -10  340.07   10.30
  -1  -6  10  364.66   10.40
   0   6 -10    3.60    0.60
   0  -6  10    2.80    0.60
  -1   6 -10  131.89    4.50
   1  -6  10  139.19    4.50
  -2   6 -10  188.18    6.00
   2  -6  10  187.98    6.00
  -3   6 -10  124.29    4.40
   3  -6  10  127.79    4.40
  -4   6 -10  218.98    7.10
   4  -6  10  227.58    7.10
  -5   6 -10   -0.90    0.80
   5  -6  10   -0.20    0.80
   5  -6  10    0.10    0.70
  -6   6 -10  124.69    4.70
   6  -6  10  127.89    4.60
  -7   6 -10    9.80    1.20
  -8   6 -10    0.70    0.90
  -9   6 -10  146.69    5.50
 -10   6 -10    2.10    1.10
 -11   6 -10    1.10    1.80
  12   5 -10   39.00    2.10
 -12  -5  10   38.20    2.00
  11   5 -10  472.05   14.10
 -11  -5  10  494.45   14.10
  10   5 -10   98.69    3.50
 -10  -5  10  103.29    3.50
   9   5 -10  134.19    4.30
  -9  -5  10  133.99    4.30
   8   5 -10  320.17    9.50
  -8  -5  10  324.17    9.50
   7   5 -10   46.10    1.80
  -7  -5  10   47.30    1.90
   6   5 -10    0.90    0.40
  -6  -5  10    0.60    0.40
   5   5 -10    3.10    0.40
  -5  -5  10    3.00    0.50
   4   5 -10  144.59    4.60
  -4  -5  10  153.28    4.70
   3   5 -10   39.10    1.70
  -3  -5  10   41.00    1.90
   2   5 -10  374.96   11.10
  -2  -5  10  389.06   11.20
   1   5 -10  778.22   22.70
  -1  -5  10  812.82   22.80
   0   5 -10  632.14   18.60
   0  -5  10  662.23   18.70
  -1   5 -10    8.50    1.30
   1  -5  10    7.50    1.40
  -2   5 -10    4.80    0.80
   2  -5  10    3.80    0.60
  -3   5 -10  345.07   10.50
   3  -5  10  353.46   10.50
  -4   5 -10  828.72   24.40
   4  -5  10  861.91   24.40
  -5   5 -10   14.00    2.00
   5  -5  10   17.00    1.90
  -6   5 -10   27.40    2.40
   6  -5  10   28.00    2.30
  -8   5 -10    2.10    1.00
  -9   5 -10   42.00    3.00
 -10   5 -10   11.60    1.50
  12   4 -10    2.60    0.60
 -12  -4  10    2.10    0.50
  11   4 -10  557.54   16.40
 -11  -4  10  576.64   16.40
  10   4 -10  374.86   11.40
 -10  -4  10  399.76   11.30
   9   4 -10   12.00    1.10
  -9  -4  10   12.80    1.10
   8   4 -10   40.60    1.70
  -8  -4  10   39.20    1.70
   7   4 -10  339.47   10.10
  -7  -4  10  355.26   10.20
  -6  -4  10    2.90    0.50
   5   4 -10   47.00    1.80
  -5  -4  10   47.00    1.90
   4   4 -10  180.98    5.60
  -4  -4  10  189.98    5.70
   3   4 -10 1219.98   35.10
  -3  -4  10 1265.87   35.20
   2   4 -10  117.09    3.90
  -2  -4  10  123.89    4.00
   1   4 -10   42.80    1.90
  -1  -4  10   45.10    2.00
   0   4 -10    2.00    0.60
   0  -4  10    1.80    0.60
  -1   4 -10  384.16   11.50
   1  -4  10  396.36   11.50
  -2   4 -10  372.06   11.10
   2  -4  10  378.16   11.20
  -3   4 -10    0.50    0.60
   3  -4  10    0.80    0.60
  -4   4 -10   11.60    1.90
   4  -4  10   14.80    1.70
  -5   4 -10   47.00    2.70
   5  -4  10   49.90    2.50
   6  -4  10    5.40    0.90
  -7   4 -10  101.69    4.10
  -8   4 -10    2.50    1.00
  -9   4 -10   27.80    2.70
 -10   4 -10   17.40    2.60
 -13  -3  10   43.70    2.00
  12   3 -10  157.38    5.10
 -12  -3  10  158.48    5.00
  11   3 -10  229.68    7.50
 -11  -3  10  252.57    7.30
  10   3 -10  289.97    8.80
 -10  -3  10  299.97    8.70
   9   3 -10   49.00    2.00
  -9  -3  10   51.09    2.00
   8   3 -10  211.18    6.40
  -8  -3  10  213.98    6.40
   7   3 -10  329.47    9.90
  -7  -3  10  348.87    9.90
   6   3 -10  256.27    7.50
  -6  -3  10  256.87    7.60
   5   3 -10  331.27    9.70
  -5  -3  10  338.47    9.80
   4   3 -10   83.49    2.80
  -4  -3  10   87.39    3.00
   3   3 -10  501.65   14.60
  -3  -3  10  512.55   14.70
   2   3 -10   15.30    1.20
  -2  -3  10   15.10    1.40
   1   3 -10  128.59    4.20
  -1  -3  10  132.29    4.30
   0   3 -10  134.99    4.40
   0  -3  10  139.09    4.50
  -1   3 -10  268.67    8.20
   1  -3  10  274.67    8.20
  -2   3 -10  668.93   19.60
   2  -3  10  690.93   19.60
  -3   3 -10   36.50    2.20
   3  -3  10   34.90    1.60
   3  -3  10   34.10    2.00
  -4   3 -10   83.19    3.90
   4  -3  10  100.09    3.00
   4  -3  10   92.99    3.60
  -5   3 -10  600.84   17.90
   5  -3  10  618.34   17.80
  -6   3 -10   77.49    3.50
   6  -3  10   77.39    3.20
  -7   3 -10   74.59    3.50
  -8   3 -10  138.39    5.20
  -9   3 -10  374.46   11.70
 -10   3 -10    5.50    1.20
 -18  -2  10  102.89    4.60
 -17  -2  10  189.48    6.50
 -13  -2  10  731.63   21.00
  12   2 -10   73.29    2.80
 -12  -2  10   73.99    2.70
  11   2 -10   38.60    1.90
 -11  -2  10   43.60    1.90
  10   2 -10   20.80    1.40
 -10  -2  10   21.40    1.40
   9   2 -10 1390.86   39.90
  -9  -2  10 1434.26   39.90
   8   2 -10  941.41   27.10
  -8  -2  10  972.20   27.10
   7   2 -10   84.09    2.90
  -7  -2  10   90.89    3.00
   6   2 -10  127.69    4.10
  -6  -2  10  136.99    4.20
   5   2 -10 1215.08   34.50
  -5  -2  10 1230.88   34.60
   4   2 -10  740.83   21.20
  -4  -2  10  754.52   21.30
   3   2 -10    0.80    0.40
  -3  -2  10    1.50    0.50
   2   2 -10  544.55   16.10
  -2  -2  10  580.14   16.20
   1   2 -10  696.53   20.40
  -1  -2  10  735.23   20.50
   0   2 -10   48.00    2.10
   0  -2  10   50.19    2.20
  -1   2 -10  147.69    4.80
   1  -2  10  151.28    4.80
   1  -2  10  144.39    4.60
  -2   2 -10   75.59    3.10
   2  -2  10   79.99    3.00
   2  -2  10   80.59    2.70
  -3   2 -10 1103.19   32.10
   3  -2  10 1157.58   32.10
   3  -2  10 1113.29   31.80
  -4   2 -10  245.08    8.40
   4  -2  10  275.47    8.20
  -5   2 -10   49.99    2.80
   5  -2  10   55.69    2.70
  -6   2 -10  122.99    4.60
   6  -2  10  120.39    4.40
  -7   2 -10  252.27    8.20
  -8   2 -10   61.69    3.40
  -9   2 -10   31.10    2.80
 -10   2 -10   33.10    3.10
 -18  -1  10    3.30    1.10
 -17  -1  10   25.40    2.70
 -16  -1  10   25.70    2.40
 -14  -1  10   -0.10    0.50
  12   1 -10  453.85   14.00
 -12  -1  10  478.85   13.50
  11   1 -10   26.10    1.50
 -11  -1  10   26.90    1.50
  10   1 -10  214.08    6.60
 -10  -1  10  221.08    6.60
   9   1 -10  209.48    6.50
  -9  -1  10  222.28    6.50
   8   1 -10   15.90    1.00
  -8  -1  10   13.20    1.10
   7   1 -10  216.48    6.40
  -7  -1  10  219.08    6.50
   6   1 -10  624.74   18.10
  -6  -1  10  647.24   18.20
   5   1 -10  654.53   18.80
  -5  -1  10  669.73   18.90
   4   1 -10   57.29    2.10
  -4  -1  10   59.49    2.20
   3   1 -10  118.49    3.80
  -3  -1  10  124.19    4.00
   2   1 -10  141.89    4.50
  -2  -1  10  146.49    4.60
   1   1 -10 1441.56   42.50
  -1  -1  10 1546.95   43.00
  -1  -1  10 1533.35   42.60
   0   1 -10   92.79    3.30
   0  -1  10   92.99    3.10
   0  -1  10   94.49    3.30
  -1   1 -10    0.40    0.60
   1  -1  10    0.30    0.50
   1  -1  10    0.80    0.40
  -2   1 -10  310.07    9.30
   2  -1  10  303.57    9.10
   2  -1  10  315.87    9.30
  -3   1 -10  159.58    5.40
   3  -1  10  165.18    5.40
   3  -1  10  166.78    5.10
  -4   1 -10    3.90    0.90
   4  -1  10    5.20    0.90
  -5   1 -10  129.19    4.70
   5  -1  10  131.39    4.60
  -6   1 -10   34.20    2.60
   6  -1  10   38.80    2.40
  -7   1 -10   43.40    2.80
  -8   1 -10  408.46   12.60
  -9   1 -10    5.80    1.20
 -10   1 -10  104.49    4.70
 -18   0  10    0.90    1.10
 -17   0  10  146.49    5.40
 -16   0  10  165.18    5.70
 -15   0  10  114.99    4.30
 -14   0  10    2.00    1.40
 -14   0  10    1.80    0.50
 -13   0  10   12.90    1.40
 -13   0  10   18.30    1.90
  12   0 -10   26.20    1.70
 -12   0  10   26.80    1.50
  11   0 -10  794.92   23.50
 -11   0  10  851.21   23.40
  10   0 -10  726.73   21.40
 -10   0  10  773.72   21.40
   9   0 -10  131.19    4.10
  -9   0  10  133.19    4.10
   8   0 -10  768.42   22.40
  -8   0  10  812.92   22.50
   7   0 -10 1594.54   45.50
  -7   0  10 1615.94   45.20
   6   0 -10   18.60    1.00
  -6   0  10   18.30    1.20
   5   0 -10   31.10    1.40
  -5   0  10   33.40    1.60
   4   0 -10  240.48    7.10
  -4   0  10  242.08    7.30
   3   0 -10 1617.24   45.10
  -3   0  10 1687.73   45.30
  -3   0  10 1497.95   45.20
   2   0 -10 1096.69   31.30
  -2   0  10 1099.29   31.30
  -2   0  10 1119.39   31.30
   1   0 -10    0.40    0.50
  -1   0  10    0.90    0.40
  -1   0  10    0.60    0.50
   0   0 -10  256.87    7.80
   0   0  10  258.57    7.70
   0   0  10  263.57    7.90
  -1   0 -10  250.87    7.80
   1   0  10  262.27    7.80
   1   0  10  255.57    7.60
  -2   0 -10  112.99    4.00
   2   0  10  114.59    4.00
   2   0  10  113.89    3.80
  -3   0 -10  413.86   12.50
   3   0  10  429.56   12.60
   3   0  10  425.66   12.30
  -4   0 -10    0.60    0.80
   4   0  10    1.80    0.80
   4   0  10    1.10    0.60
  -5   0 -10  193.28    6.50
   5   0  10  198.68    6.40
  -6   0 -10   80.89    3.60
   6   0  10   81.89    3.80
  -7   0 -10    5.10    1.10
  -8   0 -10   78.59    3.80
  -9   0 -10  148.49    5.70
 -10   0 -10    3.20    1.20
 -18   1  10    4.00    1.10
 -17   1  10   10.60    1.20
 -16   1  10    5.90    1.00
 -15   1  10  117.39    4.60
 -15   1  10  133.19    5.10
 -14   1  10   95.29    5.30
 -14   1  10  107.19    3.60
 -13   1  10  287.17    8.40
 -13   1  10  272.97    8.60
  12  -1 -10  257.67    8.00
 -12   1  10  269.77    7.90
 -12   1  10  267.47    8.20
  11  -1 -10    0.40    0.40
 -11   1  10    1.00    0.70
 -11   1  10    0.80    0.40
  10  -1 -10   60.89    2.30
 -10   1  10   60.19    2.30
 -10   1  10   64.79    2.60
   9  -1 -10   20.60    1.20
  -9   1  10   20.00    1.20
  -9   1  10   22.00    1.60
   8  -1 -10    7.80    0.80
  -8   1  10    5.90    0.90
   7  -1 -10  168.68    5.20
  -7   1  10  178.68    5.50
  -7   1  10  172.68    5.30
   6  -1 -10  353.06    9.80
  -6   1  10  328.37   10.10
   5  -1 -10    2.70    0.40
  -5   1  10    2.90    0.50
  -5   1  10    4.00    0.50
   4  -1 -10   59.49    2.10
  -4   1  10   58.29    2.30
  -4   1  10   61.79    2.30
   3  -1 -10   44.90    1.80
  -3   1  10   45.50    1.90
  -3   1  10   41.60    2.10
   2  -1 -10  106.99    3.50
  -2   1  10  108.69    3.60
  -2   1  10  106.69    3.60
   1  -1 -10  217.78    6.70
  -1   1  10  220.48    6.70
  -1   1  10  222.58    6.70
   0  -1 -10    3.50    0.60
   0   1  10    3.80    0.60
   0   1  10    5.80    1.10
  -1  -1 -10  845.52   24.40
   1   1  10  872.61   24.40
   1   1  10  841.02   24.40
  -2  -1 -10    0.30    0.70
   2   1  10    2.00    0.60
   2   1  10    1.30    0.60
  -3  -1 -10   49.80    2.60
   3   1  10   53.89    2.40
   3   1  10   52.89    2.60
  -4  -1 -10   17.50    2.00
   4   1  10   21.90    1.80
   4   1  10   16.90    1.90
  -5  -1 -10  233.78    7.40
   5   1  10  224.58    7.30
  -7  -1 -10   34.70    2.70
  -8  -1 -10   93.39    4.10
  -9  -1 -10  788.22   23.20
 -18   2  10   55.69    3.50
 -17   2  10  136.19    5.10
 -16   2  10   17.40    2.30
 -15   2  10  117.79    4.00
 -15   2  10  114.99    4.40
 -14   2  10  196.08    6.10
 -13   2  10  508.25   15.30
 -13   2  10  535.05   15.10
 -12   2  10    9.70    1.70
 -12   2  10   11.20    1.20
  11  -2 -10  100.59    3.50
 -11   2  10  100.89    3.40
 -11   2  10  110.19    3.80
  10  -2 -10    3.90    0.50
 -10   2  10    3.80    0.50
   9  -2 -10  536.95   16.00
  -9   2  10  559.64   16.00
  -9   2  10  586.34   16.30
   8  -2 -10  376.26   11.20
  -8   2  10  391.86   11.20
  -8   2  10  400.16   11.50
   7  -2 -10  341.57    9.80
  -7   2  10  350.86    9.90
  -7   2  10  331.97   10.10
   6  -2 -10  774.62   22.00
  -6   2  10  774.62   22.30
  -6   2  10  781.62   22.10
   5  -2 -10  390.46   11.60
  -5   2  10  422.06   11.90
  -5   2  10  406.46   11.70
   4  -2 -10   49.20    1.90
  -4   2  10   50.89    2.10
  -4   2  10   50.59    2.10
   3  -2 -10   12.30    1.10
  -3   2  10   13.50    1.20
  -3   2  10   11.80    1.20
   2  -2 -10  252.27    7.60
  -2   2  10  259.87    7.80
   1  -2 -10  284.77    8.60
  -1   2  10  288.57    8.70
  -1   2  10  294.17    8.60
   0  -2 -10  290.37    8.70
   0   2  10  290.97    8.80
   0   2  10  290.37    8.70
  -1  -2 -10   -0.50    0.60
   1   2  10    0.10    0.60
   1   2  10   -0.30    0.60
  -2  -2 -10  108.39    4.00
   2   2  10  114.99    4.00
   2   2  10  111.69    4.00
  -3  -2 -10   77.19    3.20
   3   2  10   74.99    3.10
   3   2  10   73.89    3.10
  -4  -2 -10   11.30    1.90
   4   2  10   13.80    1.80
   4   2  10   15.80    1.90
  -5  -2 -10    0.80    0.90
  -6  -2 -10  145.69    5.30
  -7  -2 -10  411.96   12.60
  -8  -2 -10    8.10    1.30
  -9  -2 -10   25.20    3.00
 -19   3  10   19.10    3.50
 -18   3  10    7.70    1.40
 -17   3  10    2.90    1.10
 -16   3  10    9.20    1.20
 -15   3  10   64.19    2.50
 -15   3  10   57.49    3.10
 -14   3  10   -0.20    0.80
 -14   3  10    0.50    0.50
 -13   3  10  128.79    4.90
 -13   3  10  139.19    4.30
 -12   3  10    1.40    0.70
 -12   3  10    2.10    0.50
  11  -3 -10   66.99    2.50
 -11   3  10   67.59    2.40
 -11   3  10   66.79    2.80
  10  -3 -10    0.90    0.40
 -10   3  10    1.10    0.60
 -10   3  10    0.30    0.40
   9  -3 -10   65.29    2.30
  -9   3  10   67.19    2.30
  -9   3  10   68.29    2.70
   8  -3 -10   69.19    2.30
  -8   3  10   67.89    2.70
  -8   3  10   71.99    2.40
   7  -3 -10   24.10    1.10
  -7   3  10   23.00    1.20
  -7   3  10   20.10    1.50
   6  -3 -10   33.90    1.30
  -6   3  10   31.00    1.50
   5  -3 -10  291.57    8.40
  -5   3  10  291.57    8.60
  -5   3  10  294.57    8.80
   4  -3 -10    0.30    0.30
  -4   3  10    0.20    0.40
  -4   3  10   -0.10    0.40
   3  -3 -10  161.08    4.90
  -3   3  10  166.38    5.00
  -3   3  10  158.18    5.20
   2  -3 -10    2.20    0.50
  -2   3  10    2.10    0.60
  -2   3  10    2.20    0.60
   1  -3 -10   68.49    2.60
  -1   3  10   67.09    2.80
  -1   3  10   68.59    2.60
   0  -3 -10   89.49    3.30
   0   3  10   95.79    3.30
   0   3  10   91.19    3.50
  -1  -3 -10   37.30    2.10
   1   3  10   35.80    2.20
   1   3  10   40.40    2.10
  -2  -3 -10  241.68    7.50
   2   3  10  237.08    7.60
   2   3  10  241.18    7.50
  -3  -3 -10   36.40    2.40
   3   3  10   38.40    2.40
   3   3  10   36.90    2.20
  -4  -3 -10   89.09    3.60
   4   3  10   88.99    3.70
  -5  -3 -10    4.60    1.00
   5   3  10    6.10    1.00
  -6  -3 -10    8.60    1.20
  -7  -3 -10   56.69    3.20
  -8  -3 -10   25.20    2.80
 -19   4  10    3.20    1.50
 -18   4  10    4.60    1.30
 -17   4  10    0.00    1.10
 -16   4  10  169.28    5.70
 -16   4  10  181.28    6.30
 -15   4  10  216.88    6.70
 -15   4  10  218.78    7.30
 -14   4  10  152.18    4.90
 -14   4  10  153.68    5.40
 -13   4  10   -0.80    0.50
 -13   4  10    0.10    0.90
 -12   4  10  115.09    3.70
 -12   4  10  112.99    4.20
  11  -4 -10   77.09    2.80
 -11   4  10   79.29    3.20
 -11   4  10   80.19    2.70
  10  -4 -10   45.70    1.80
 -10   4  10   45.60    1.80
 -10   4  10   45.80    2.30
   9  -4 -10  223.88    6.50
  -9   4  10  218.68    7.00
   8  -4 -10  392.96   11.30
  -8   4  10  382.06   11.80
  -8   4  10  410.56   11.40
   7  -4 -10  387.76   11.00
  -7   4  10  386.66   11.10
  -7   4  10  376.96   11.50
   6  -4 -10  349.96   10.10
  -6   4  10  352.56   10.60
  -6   4  10  353.86   10.20
   5  -4 -10   28.80    1.20
  -5   4  10   28.50    1.80
  -5   4  10   28.10    1.50
   4  -4 -10  197.68    6.00
  -4   4  10  204.18    6.10
  -4   4  10  204.98    6.50
   3  -4 -10  251.87    7.50
  -3   4  10  256.47    8.00
  -3   4  10  262.67    7.70
   2  -4 -10   49.40    2.00
  -2   4  10   52.59    2.50
  -2   4  10   52.79    2.20
   1  -4 -10   73.19    2.70
  -1   4  10   73.59    2.80
  -1   4  10   70.99    3.10
   0  -4 -10  138.89    4.60
   0   4  10  142.09    4.60
   0   4  10  139.69    4.90
  -1  -4 -10   70.59    2.90
   1   4  10   71.29    2.80
   1   4  10   67.19    3.20
  -2  -4 -10   20.60    1.90
   2   4  10   22.30    2.20
   2   4  10   17.30    1.80
  -3  -4 -10    8.20    1.00
   3   4  10   12.70    2.20
  -4  -4 -10  140.09    4.90
   4   4  10  135.89    5.10
  -5  -4 -10  206.38    6.80
   5   4  10  205.48    6.90
  -6  -4 -10    5.70    1.10
  -7  -4 -10    2.10    1.10
  -8  -4 -10   68.59    3.80
 -18   5  10    4.80    1.50
 -17   5  10  154.78    5.90
 -16   5  10    1.20    1.00
 -16   5  10    0.60    0.70
 -15   5  10    5.00    0.80
 -15   5  10    6.80    1.10
 -14   5  10  151.28    5.40
 -14   5  10  148.99    4.80
 -13   5  10    7.00    1.00
 -13   5  10    6.90    1.20
 -12   5  10  101.59    3.30
 -12   5  10   93.29    4.10
 -11   5  10    0.50    0.40
 -11   5  10    0.80    0.80
  10  -5 -10  346.27   10.10
 -10   5  10  354.16   10.10
 -10   5  10  342.17   10.60
   9  -5 -10   13.00    1.00
  -9   5  10   14.00    1.10
  -9   5  10   13.40    1.70
   8  -5 -10   16.20    0.90
  -8   5  10   16.90    1.20
  -8   5  10   13.80    1.70
   7  -5 -10   39.90    1.40
  -7   5  10   37.60    2.20
  -7   5  10   36.50    1.70
   6  -5 -10   19.50    1.00
  -6   5  10   17.50    1.70
  -6   5  10   21.50    1.30
   5  -5 -10  246.08    7.40
   5  -5 -10  234.28    6.90
  -5   5  10  239.48    7.10
  -5   5  10  239.78    7.60
   4  -5 -10  209.98    6.30
   4  -5 -10  215.48    6.70
  -4   5  10  213.58    6.90
  -4   5  10  224.88    6.50
   3  -5 -10   80.09    3.10
   3  -5 -10   80.89    2.70
  -3   5  10   84.99    2.90
  -3   5  10   78.59    3.30
   2  -5 -10    0.10    0.50
   2  -5 -10   -0.40    0.50
  -2   5  10   -0.30    0.60
  -2   5  10   -0.10    0.50
   1  -5 -10   95.29    3.30
   1  -5 -10   96.19    3.40
  -1   5  10   93.69    3.40
  -1   5  10   92.49    3.80
   0  -5 -10    1.50    0.60
   0  -5 -10    1.00    0.70
   0   5  10    0.80    0.80
   0   5  10    1.70    0.60
  -1  -5 -10    0.90    0.60
  -1  -5 -10    1.60    0.80
   1   5  10    1.40    0.70
   1   5  10    0.40    0.90
  -2  -5 -10   30.90    2.20
  -2  -5 -10   29.00    1.90
   2   5  10   28.70    2.60
  -3  -5 -10    1.10    0.80
   3   5  10    0.70    1.00
  -4  -5 -10    7.90    1.10
   4   5  10    8.80    1.30
  -5  -5 -10  396.66   11.90
   5   5  10  386.66   12.10
  -7  -5 -10   61.39    3.60
 -18   6  10    1.30    1.40
 -17   6  10  107.49    4.90
 -16   6  10    0.10    1.00
 -15   6  10    0.90    1.00
 -14   6  10    0.60    0.90
 -14   6  10    0.70    0.60
 -13   6  10   12.20    2.20
 -13   6  10    7.90    1.30
 -12   6  10  238.08    7.80
 -12   6  10  242.68    7.10
 -11   6  10  159.88    4.90
 -11   6  10  158.88    5.60
 -10   6  10  448.56   15.00
 -10   6  10  507.25   13.70
   9  -6 -10  147.49    4.30
  -9   6  10  145.39    4.30
  -9   6  10  125.59    5.30
   8  -6 -10   97.39    3.70
   8  -6 -10   99.19    3.10
  -8   6  10  107.89    3.30
  -8   6  10   99.49    3.90
   7  -6 -10   24.90    1.10
   7  -6 -10   24.00    1.80
  -7   6  10   23.80    1.40
  -7   6  10   23.50    2.00
   6  -6 -10  275.97    7.80
   6  -6 -10  277.37    8.40
  -6   6  10  263.27    8.60
  -6   6  10  269.97    8.00
   5  -6 -10  272.37    7.80
   5  -6 -10  279.37    8.40
  -5   6  10  269.27    8.60
  -5   6  10  269.97    8.00
   4  -6 -10  112.99    3.50
   4  -6 -10  117.19    4.00
  -4   6  10  114.69    4.30
  -4   6  10  113.99    3.70
   3  -6 -10   -0.60    0.50
   3  -6 -10    0.40    0.40
  -3   6  10    1.10    0.50
  -3   6  10    0.40    0.70
   2  -6 -10    4.30    0.60
   2  -6 -10    3.70    0.70
  -2   6  10    5.00    1.00
  -2   6  10    5.70    0.70
   1  -6 -10    3.40    0.70
   1  -6 -10    4.00    0.70
  -1   6  10    3.40    0.70
  -1   6  10    4.10    1.00
   0  -6 -10   86.09    3.20
   0  -6 -10   85.19    3.30
   0   6  10   89.29    3.20
   0   6  10   86.59    3.90
  -1  -6 -10  413.56   11.90
  -1  -6 -10  397.36   11.90
   1   6  10  396.86   12.40
  -2  -6 -10  835.52   24.20
  -2  -6 -10  859.51   24.20
   2   6  10  830.22   24.70
  -3  -6 -10  387.66   12.70
  -3  -6 -10  383.86   11.40
   3   6  10  375.26   12.00
  -4  -6 -10   25.50    2.40
  -4  -6 -10   18.80    2.20
   4   6  10   19.90    3.10
  -5  -6 -10    2.00    1.00
   5   6  10    2.70    1.40
 -18   7  10    7.90    1.70
 -17   7  10   24.50    2.20
 -16   7  10   79.49    3.20
 -16   7  10   88.49    4.30
 -15   7  10  181.58    6.50
 -15   7  10  177.08    5.60
 -14   7  10    0.10    0.90
 -14   7  10   -0.30    0.60
 -13   7  10   77.49    3.70
 -13   7  10   75.99    2.80
 -12   7  10   20.30    1.40
 -12   7  10   20.20    2.30
 -11   7  10  152.78    5.10
 -11   7  10  164.48    5.70
 -10   7  10  191.58    5.70
 -10   7  10  191.88    6.60
   9  -7 -10   62.49    2.20
   9  -7 -10   63.69    2.80
  -9   7  10   65.79    3.20
  -9   7  10   64.09    2.30
   8  -7 -10  701.63   19.70
   8  -7 -10  667.13   19.10
  -8   7  10  674.23   19.20
  -8   7  10  666.63   20.00
   7  -7 -10   44.60    1.60
   7  -7 -10   46.10    2.30
  -7   7  10   45.20    3.00
  -7   7  10   44.40    1.90
   6  -7 -10   33.50    1.30
  -6   7  10   35.10    1.70
   5  -7 -10  267.77    7.80
   5  -7 -10  282.57    8.40
  -5   7  10  252.87    9.30
  -5   7  10  278.07    7.90
   4  -7 -10   24.60    1.20
   4  -7 -10   27.90    1.80
  -4   7  10   29.00    2.40
  -4   7  10   26.80    1.60
   3  -7 -10  140.79    4.30
   3  -7 -10  143.39    4.80
  -3   7  10  145.29    5.30
  -3   7  10  140.29    4.50
   2  -7 -10   51.79    2.10
   2  -7 -10   46.80    2.40
  -2   7  10   50.69    3.00
  -2   7  10   50.79    2.20
   1  -7 -10    6.30    0.90
   1  -7 -10    5.80    0.70
  -1   7  10    5.10    1.10
   0  -7 -10   95.59    3.50
   0  -7 -10   93.79    3.50
   0   7  10   94.39    4.20
  -1  -7 -10  352.46   11.00
  -1  -7 -10  380.26   11.00
   1   7  10  374.16   11.70
  -2  -7 -10  137.89    4.90
  -2  -7 -10  151.48    5.00
   2   7  10  144.19    5.70
  -3  -7 -10   91.99    3.70
  -3  -7 -10   90.59    5.30
   3   7  10   98.19    4.70
  -4  -7 -10   -0.50    0.90
  -4  -7 -10    0.80    1.00
   4   7  10   -1.40    1.40
  -5  -7 -10    6.00    1.20
   5   7  10    3.70    1.60
  -6  -7 -10    1.80    1.30
 -18   8  10   62.09    4.70
 -17   8  10    2.20    0.90
 -17   8  10    3.40    1.40
 -16   8  10    9.60    1.50
 -16   8  10   13.50    1.80
 -15   8  10   46.40    3.40
 -15   8  10   46.30    2.20
 -14   8  10    0.70    1.10
 -14   8  10    1.50    0.60
 -13   8  10  149.09    4.70
 -13   8  10  150.68    5.70
 -12   8  10    0.70    0.50
 -12   8  10    2.00    0.90
 -11   8  10   18.30    1.40
 -11   8  10   19.10    2.40
  10  -8 -10  119.89    4.40
 -10   8  10  115.99    3.80
 -10   8  10  124.69    4.80
   9  -8 -10   38.70    2.40
  -9   8  10   37.10    1.70
  -9   8  10   42.80    2.80
   8  -8 -10  458.75   13.60
  -8   8  10  452.15   13.00
  -8   8  10  455.35   13.90
   7  -8 -10  182.68    6.00
  -7   8  10  186.48    6.50
   6  -8 -10   85.89    3.40
  -6   8  10   86.09    3.90
   5  -8 -10   48.10    2.50
  -5   8  10   51.49    3.10
   4  -8 -10  176.78    5.80
   4  -8 -10  178.38    5.20
  -4   8  10  180.28    6.40
  -4   8  10  176.08    5.30
   3  -8 -10   15.10    1.10
   3  -8 -10   13.10    1.70
   2  -8 -10   60.09    2.70
   2  -8 -10   63.59    2.30
  -2   8  10   58.29    3.40
   1  -8 -10   36.50    1.90
   1  -8 -10   34.90    2.10
  -1   8  10   32.80    2.90
   0  -8 -10  231.68    6.90
   0  -8 -10  207.78    7.10
   0   8  10  229.48    7.90
  -1  -8 -10  462.65   14.50
  -1  -8 -10  517.85   14.40
   1   8  10  498.15   15.30
  -2  -8 -10   31.00    2.40
  -2  -8 -10   21.80    2.20
   2   8  10   24.90    3.30
  -3  -8 -10    7.30    1.10
   3   8  10    9.80    1.70
  -4  -8 -10  220.18    7.90
  -4  -8 -10  262.87    8.00
   4   8  10  254.87    8.90
  -5  -8 -10  115.79    4.80
   5   8  10  108.29    5.90
 -18   9  10   12.10    1.50
 -17   9  10  162.68    6.60
 -17   9  10  152.88    5.70
 -17   9  10  154.38    5.30
 -16   9  10  107.89    5.10
 -16   9  10  102.79    3.80
 -15   9  10  120.59    5.30
 -15   9  10  117.79    4.00
 -14   9  10  332.17   10.60
 -14   9  10  314.87    9.50
 -13   9  10  114.29    3.80
 -13   9  10  119.99    5.00
 -12   9  10   14.20    2.50
 -12   9  10    9.20    1.30
 -11   9  10   11.90    1.20
 -11   9  10   12.90    2.40
  10  -9 -10  342.87   10.80
 -10   9  10  360.36   11.20
   9  -9 -10   61.79    2.90
  -9   9  10   67.49    3.50
   8  -9 -10    7.20    0.90
  -8   9  10    6.40    1.10
   7  -9 -10   19.20    1.90
  -7   9  10   23.30    2.50
   6  -9 -10  123.99    4.60
  -6   9  10  136.89    5.30
   5  -9 -10   -0.90    0.60
  -5   9  10    0.10    1.00
   4  -9 -10    3.80    0.80
  -4   9  10    2.70    1.00
   3  -9 -10   -0.50    0.70
   3  -9 -10    0.10    0.40
  -3   9  10   -1.00    0.90
   2  -9 -10   11.00    1.80
   2  -9 -10   10.60    1.30
  -2   9  10   10.10    1.50
   1  -9 -10  146.49    5.30
   1  -9 -10  158.08    4.90
  -1   9  10  155.68    6.10
   0  -9 -10   21.30    2.00
   0  -9 -10   18.00    2.10
   0   9  10   21.60    3.10
  -1  -9 -10    3.20    1.00
  -1  -9 -10    1.50    0.80
   1   9  10    5.10    1.60
  -2  -9 -10  264.97    7.90
  -2  -9 -10  219.28    7.90
   2   9  10  262.07    9.00
  -3  -9 -10   83.99    3.70
  -3  -9 -10   66.59    3.70
   3   9  10   80.59    5.00
  -4  -9 -10   35.30    3.10
   4   9  10   26.30    4.50
 -17  10  10    0.10    1.70
 -17  10  10    0.90    1.20
 -16  10  10    5.20    1.10
 -16  10  10    2.70    1.40
 -15  10  10    4.30    0.90
 -15  10  10    4.00    1.40
 -15  10  10    2.80    0.80
 -14  10  10   38.70    2.40
 -14  10  10   43.40    2.10
 -14  10  10   42.90    3.50
 -13  10  10   46.00    2.10
 -13  10  10   50.69    3.50
 -12  10  10   88.49    3.00
 -12  10  10   96.39    4.50
 -11  10  10   39.90    3.20
 -10  10  10  301.87   10.00
  -9  10  10   21.00    2.60
  -8  10  10   51.29    3.30
  -7  10  10    0.20    1.00
  -6  10  10  246.58    8.50
  -5  10  10   52.39    3.40
  -4  10  10    0.80    1.10
  -3  10  10   40.90    3.30
  -2  10  10   45.10    3.60
   1 -10 -10   -0.60    0.70
  -1  10  10   -0.80    1.10
   0 -10 -10  114.69    4.00
   0  10  10  111.29    5.40
  -1 -10 -10    2.10    1.00
   1  10  10    1.60    1.50
  -2 -10 -10   88.59    3.90
   2  10  10   93.59    5.40
  -3 -10 -10  257.97    8.20
   3  10  10  249.38    9.50
 -13  11  10  122.99    5.50
 -12  11  10  243.78    8.60
 -11  11  10    0.10    1.10
 -10  11  10   65.49    3.80
  -9  11  10   14.60    2.60
  -8  11  10  204.28    7.50
  -7  11  10  311.77   10.40
  -6  11  10    1.00    1.10
  -5  11  10  139.49    5.90
  -4  11  10    2.60    1.30
  -3  11  10   84.19    4.60
  -2  11  10   10.60    1.80
   1 -11 -10   27.20    1.80
  -1  11  10   26.70    3.60
   0 -11 -10  297.27    8.80
   0  11  10  282.87   10.30
   1  11  10   32.50    4.40
   2  11  10    3.40    2.00
 -16  12  10   50.39    4.60
 -15  12  10    6.80    1.60
 -14  12  10    0.80    1.40
 -13  12  10   72.19    4.40
 -12  12  10  174.18    6.90
 -11  12  10   45.80    3.60
 -10  12  10   28.60    3.10
  -9  12  10   66.29    4.00
  -8  12  10   21.00    3.00
  -7  12  10   25.40    3.00
  -6  12  10    1.40    1.10
  -5  12  10  220.48    8.20
  -4  12  10   42.70    3.70
  -3  12  10   -1.80    1.30
  -2  12  10  136.09    6.30
  -1  12  10   -2.50    1.60
   0  12  10  284.37   10.40
 -14  13  10  174.58    7.30
 -13  13  10  141.99    6.30
 -12  13  10   39.20    3.70
 -11  13  10   36.20    3.50
 -10  13  10  116.99    5.40
  -9  13  10   -0.40    1.10
  -8  13  10    8.90    1.60
  -7  13  10   21.60    3.10
  -6  13  10  184.18    7.30
  -5  13  10    1.60    1.30
  -4  13  10   52.99    4.10
  -3  13  10   34.10    4.00
  -2  13  10   63.69    4.90
  -1  13  10   34.60    4.50
 -13  14  10    0.00    1.40
 -12  14  10   54.19    4.30
 -11  14  10   -0.60    1.20
 -10  14  10   17.70    3.10
  -9  14  10    5.40    1.50
  -8  14  10    8.90    1.50
  -7  14  10   12.40    1.90
  -6  14  10  164.48    7.00
  -5  14  10   21.80    3.70
  -4  14  10   56.59    4.70
  -3  14  10   29.80    4.30
   0  18 -11  210.08    6.70
   4  17 -11  290.37    8.90
   3  17 -11   -0.30    0.70
   2  17 -11  218.58    6.90
   1  17 -11  111.49    4.00
   0  17 -11    1.50    0.70
  -1  17 -11   95.89    3.70
  -2  17 -11    7.20    1.00
  -3  17 -11   27.80    2.30
  -4  17 -11  157.78    5.50
   7  16 -11   48.80    2.60
   6  16 -11   99.49    3.80
   5  16 -11   25.50    1.90
   4  16 -11   40.60    2.20
   3  16 -11   25.00    1.80
   2  16 -11    0.30    0.60
   1  16 -11    5.80    0.80
   0  16 -11    5.40    0.80
  -1  16 -11   31.20    2.10
  -2  16 -11  253.17    7.90
  -3  16 -11   14.50    2.00
  -4  16 -11   15.10    2.10
  -5  16 -11    6.10    1.10
  -6  16 -11  138.29    5.20
   8  15 -11  163.88    5.50
   7  15 -11    6.20    0.90
   6  15 -11   42.60    2.20
   5  15 -11    6.50    0.80
   4  15 -11  222.28    6.90
   3  15 -11   11.90    1.40
   2  15 -11   15.80    1.50
  -2 -15  11   16.30    1.90
   1  15 -11   -0.20    0.60
  -1 -15  11    1.00    0.80
   0  15 -11  482.55   13.90
   0 -15  11  461.75   14.00
  -1  15 -11    5.40    0.80
   1 -15  11    6.40    1.00
  -2  15 -11   -0.50    0.70
  -3  15 -11   57.89    2.80
  -4  15 -11    6.80    1.00
  -5  15 -11   75.49    3.50
  -6  15 -11   50.39    3.00
  -7  15 -11   45.10    3.20
  10  14 -11   12.60    2.00
   9  14 -11   36.50    2.30
   8  14 -11    1.70    0.70
   7  14 -11   94.69    3.50
   6  14 -11  373.46   11.10
   5  14 -11    0.60    0.60
   4  14 -11  384.76   11.10
  -4 -14  11  367.06   11.30
   3  14 -11    1.00    0.60
  -3 -14  11    0.00    0.70
   2  14 -11  105.49    3.60
  -2 -14  11   98.89    3.80
   1  14 -11    0.30    0.50
  -1 -14  11   -0.60    0.70
   0  14 -11    2.90    0.70
   0 -14  11    3.80    0.80
  -1  14 -11    7.30    0.90
   1 -14  11   11.70    1.80
  -2  14 -11   74.79    3.10
   2 -14  11   71.89    3.20
  -3  14 -11  427.66   12.50
   3 -14  11  410.46   13.50
  -4  14 -11  295.67    9.10
   4 -14  11  286.47   10.10
  -5  14 -11   31.00    2.50
   5 -14  11   30.80    4.20
  -6  14 -11  108.09    4.40
   6 -14  11  106.79    5.60
  -7  14 -11   72.59    3.70
   7 -14  11   74.59    5.50
  -8  14 -11   53.99    3.50
  11  13 -11   98.09    3.90
  10  13 -11   18.10    2.00
   9  13 -11   11.50    1.60
   8  13 -11    5.80    0.80
   7  13 -11  562.64   16.40
   6  13 -11  328.17    9.90
   5  13 -11   35.20    1.80
  -5 -13  11   29.70    2.00
   4  13 -11    8.70    1.20
  -4 -13  11    9.50    1.50
   3  13 -11   32.20    1.80
  -3 -13  11   33.70    2.10
   2  13 -11  187.38    5.80
  -2 -13  11  183.98    6.00
   1  13 -11  106.79    3.70
  -1 -13  11  109.39    4.00
  -1 -13  11  109.19    5.00
   0  13 -11   39.20    2.00
   0 -13  11   38.40    3.10
   0 -13  11   38.10    2.30
  -1  13 -11   53.69    2.50
   1 -13  11   53.99    2.60
   1 -13  11   48.10    3.70
  -2  13 -11  295.77    9.00
   2 -13  11  296.57   10.00
   2 -13  11  284.87    9.00
  -3  13 -11    3.60    0.80
   3 -13  11    3.70    1.40
   3 -13  11    3.10    0.80
  -4  13 -11   23.70    2.10
   4 -13  11   18.90    3.50
  -5  13 -11   77.89    3.50
   5 -13  11   78.69    4.70
  -6  13 -11    0.50    1.00
   6 -13  11    0.50    1.50
  -7  13 -11   86.09    4.00
   7 -13  11   82.79    5.00
  -8  13 -11    3.20    1.20
  11  12 -11  285.07    9.00
  10  12 -11   14.70    1.70
   9  12 -11  124.19    4.40
   8  12 -11  309.07    9.40
   7  12 -11    1.40    0.50
   6  12 -11   25.90    1.60
  -6 -12  11   24.90    1.70
   5  12 -11  160.68    5.10
  -5 -12  11  162.28    5.30
   4  12 -11    0.30    0.50
  -4 -12  11    0.60    0.60
  -4 -12  11    0.30    0.90
   3  12 -11    1.00    0.50
  -3 -12  11    1.40    0.90
  -3 -12  11    1.20    0.60
   2  12 -11    5.00    0.60
  -2 -12  11    4.50    1.00
  -2 -12  11    4.20    0.70
   1  12 -11   10.70    1.30
  -1 -12  11    7.20    1.20
  -1 -12  11   11.20    1.60
   0  12 -11   27.60    1.80
   0 -12  11   29.90    2.90
   0 -12  11   30.30    2.00
  -1  12 -11   30.80    2.00
   1 -12  11   30.30    2.00
   1 -12  11   29.80    3.00
  -2  12 -11   23.40    1.90
   2 -12  11   23.40    2.00
   2 -12  11   18.30    3.00
  -3  12 -11  405.76   12.00
   3 -12  11  402.96   12.80
   3 -12  11  395.76   12.10
  -4  12 -11   -0.90    0.80
   4 -12  11   -1.00    1.30
  -5  12 -11  135.39    4.90
   5 -12  11  131.99    5.70
  -6  12 -11    1.90    1.00
   6 -12  11    2.40    1.50
  -7  12 -11    6.70    1.30
   7 -12  11    7.90    1.60
  -8  12 -11    8.40    1.30
  -9  12 -11    4.30    1.30
  11  11 -11    0.00    0.70
  10  11 -11   11.80    1.60
   9  11 -11   56.09    2.50
   8  11 -11   69.29    2.80
   7  11 -11    8.20    1.30
  -7 -11  11    8.00    1.40
   6  11 -11   37.40    1.90
  -6 -11  11   37.90    2.00
   5  11 -11   92.09    3.20
  -5 -11  11   93.69    3.40
   4  11 -11  254.57    7.90
  -4 -11  11  269.97    8.00
   3  11 -11  458.05   13.50
  -3 -11  11  465.85   14.60
  -3 -11  11  470.85   13.70
  -2 -11  11   -0.40    0.60
  -2 -11  11   -1.00    0.80
   1  11 -11    1.00    0.60
  -1 -11  11    0.90    0.60
  -1 -11  11    1.80    0.90
   0  11 -11    1.60    0.60
   0 -11  11    2.70    0.70
   0 -11  11    2.80    1.00
  -1  11 -11  180.68    5.90
   1 -11  11  188.08    6.00
   1 -11  11  183.58    6.80
  -2  11 -11  411.06   12.10
   2 -11  11  407.56   12.20
   2 -11  11  401.56   12.80
  -3  11 -11  345.17   10.30
   3 -11  11  331.47   10.30
   3 -11  11  338.17   10.90
  -4  11 -11  526.25   15.50
   4 -11  11  532.55   16.00
   4 -11  11  514.75   15.50
  -5  11 -11    2.30    0.90
   5 -11  11    1.40    1.30
  -6  11 -11   83.99    3.70
   6 -11  11   85.39    4.40
  -7  11 -11   -0.40    0.90
   7 -11  11    0.20    1.30
  -8  11 -11   14.70    2.50
  -9  11 -11    2.20    1.30
  12  10 -11    0.40    0.70
  11  10 -11  278.67    8.70
  10  10 -11   18.50    1.60
   9  10 -11  439.06   13.00
   8  10 -11  300.57    9.10
  -8 -10  11  300.17    9.10
   7  10 -11    0.40    0.50
  -7 -10  11    0.70    0.50
   6  10 -11  246.18    7.40
  -6 -10  11  244.18    7.50
   5  10 -11    0.40    0.50
  -5 -10  11    0.10    0.50
   4  10 -11   99.19    3.90
  -4 -10  11  111.19    3.70
  -3 -10  11  315.87    9.50
   2  10 -11   15.80    1.60
  -2 -10  11   16.40    1.50
  -1 -10  11  177.68    5.70
   0  10 -11   36.00    2.30
   0 -10  11   41.40    2.90
   0 -10  11   40.00    2.20
  -1  10 -11  107.99    3.80
   1 -10  11   95.69    4.60
   1 -10  11  110.09    3.90
  -2  10 -11  127.49    4.50
   2 -10  11  130.19    4.50
   2 -10  11  125.59    5.20
  -3  10 -11  201.08    6.60
   3 -10  11  206.98    6.60
   3 -10  11  200.78    7.10
  -4  10 -11  131.59    4.70
   4 -10  11  130.49    5.20
   4 -10  11  127.69    4.60
  -5  10 -11  134.49    4.90
   5 -10  11  134.09    5.30
  -6  10 -11    2.10    0.90
   6 -10  11    3.80    1.30
  -7  10 -11   20.90    2.30
   7 -10  11   20.90    3.00
  -8  10 -11   69.49    3.60
  -9  10 -11    0.40    1.10
 -10  10 -11    1.80    1.40
  12   9 -11  154.68    5.30
  11   9 -11  591.34   17.30
  10   9 -11   42.20    2.20
   9   9 -11  648.84   18.90
  -9  -9  11  656.83   18.90
   8   9 -11   29.10    1.70
  -8  -9  11   26.30    1.70
   7   9 -11  241.88    7.40
  -7  -9  11  249.18    7.50
   6   9 -11 1044.20   30.20
  -6  -9  11 1085.59   30.30
   5   9 -11   70.89    3.40
  -5  -9  11   83.79    3.00
   4   9 -11  469.15   13.90
  -4  -9  11  488.35   14.00
   3   9 -11  247.18    7.50
  -3  -9  11  251.67    7.60
   2   9 -11  123.99    4.10
  -2  -9  11  120.99    4.20
   1   9 -11  138.29    4.60
  -1  -9  11  139.99    4.70
   0   9 -11   57.99    2.50
   0  -9  11   59.79    2.60
  -1   9 -11 1756.62   53.99
   1  -9  11 2039.40   53.79
  -2   9 -11  427.66   12.80
   2  -9  11  433.26   12.80
   2  -9  11  431.46   13.30
  -3   9 -11   49.40    2.60
   3  -9  11   54.29    3.20
   3  -9  11   49.40    2.50
  -4   9 -11    3.30    0.90
   4  -9  11    3.80    1.20
   4  -9  11    3.80    0.80
  -5   9 -11   42.30    2.60
   5  -9  11   47.30    3.20
  -6   9 -11   12.20    2.10
   6  -9  11    8.60    1.30
  -7   9 -11   57.59    3.20
   7  -9  11   61.69    3.30
  -9   9 -11  229.08    7.80
 -10   9 -11   95.69    4.60
  12   8 -11   58.79    2.70
  11   8 -11  150.58    5.00
  10   8 -11  614.74   17.70
 -10  -8  11  602.54   17.60
   9   8 -11    9.20    1.30
  -9  -8  11    9.80    1.30
   8   8 -11  480.35   14.10
  -8  -8  11  489.65   14.10
   7   8 -11  112.79    3.80
  -7  -8  11  113.29    3.80
   6   8 -11   50.49    2.20
  -6  -8  11   54.79    2.20
   5   8 -11  300.07    8.90
  -5  -8  11  300.77    9.00
   4   8 -11    2.00    0.50
  -4  -8  11    2.50    0.60
   3   8 -11  618.54   18.30
  -3  -8  11  655.43   18.40
   2   8 -11  120.19    4.00
  -2  -8  11  121.19    4.10
   1   8 -11  371.66   11.20
  -1  -8  11  389.06   11.30
   0   8 -11  139.19    4.60
   0  -8  11  141.69    4.70
  -1   8 -11  167.68    5.80
   1  -8  11  176.58    5.70
  -2   8 -11   10.70    1.70
   2  -8  11    9.30    1.60
  -3   8 -11  119.19    4.30
   3  -8  11  116.79    4.30
  -4   8 -11    0.90    0.80
   4  -8  11    0.90    0.70
   4  -8  11    0.60    1.00
  -5   8 -11  119.59    4.50
   5  -8  11  121.79    4.70
   5  -8  11  117.69    4.70
  -6   8 -11    1.20    0.90
   6  -8  11   -0.30    1.00
  -7   8 -11   -0.80    0.90
  -8   8 -11   10.10    1.30
  -9   8 -11   15.10    2.60
 -10   8 -11   -1.50    1.10
  13   7 -11  117.79    4.30
  12   7 -11    0.80    0.70
  11   7 -11    3.70    0.70
  10   7 -11    4.60    0.70
 -10  -7  11    4.10    0.60
   9   7 -11   21.30    1.50
  -9  -7  11   23.10    1.50
   8   7 -11    0.90    0.50
  -8  -7  11    0.60    0.50
   7   7 -11    0.10    0.40
  -7  -7  11   -0.20    0.40
   6   7 -11  685.53   20.10
  -6  -7  11  724.43   20.20
   5   7 -11  664.43   19.20
  -5  -7  11  675.73   19.30
   4   7 -11  264.87    8.00
  -4  -7  11  275.17    8.10
   3   7 -11    3.90    0.60
  -3  -7  11    3.90    0.60
   2   7 -11   49.20    2.10
  -2  -7  11   51.99    2.20
   1   7 -11  404.86   12.20
  -1  -7  11  426.16   12.30
   0   7 -11  183.48    5.90
   0  -7  11  189.48    6.00
  -1   7 -11   15.80    1.70
   1  -7  11   16.70    1.70
  -2   7 -11  156.38    5.90
   2  -7  11  179.28    5.60
  -3   7 -11  727.43   21.60
   3  -7  11  765.02   21.60
  -4   7 -11  494.35   14.70
   4  -7  11  498.65   14.70
  -5   7 -11   16.10    2.10
   5  -7  11   15.80    2.30
   5  -7  11   15.10    1.80
  -6   7 -11   51.49    2.90
   6  -7  11   52.09    2.90
  -7   7 -11  108.79    4.40
  -8   7 -11  110.89    4.60
  -9   7 -11    8.50    1.40
 -10   7 -11    9.70    1.50
  13   6 -11    0.40    0.60
  12   6 -11   98.59    3.70
  11   6 -11  228.38    7.10
 -11  -6  11  228.88    7.00
  10   6 -11   34.10    1.80
 -10  -6  11   34.70    1.80
   9   6 -11  585.24   17.10
  -9  -6  11  597.14   17.10
   8   6 -11    2.10    0.50
  -8  -6  11    1.60    0.50
   7   6 -11  220.68    6.60
  -7  -6  11  215.18    6.70
   6   6 -11    5.30    0.90
  -6  -6  11    4.10    0.60
   5   6 -11    0.80    0.40
  -5  -6  11    1.40    0.50
   4   6 -11    8.20    1.00
  -4  -6  11    9.40    1.20
   3   6 -11    0.80    0.40
  -3  -6  11    3.00    0.60
   2   6 -11  584.24   17.20
  -2  -6  11  609.74   17.30
   1   6 -11  441.56   12.90
  -1  -6  11  445.86   13.00
   0   6 -11  406.06   12.10
   0  -6  11  414.66   12.10
  -1   6 -11  494.05   14.60
   1  -6  11  501.35   14.60
  -2   6 -11  649.64   21.70
   2  -6  11  810.42   21.20
  -3   6 -11  164.38    5.50
   3  -6  11  165.98    5.60
  -4   6 -11    0.60    0.80
   4  -6  11    1.70    0.80
  -5   6 -11    0.90    0.80
   5  -6  11    1.40    0.80
   5  -6  11    2.90    0.90
  -6   6 -11    3.30    1.00
  -7   6 -11   12.50    2.20
  -8   6 -11   -0.90    0.90
  -9   6 -11   23.10    2.70
 -10   6 -11  151.68    5.90
  13   5 -11   73.29    3.00
  12   5 -11   40.00    2.10
 -12  -5  11   40.40    2.20
  11   5 -11  573.44   17.00
 -11  -5  11  596.64   16.90
  10   5 -11  420.76   12.50
 -10  -5  11  428.36   12.40
   9   5 -11    0.60    0.70
  -9  -5  11    0.20    0.40
   8   5 -11   56.99    2.20
  -8  -5  11   56.99    2.30
   7   5 -11  300.87    9.00
  -7  -5  11  313.27    9.10
   6   5 -11   32.60    1.50
  -6  -5  11   30.90    1.60
   5   5 -11   15.00    1.10
  -5  -5  11   15.70    1.30
   4   5 -11  459.35   13.70
  -4  -5  11  489.25   13.80
   3   5 -11 1121.99   32.30
  -3  -5  11 1162.58   32.50
   2   5 -11  135.39    4.40
  -2  -5  11  143.29    4.60
   1   5 -11   28.80    1.60
  -1  -5  11   28.10    1.80
   0   5 -11   40.90    2.00
   0  -5  11   42.90    2.10
  -1   5 -11  349.87   10.40
   1  -5  11  344.57   10.40
  -2   5 -11  102.39    3.90
   2  -5  11  108.99    3.90
  -3   5 -11   77.49    3.30
   3  -5  11   78.89    3.20
  -4   5 -11  410.46   12.40
   4  -5  11  418.26   12.40
  -5   5 -11  845.22   24.30
   5  -5  11  829.82   24.30
  -6   5 -11   48.50    2.90
  -7   5 -11    1.10    1.00
  -8   5 -11   51.29    3.10
  -9   5 -11  198.98    7.00
 -10   5 -11   97.19    5.00
  13   4 -11  507.15   14.90
  12   4 -11  185.28    5.90
  11   4 -11   59.39    2.50
 -11  -4  11   61.79    2.40
  10   4 -11    3.90    0.70
   9   4 -11    7.00    1.10
  -9  -4  11    4.10    0.50
   8   4 -11  282.27    8.30
  -8  -4  11  281.67    8.40
   7   4 -11    3.10    0.40
  -7  -4  11    4.20    0.60
   6   4 -11  174.48    5.30
  -6  -4  11  174.88    5.40
   5   4 -11  155.98    4.80
  -5  -4  11  157.08    4.90
   4   4 -11  230.88    6.90
  -4  -4  11  232.48    7.00
   3   4 -11   96.09    3.30
  -3  -4  11   99.39    3.40
   2   4 -11    0.10    0.40
  -2  -4  11    1.40    0.60
   1   4 -11  175.98    5.60
  -1  -4  11  181.48    5.70
   0   4 -11  188.98    6.00
   0  -4  11  197.38    6.10
  -1   4 -11  155.58    5.10
   1  -4  11  159.68    5.20
  -2   4 -11   81.59    3.20
   2  -4  11   84.29    3.20
  -3   4 -11  488.25   14.70
   3  -4  11  511.95   14.80
  -4   4 -11   14.20    2.00
   4  -4  11   14.90    1.80
   4  -4  11   15.20    1.30
  -5   4 -11  109.49    4.30
   5  -4  11  114.69    4.20
  -6   4 -11  126.39    4.80
  -7   4 -11  190.08    6.50
  -8   4 -11    3.30    1.10
  -9   4 -11   55.29    3.40
 -10   4 -11    2.70    1.70
  13   3 -11   71.69    2.80
 -13  -3  11   62.79    2.60
  12   3 -11   12.60    1.40
 -12  -3  11   13.70    1.30
  11   3 -11  180.08    5.70
 -11  -3  11  185.48    5.70
  10   3 -11  124.89    4.10
 -10  -3  11  128.89    4.10
   9   3 -11   56.89    2.20
  -9  -3  11   55.79    2.20
   8   3 -11    8.00    1.00
  -8  -3  11    8.80    1.10
   7   3 -11  167.58    5.10
  -7  -3  11  165.68    5.20
   6   3 -11  520.65   15.20
  -6  -3  11  538.65   15.30
   5   3 -11   62.39    2.30
  -5  -3  11   63.89    2.40
   4   3 -11   43.00    1.80
  -4  -3  11   47.50    2.00
   3   3 -11   85.49    3.00
  -3  -3  11   88.59    3.10
   2   3 -11   50.39    2.10
  -2  -3  11   54.19    2.30
   1   3 -11  770.92   22.40
  -1  -3  11  796.52   22.50
   0   3 -11  198.48    6.20
   0  -3  11  198.98    6.30
  -1   3 -11   12.40    1.50
   1  -3  11   11.00    1.50
  -2   3 -11   36.30    2.20
   2  -3  11   36.00    2.10
   2  -3  11   36.10    1.70
  -3   3 -11 1258.97   36.40
   3  -3  11 1264.07   36.10
   3  -3  11 1312.47   36.50
  -4   3 -11   17.40    2.20
   4  -3  11   23.60    2.10
   4  -3  11   22.80    1.40
  -5   3 -11    1.20    0.90
   5  -3  11    1.20    0.80
  -6   3 -11  220.58    7.30
  -7   3 -11    3.80    1.00
  -8   3 -11   58.39    3.30
  -9   3 -11   -0.20    1.00
 -18  -2  11   21.50    3.10
 -17  -2  11   -1.30    0.90
  13   2 -11    0.70    0.60
 -13  -2  11    0.40    0.50
  12   2 -11    8.90    1.30
 -12  -2  11    7.60    1.30
 -11  -2  11  504.85   14.60
  10   2 -11  249.48    7.40
 -10  -2  11  240.78    7.40
   9   2 -11    0.90    0.40
  -9  -2  11    1.20    0.50
  -8  -2  11    3.70    0.50
   7   2 -11 1353.46   38.90
  -7  -2  11 1406.26   39.00
   6   2 -11  873.31   25.60
  -6  -2  11  934.01   25.70
   5   2 -11    1.80    0.40
  -5  -2  11    2.00    0.50
   4   2 -11  638.44   18.50
  -4  -2  11  656.23   18.60
   3   2 -11  884.11   25.90
  -3  -2  11  943.41   26.10
   2   2 -11  100.79    3.40
  -2  -2  11  102.99    3.60
   1   2 -11  137.99    4.60
  -1  -2  11  144.29    4.70
   0   2 -11   14.10    1.50
   0  -2  11   14.20    1.50
   0  -2  11   12.90    1.20
  -1   2 -11  534.15   15.70
   1  -2  11  534.05   15.50
   1  -2  11  552.04   15.80
  -2   2 -11  145.19    4.90
   2  -2  11  141.39    4.90
   2  -2  11  144.79    4.50
  -3   2 -11    2.00    0.90
   3  -2  11    2.50    0.80
  -4   2 -11 1072.59   31.10
   4  -2  11 1089.99   31.10
   4  -2  11 1087.09   30.70
  -5   2 -11  240.48    7.80
   5  -2  11  241.08    7.70
  -6   2 -11   30.30    2.50
  -7   2 -11   41.20    2.80
  -8   2 -11   50.29    3.10
  -9   2 -11  134.09    5.30
 -18  -1  11    1.30    1.10
 -17  -1  11    9.00    1.20
 -16  -1  11   18.10    2.30
 -14  -1  11   81.99    3.10
  13   1 -11  330.97    9.90
 -13  -1  11  330.77    9.80
  12   1 -11   68.19    2.70
 -12  -1  11   68.89    2.60
  11   1 -11  225.68    7.00
 -11  -1  11  234.28    7.00
  10   1 -11    2.40    0.50
 -10  -1  11    2.50    0.50
   9   1 -11   19.60    1.20
  -9  -1  11   19.20    1.30
   8   1 -11   65.49    2.40
  -8  -1  11   70.19    2.50
   7   1 -11   65.29    2.30
  -7  -1  11   64.99    2.40
   6   1 -11  435.56   13.00
  -6  -1  11  467.35   13.10
   5   1 -11   70.19    2.50
  -5  -1  11   72.29    2.60
   4   1 -11    6.20    1.00
  -4  -1  11    7.10    1.20
   3   1 -11  299.57    8.90
  -3  -1  11  308.57    9.10
   2   1 -11   21.20    1.40
  -2  -1  11   20.30    1.60
  -2  -1  11   22.10    1.40
   1   1 -11  137.19    4.50
  -1  -1  11  140.99    4.60
  -1  -1  11  140.89    4.50
   0   1 -11  317.57    9.50
   0  -1  11  321.57    9.40
   0  -1  11  321.07    9.60
  -1   1 -11   46.30    2.30
   1  -1  11   49.50    2.00
   1  -1  11   46.80    2.30
  -2   1 -11   47.80    2.50
   2  -1  11   45.20    2.40
   2  -1  11   47.00    2.00
   3  -1  11   27.90    1.70
   3  -1  11   21.50    2.10
  -4   1 -11  293.17    9.20
   4  -1  11  298.47    8.80
   4  -1  11  294.57    9.10
  -5   1 -11  141.29    5.00
   5  -1  11  135.99    4.90
  -6   1 -11    1.30    1.00
  -7   1 -11    2.80    1.00
  -8   1 -11   84.09    3.90
  -9   1 -11   66.69    3.70
 -18   0  11  284.87    9.20
 -17   0  11  417.76   12.70
 -16   0  11    6.70    1.10
 -15   0  11  113.39    4.30
 -14   0  11  143.99    4.70
 -14   0  11  145.09    5.10
  13   0 -11 1116.59   32.80
 -13   0  11 1161.98   32.70
 -13   0  11 1174.98   33.10
  12   0 -11   11.20    1.70
 -12   0  11   11.00    1.30
 -12   0  11   10.20    1.80
  11   0 -11  130.69    4.30
 -11   0  11  131.39    4.20
  10   0 -11  468.15   14.00
 -10   0  11  500.25   14.00
   9   0 -11  173.68    5.40
  -9   0  11  178.08    5.40
   8   0 -11  175.48    5.40
  -8   0  11  181.48    5.50
   7   0 -11  238.08    7.00
  -7   0  11  238.48    7.10
   6   0 -11  238.58    7.20
  -6   0  11  242.98    7.40
  -6   0  11  248.18    7.30
   5   0 -11 1324.27   38.50
  -5   0  11 1396.06   38.60
  -5   0  11 1378.76   38.70
   4   0 -11  364.56   10.60
  -4   0  11  366.46   10.70
  -4   0  11  360.26   10.70
   3   0 -11   83.39    2.90
  -3   0  11   86.09    3.00
  -3   0  11   83.19    3.00
   2   0 -11  185.78    5.80
  -2   0  11  191.28    5.90
  -2   0  11  187.58    5.80
   1   0 -11  110.59    3.70
  -1   0  11  109.49    3.70
  -1   0  11  110.59    3.80
   0   0 -11   81.49    3.00
   0   0  11   81.09    2.90
   0   0  11   81.99    3.10
   1   0  11   11.70    1.60
   1   0  11   13.50    1.40
  -2   0 -11  529.95   15.70
   2   0  11  541.55   15.60
   2   0  11  540.05   15.70
  -3   0 -11  496.25   14.90
   3   0  11  507.15   14.70
   3   0  11  514.05   14.90
  -4   0 -11   42.10    2.60
   4   0  11   43.70    2.20
   4   0  11   41.80    2.40
  -5   0 -11   38.70    2.60
   5   0  11   36.80    2.40
  -6   0 -11   40.90    2.70
  -7   0 -11   50.29    3.00
  -8   0 -11    0.20    1.00
  -9   0 -11   15.90    2.80
 -18   1  11   -0.40    1.10
 -17   1  11   18.80    2.60
 -16   1  11   81.99    3.70
 -15   1  11    0.10    0.90
 -14   1  11    2.10    0.60
 -14   1  11    1.70    0.80
  13  -1 -11    0.60    0.60
 -13   1  11    1.80    0.80
 -13   1  11   -0.10    0.50
  12  -1 -11    0.30    0.50
 -12   1  11    0.60    0.70
 -12   1  11    0.20    0.50
  11  -1 -11   10.10    1.20
 -11   1  11   10.00    1.70
 -11   1  11    9.10    1.20
  10  -1 -11  249.48    7.70
 -10   1  11  265.97    7.70
 -10   1  11  263.77    8.00
   9  -1 -11  147.99    4.60
  -9   1  11  148.69    4.60
  -9   1  11  148.39    4.90
   8  -1 -11  159.28    4.90
  -8   1  11  161.28    5.30
  -8   1  11  169.28    5.00
   7  -1 -11   11.90    0.90
  -7   1  11   10.00    1.10
  -7   1  11   11.10    1.30
   6  -1 -11  203.08    6.20
  -6   1  11  215.48    6.30
  -6   1  11  205.98    6.50
   5  -1 -11   12.90    1.00
  -5   1  11   10.50    1.20
  -5   1  11   11.10    1.30
   4  -1 -11  227.08    6.80
  -4   1  11  225.98    6.90
  -4   1  11  229.08    7.00
   3  -1 -11  327.17    9.50
  -3   1  11  323.77    9.70
  -3   1  11  326.87    9.70
   2  -1 -11  194.08    6.00
  -2   1  11  196.48    6.10
  -2   1  11  194.78    6.00
   1  -1 -11  671.03   19.40
  -1   1  11  669.53   19.50
  -1   1  11  691.23   19.50
   0  -1 -11  279.17    8.50
   0   1  11  285.17    8.50
   0   1  11  277.77    8.50
  -1  -1 -11   62.89    2.90
   1   1  11   68.69    2.90
   1   1  11   72.49    2.80
  -2  -1 -11  164.78    5.50
   2   1  11  166.98    5.40
   2   1  11  164.98    5.50
  -3  -1 -11  285.97    8.90
   3   1  11  289.17    8.90
   3   1  11  288.77    8.80
  -4  -1 -11   -1.40    0.80
   4   1  11   -0.40    0.70
   4   1  11   -0.30    0.80
  -5  -1 -11   94.39    3.90
  -6  -1 -11  193.98    6.60
  -7  -1 -11  272.27    8.80
  -8  -1 -11    9.10    1.40
 -18   2  11   -0.40    1.10
 -17   2  11   20.10    2.70
 -16   2  11  121.79    4.70
 -15   2  11   70.19    3.30
 -15   2  11   74.49    2.80
 -14   2  11  138.99    4.50
 -14   2  11  134.09    4.90
 -13   2  11    2.60    0.70
 -13   2  11    1.80    0.50
  12  -2 -11   94.09    3.30
 -12   2  11   92.49    3.20
  11  -2 -11   44.50    1.90
 -11   2  11   44.10    2.40
 -11   2  11   43.00    1.90
  10  -2 -11  235.78    7.20
 -10   2  11  242.98    7.60
 -10   2  11  252.87    7.30
   9  -2 -11   84.39    2.90
  -9   2  11   90.39    3.30
  -9   2  11   85.49    3.00
   8  -2 -11  270.07    7.90
  -8   2  11  277.17    8.00
  -8   2  11  268.27    8.30
   7  -2 -11  203.58    6.20
  -7   2  11  216.88    6.40
  -7   2  11  215.08    6.60
   6  -2 -11  408.96   12.00
  -6   2  11  423.86   12.30
  -6   2  11  423.26   12.10
   5  -2 -11    6.60    0.90
  -5   2  11    4.30    0.60
   4  -2 -11  494.25   14.40
  -4   2  11  503.75   14.60
  -4   2  11  508.45   14.50
   3  -2 -11  610.74   17.20
  -3   2  11  581.84   17.30
  -3   2  11  606.94   17.30
   2  -2 -11   31.30    1.70
  -2   2  11   34.80    1.90
  -2   2  11   31.50    1.80
   1  -2 -11  121.99    4.10
  -1   2  11  124.89    4.20
  -1   2  11  126.39    4.30
   0  -2 -11   -1.10    0.60
   0   2  11    1.40    0.70
   0   2  11    1.10    0.60
  -1  -2 -11   89.19    3.50
   1   2  11   93.09    3.60
   1   2  11   96.99    3.60
  -2  -2 -11   46.00    2.60
   2   2  11   48.50    2.60
   2   2  11   47.50    2.50
  -3  -2 -11   19.60    2.10
   3   2  11   16.20    2.00
   3   2  11   20.10    2.00
  -4  -2 -11   13.90    2.10
   4   2  11   15.40    2.10
   4   2  11   12.60    2.00
  -5  -2 -11  396.36   12.10
   5   2  11  399.76   11.90
  -6  -2 -11   28.70    2.60
  -7  -2 -11   99.29    4.30
  -8  -2 -11   30.00    3.00
 -18   3  11  162.18    6.20
 -17   3  11   40.20    3.10
 -16   3  11   66.69    3.40
 -15   3  11  205.98    6.90
 -15   3  11  211.58    6.50
 -14   3  11   69.19    2.60
 -14   3  11   61.89    3.20
 -13   3  11   -0.20    0.70
 -13   3  11   -0.10    0.50
  12  -3 -11   90.09    3.30
 -12   3  11   93.39    3.70
 -12   3  11   96.69    3.20
  11  -3 -11   20.00    1.40
 -11   3  11   18.20    2.20
 -11   3  11   18.20    1.40
  10  -3 -11  267.87    8.00
 -10   3  11  282.87    8.00
 -10   3  11  259.57    8.30
   9  -3 -11    1.80    0.40
  -9   3  11    2.20    0.50
  -9   3  11    1.80    0.70
   8  -3 -11  287.07    8.50
  -8   3  11  293.27    8.90
  -8   3  11  299.67    8.60
   7  -3 -11   29.20    1.30
  -7   3  11   30.50    1.80
   6  -3 -11    0.60    0.30
  -6   3  11    1.00    0.50
  -6   3  11    1.50    0.60
   5  -3 -11  123.59    3.70
  -5   3  11  115.09    4.10
   4  -3 -11   53.19    1.90
  -4   3  11   53.39    2.40
  -4   3  11   41.50    2.90
   3  -3 -11  202.58    6.20
  -3   3  11  215.58    6.40
  -3   3  11  206.68    6.60
   2  -3 -11   14.10    1.40
  -2   3  11   14.80    1.50
  -2   3  11   16.70    1.60
   1  -3 -11  200.18    6.20
  -1   3  11  203.48    6.30
  -1   3  11  202.08    6.50
   0  -3 -11  342.87   10.10
   0   3  11  331.57   10.30
   0   3  11  340.57   10.10
  -1  -3 -11   56.29    2.70
   1   3  11   57.29    2.70
   1   3  11   57.69    2.80
  -2  -3 -11   73.49    3.20
   2   3  11   74.19    3.10
   2   3  11   77.29    3.40
  -3  -3 -11  118.09    4.40
   3   3  11  122.59    4.50
   3   3  11  115.39    4.40
  -4  -3 -11   72.39    3.40
   4   3  11   72.99    3.50
  -5  -3 -11  168.38    5.80
   5   3  11  163.88    5.80
  -6  -3 -11    0.30    0.90
  -7  -3 -11   -1.10    1.00
 -18   4  11   51.69    3.90
 -17   4  11  308.67   10.00
 -16   4  11   14.80    2.60
 -15   4  11    0.30    0.80
 -15   4  11   -0.20    0.60
 -14   4  11  164.58    5.10
 -14   4  11  152.68    5.60
 -13   4  11  291.07    9.20
 -13   4  11  296.57    8.70
 -12   4  11   28.80    2.20
 -12   4  11   26.40    1.60
  11  -4 -11  332.07    9.80
 -11   4  11  342.17    9.80
 -11   4  11  326.17   10.30
  10  -4 -11  469.85   13.40
 -10   4  11  493.05   13.40
 -10   4  11  435.56   14.20
   9  -4 -11 1317.97   37.30
  -9   4  11 1345.77   37.40
  -9   4  11 1312.37   37.80
   8  -4 -11    0.80    0.40
  -8   4  11    0.80    0.60
   7  -4 -11  263.57    7.80
  -7   4  11  277.07    8.00
   6  -4 -11   97.39    3.00
  -6   4  11   94.69    3.30
  -6   4  11   97.29    3.60
   5  -4 -11  359.76   10.40
  -5   4  11  357.66   10.60
  -5   4  11  367.26   10.90
   4  -4 -11    4.10    0.50
  -4   4  11    5.00    0.70
   3  -4 -11  378.56   11.00
  -3   4  11  383.26   11.40
  -3   4  11  371.56   11.10
   2  -4 -11  751.02   21.50
  -2   4  11  732.93   21.90
  -2   4  11  776.32   21.60
   1  -4 -11    1.40    0.70
  -1   4  11    2.60    0.80
  -1   4  11    1.70    0.70
   0  -4 -11   63.99    2.70
   0   4  11   58.99    3.00
   0   4  11   58.39    2.70
  -1  -4 -11   -1.40    0.70
   1   4  11    0.20    0.70
   1   4  11    0.00    0.90
  -2  -4 -11  299.77    9.10
   2   4  11  292.17    9.10
   2   4  11  301.27    9.40
  -3  -4 -11    3.80    0.90
   3   4  11    4.10    1.10
  -4  -4 -11   84.69    3.70
   4   4  11   83.39    3.90
  -5  -4 -11   51.39    3.00
   5   4  11   44.20    3.40
  -6  -4 -11   84.59    3.90
  -7  -4 -11  143.09    5.60
 -18   5  11    2.90    1.40
 -17   5  11    8.80    1.40
 -16   5  11   -0.30    0.70
 -16   5  11    1.80    1.00
 -15   5  11   14.90    1.60
 -15   5  11   14.60    2.40
 -14   5  11   39.70    2.00
 -14   5  11   38.80    2.80
 -13   5  11   -0.70    0.50
 -13   5  11   -0.60    0.80
 -12   5  11   20.90    2.30
 -12   5  11   23.40    1.50
  11  -5 -11    1.10    0.50
 -11   5  11    0.60    0.50
 -11   5  11    1.00    0.90
  10  -5 -11   81.89    2.80
 -10   5  11   81.89    2.80
 -10   5  11   78.59    3.50
   9  -5 -11  319.57    8.60
  -9   5  11  263.37   10.30
  -9   5  11  295.07    8.90
   8  -5 -11  118.29    3.70
  -8   5  11  124.89    3.90
  -8   5  11  120.29    4.50
   7  -5 -11    1.80    0.40
  -7   5  11    1.20    0.50
  -7   5  11    0.90    0.70
   6  -5 -11   74.39    2.50
  -6   5  11   78.19    2.80
  -6   5  11   76.79    3.20
   5  -5 -11    5.60    0.80
  -5   5  11    4.60    0.90
  -5   5  11    4.50    0.60
   4  -5 -11   57.99    2.10
  -4   5  11   60.49    2.40
  -4   5  11   54.69    2.80
   3  -5 -11  480.95   13.50
  -3   5  11  489.65   14.10
  -3   5  11  435.56   14.20
  -2   5  11    2.70    0.90
  -2   5  11    3.10    0.70
   1  -5 -11    1.30    0.70
  -1   5  11    1.40    0.70
  -1   5  11    2.20    0.90
   0  -5 -11   88.29    3.30
   0   5  11   85.99    3.80
   0   5  11   85.89    3.40
  -1  -5 -11    2.30    0.80
   1   5  11    2.70    0.80
   1   5  11    3.10    1.00
  -2  -5 -11   48.90    2.70
   2   5  11   48.10    3.20
  -3  -5 -11   49.99    2.80
   3   5  11   48.70    3.30
  -4  -5 -11    8.80    1.20
   4   5  11    8.60    1.40
  -5  -5 -11    1.80    1.10
   5   5  11    3.70    1.50
  -6  -5 -11    9.50    1.40
 -18   6  11    0.60    1.40
 -17   6  11   93.09    4.70
 -16   6  11   14.80    1.70
 -16   6  11   17.00    2.80
 -15   6  11   96.99    3.50
 -15   6  11  100.99    4.40
 -14   6  11   36.90    2.90
 -14   6  11   42.80    2.00
 -13   6  11  326.87   10.40
 -13   6  11  337.87    9.80
 -12   6  11  541.45   15.30
 -12   6  11  527.55   16.00
 -11   6  11    5.30    1.00
 -11   6  11    4.80    0.60
  10  -6 -11   27.90    1.50
 -10   6  11   30.40    2.40
   9  -6 -11  122.19    3.80
  -9   6  11  120.49    3.90
  -9   6  11  122.39    4.60
   8  -6 -11  594.34   17.20
  -8   6  11  612.44   18.00
  -8   6  11  613.74   17.30
   7  -6 -11  234.38    6.70
  -7   6  11  228.78    6.90
   6  -6 -11  329.47    9.50
  -6   6  11  331.27    9.70
   5  -6 -11   15.10    1.60
   5  -6 -11   14.60    1.00
  -5   6  11   12.60    1.50
   4  -6 -11   30.40    2.00
   4  -6 -11   32.20    1.50
  -4   6  11   34.20    1.90
  -4   6  11   35.20    2.50
   3  -6 -11   21.10    1.40
   3  -6 -11   21.80    1.80
  -3   6  11   21.30    2.20
  -3   6  11   21.20    1.70
   2  -6 -11   33.70    2.10
   2  -6 -11   33.30    1.80
  -2   6  11   34.70    2.50
  -2   6  11   34.60    2.00
   1  -6 -11  537.95   15.90
   1  -6 -11  562.54   15.70
  -1   6  11  528.95   16.30
  -1   6  11  539.15   15.70
   0  -6 -11  300.27    8.70
   0  -6 -11  278.77    8.80
   0   6  11  285.57    8.70
   0   6  11  283.27    9.30
  -1  -6 -11  211.08    6.90
  -1  -6 -11  223.18    6.90
   1   6  11  214.68    7.50
  -2  -6 -11    7.70    1.10
   2   6  11    6.80    1.40
  -3  -6 -11    4.10    1.00
   3   6  11    3.20    1.40
  -4  -6 -11  121.19    4.70
   4   6  11  116.59    5.30
  -5  -6 -11   36.20    2.90
   5   6  11   28.50    3.90
 -18   7  11    5.10    1.70
 -17   7  11   22.60    3.40
 -17   7  11   18.90    2.10
 -16   7  11   23.60    2.00
 -16   7  11   28.20    3.20
 -15   7  11    7.40    1.20
 -15   7  11    6.40    0.80
 -14   7  11  433.46   12.40
 -14   7  11  423.46   13.30
 -13   7  11   77.39    2.80
 -13   7  11   77.59    3.80
 -12   7  11   54.09    3.10
 -12   7  11   51.89    2.20
 -11   7  11   19.50    2.10
 -11   7  11   25.80    2.40
 -10   7  11  539.05   16.50
 -10   7  11  561.64   15.70
   9  -7 -11  134.99    4.00
  -9   7  11  128.69    4.90
  -9   7  11  123.49    4.10
   8  -7 -11    2.40    0.80
   8  -7 -11    1.10    0.40
  -8   7  11    1.70    0.90
  -8   7  11    0.80    0.60
   7  -7 -11    9.80    0.80
   7  -7 -11    9.20    1.60
  -7   7  11    9.50    1.40
   6  -7 -11  100.09    3.90
   6  -7 -11  102.59    3.10
  -6   7  11  104.89    3.50
  -6   7  11  103.99    4.30
   5  -7 -11    2.20    0.40
   5  -7 -11    2.30    0.70
  -5   7  11    1.80    0.80
  -5   7  11    2.30    0.60
   4  -7 -11   72.69    3.10
   4  -7 -11   74.39    2.50
  -4   7  11   72.49    2.80
  -4   7  11   75.29    3.50
   3  -7 -11   48.20    1.90
   3  -7 -11   46.20    2.40
  -3   7  11   48.20    2.20
  -3   7  11   48.20    3.00
   2  -7 -11   31.00    2.00
   2  -7 -11   29.60    1.80
  -2   7  11   30.60    2.70
  -2   7  11   29.50    2.00
   1  -7 -11    9.10    1.60
   1  -7 -11    7.30    0.80
  -1   7  11    6.20    1.20
   0  -7 -11  199.88    6.10
   0  -7 -11  182.18    6.20
   0   7  11  188.68    6.90
  -1  -7 -11   47.20    2.70
  -1  -7 -11   56.39    2.70
   1   7  11   49.10    3.60
  -2  -7 -11   72.79    3.70
  -2  -7 -11   67.29    3.20
   2   7  11   68.39    4.20
  -3  -7 -11    1.90    1.00
  -3  -7 -11    1.60    1.00
   3   7  11    1.70    1.80
  -4  -7 -11    3.10    1.20
  -5  -7 -11    8.10    1.40
 -18   8  11   -2.40    1.60
 -17   8  11   76.09    4.60
 -17   8  11   72.19    3.30
 -16   8  11   47.60    3.80
 -16   8  11   49.50    2.50
 -15   8  11    0.10    1.10
 -15   8  11    0.90    0.70
 -14   8  11  123.79    4.10
 -14   8  11  122.19    5.20
 -13   8  11  162.98    6.10
 -13   8  11  162.78    5.10
 -12   8  11    4.10    0.60
 -12   8  11    4.20    1.10
 -11   8  11    0.90    0.90
 -11   8  11    0.90    0.50
  10  -8 -11  441.06   13.50
 -10   8  11  457.75   12.90
 -10   8  11  450.25   13.90
   9  -8 -11   52.19    2.70
  -9   8  11   55.19    3.10
  -9   8  11   44.70    2.10
   8  -8 -11   33.70    1.40
   8  -8 -11   32.40    2.20
  -8   8  11   32.60    2.60
  -8   8  11   34.30    1.70
   7  -8 -11    8.40    1.60
   7  -8 -11   11.80    0.90
  -7   8  11   12.80    1.40
   6  -8 -11  211.08    7.00
  -6   8  11  215.48    6.50
  -6   8  11  224.48    7.50
   5  -8 -11   85.89    3.50
   5  -8 -11   90.89    2.80
  -5   8  11   87.29    3.00
  -5   8  11   91.49    4.10
   4  -8 -11    4.20    0.80
  -4   8  11    7.40    1.30
  -4   8  11    3.60    1.00
   3  -8 -11   31.60    1.50
   3  -8 -11   29.60    2.10
  -3   8  11   32.30    1.80
  -3   8  11   29.30    2.70
   2  -8 -11  237.28    6.80
   2  -8 -11  217.48    7.20
  -2   8  11  228.38    7.90
   1  -8 -11  161.18    4.90
   1  -8 -11  145.39    5.20
  -1   8  11  150.78    6.00
   0  -8 -11   65.59    3.10
   0  -8 -11   74.59    3.10
   0   8  11   69.99    4.10
  -1  -8 -11   14.70    2.20
  -1  -8 -11   13.00    2.20
   1   8  11   17.30    3.20
  -2  -8 -11   37.00    2.80
   2   8  11   39.60    3.80
  -3  -8 -11    2.40    1.20
  -3  -8 -11    2.20    1.10
   3   8  11    2.20    1.60
  -4  -8 -11   -1.50    1.20
   4   8  11    0.10    1.80
 -17   9  11  102.09    5.40
 -16   9  11  165.68    6.50
 -16   9  11  154.68    5.40
 -15   9  11   13.10    1.80
 -15   9  11   16.20    2.90
 -14   9  11    4.00    0.80
 -14   9  11    4.00    1.20
 -13   9  11  369.76   11.80
 -13   9  11  367.46   10.70
 -12   9  11  313.97    9.20
 -12   9  11  317.37   10.30
 -11   9  11    1.70    0.90
 -11   9  11    0.50    0.60
 -10   9  11   58.59    2.40
 -10   9  11   68.99    3.60
  -9   9  11   53.09    3.20
  -8   9  11   28.60    2.60
  -7   9  11  142.79    5.60
   6  -9 -11   -0.70    0.70
  -6   9  11    1.00    1.10
   5  -9 -11    0.00    0.60
  -5   9  11    0.70    1.10
  -4   9  11   62.89    3.70
   3  -9 -11   44.80    2.60
   3  -9 -11   48.80    1.90
  -3   9  11   46.50    3.30
   2  -9 -11    5.20    0.90
  -2   9  11    6.20    1.30
   1  -9 -11    6.80    0.90
   1  -9 -11    5.90    1.00
  -1   9  11    8.40    1.60
   0  -9 -11  296.57   10.20
   0  -9 -11  357.86    9.90
   0   9  11  339.47   11.10
  -1  -9 -11   69.79    3.70
  -1  -9 -11   87.19    3.50
   1   9  11   78.89    4.80
  -2  -9 -11    7.60    1.40
   2   9  11    9.60    1.90
  -3  -9 -11    1.10    1.30
   3   9  11    1.60    1.90
 -17  10  11   20.70    4.10
 -17  10  11   26.80    3.20
 -16  10  11   55.89    3.30
 -16  10  11   51.99    4.20
 -15  10  11   10.50    1.70
 -14  10  11   37.60    3.40
 -14  10  11   39.30    3.10
 -13  10  11  110.69    4.90
 -13  10  11  100.39    3.60
 -12  10  11  268.37    9.20
 -11  10  11    1.40    1.10
 -10  10  11    5.90    1.10
  -9  10  11   37.40    3.10
  -8  10  11   28.70    2.80
  -7  10  11   19.90    2.70
  -6  10  11   15.20    2.60
  -5  10  11   80.09    4.20
  -4  10  11   94.99    4.60
  -3  10  11    4.00    1.50
   2 -10 -11   76.69    2.80
  -2  10  11   75.09    4.50
   1 -10 -11    8.20    0.90
  -1  10  11    7.10    1.60
   0 -10 -11  379.86   10.90
   0  10  11  351.26   12.30
  -1 -10 -11  182.98    6.00
   1  10  11  169.98    7.40
   2  10  11   11.80    2.30
 -16  11  11   41.70    4.20
 -15  11  11  213.58    8.10
 -14  11  11  204.38    7.70
 -13  11  11   35.10    3.40
 -12  11  11   40.10    3.30
 -11  11  11   69.99    4.00
 -10  11  11  103.29    4.80
  -9  11  11   36.90    3.10
  -8  11  11    8.90    1.30
  -7  11  11  178.68    6.90
  -6  11  11  102.39    4.90
  -5  11  11    0.20    1.10
  -4  11  11   64.79    4.10
  -3  11  11   37.70    3.80
  -2  11  11   86.69    5.00
  -1  11  11  234.28    8.90
   0  11  11   23.20    4.30
 -15  12  11   61.09    4.50
 -14  12  11   67.59    4.40
 -13  12  11    0.40    1.20
 -12  12  11   35.20    3.40
 -11  12  11    1.90    1.30
 -10  12  11   39.70    3.50
  -9  12  11  151.58    6.20
  -8  12  11    1.40    1.20
  -7  12  11   21.90    3.00
  -6  12  11   40.20    3.70
  -5  12  11    0.40    1.30
  -4  12  11   63.09    4.30
  -3  12  11    8.90    1.70
  -2  12  11  115.09    6.00
  -1  12  11   -0.70    1.70
 -14  13  11   -0.60    1.50
 -13  13  11   36.70    3.70
 -12  13  11  123.09    5.80
 -11  13  11    5.50    1.30
 -10  13  11   28.20    3.20
  -9  13  11  143.19    6.20
  -8  13  11    3.70    1.20
  -7  13  11    0.40    1.20
  -6  13  11    5.20    1.80
  -5  13  11  144.69    6.50
  -4  13  11  108.09    5.70
  -3  13  11   71.89    5.20
 -10  14  11    2.50    1.40
  -9  14  11    2.60    1.40
  -8  14  11    3.70    1.60
  -7  14  11   87.69    5.00
  -6  14  11   -0.20    1.50
   4  17 -12   74.19    3.20
   3  17 -12    5.20    0.90
   2  17 -12   18.80    1.80
   1  17 -12   74.79    3.10
   0  17 -12    2.70    0.80
  -1  17 -12   -0.30    0.80
  -2  17 -12   74.19    3.30
  -3  17 -12   35.60    2.50
   6  16 -12   -0.40    0.70
   5  16 -12   70.39    3.00
   4  16 -12  229.28    7.20
   3  16 -12   -0.50    0.60
   2  16 -12    4.80    0.80
   1  16 -12   42.10    2.20
   0  16 -12   90.39    3.50
  -1  16 -12   50.79    2.60
  -2  16 -12    8.70    1.00
  -3  16 -12  141.99    5.10
  -4  16 -12   61.39    3.20
  -5  16 -12    5.40    1.20
   8  15 -12    0.60    0.70
   7  15 -12  289.67    8.90
   6  15 -12  138.99    4.80
   5  15 -12    0.70    0.60
   4  15 -12  158.48    5.20
   3  15 -12   11.10    1.50
   2  15 -12   75.99    3.00
   1  15 -12    5.50    0.80
   0  15 -12   14.70    1.70
  -1  15 -12  265.27    8.20
  -2  15 -12    1.80    0.80
  -3  15 -12   96.39    3.90
  -4  15 -12  133.69    4.90
  -5  15 -12  208.68    7.00
  -6  15 -12   90.59    4.10
   9  14 -12   11.90    1.80
   8  14 -12  188.68    6.20
   7  14 -12  251.77    7.80
   6  14 -12  168.98    5.50
   5  14 -12    9.70    1.40
   4  14 -12   12.30    1.40
   3  14 -12   49.70    2.30
   2  14 -12    0.40    0.60
   1  14 -12  176.18    5.70
   0  14 -12   -0.20    0.60
  -1  14 -12  272.57    8.40
  -2  14 -12  123.19    4.50
  -3  14 -12   79.59    3.40
  -4  14 -12   40.00    2.60
   4 -14  12   36.10    4.50
  -5  14 -12  201.98    6.90
   5 -14  12  206.38    8.20
  -6  14 -12  134.29    5.10
   6 -14  12  126.39    6.70
  -7  14 -12   17.60    2.70
  11  13 -12   34.70    2.40
  10  13 -12   35.30    2.20
   9  13 -12  328.37   10.00
   8  13 -12  556.84   16.30
   7  13 -12  105.99    3.80
   6  13 -12    0.20    0.60
   5  13 -12    9.70    1.30
   4  13 -12    2.40    0.60
  -4 -13  12    2.20    0.90
   3  13 -12    4.70    0.60
  -3 -13  12    3.70    0.80
   2  13 -12    0.20    0.60
  -2 -13  12   -0.40    0.70
   1  13 -12  131.69    4.40
  -1 -13  12  129.39    4.60
   0  13 -12  143.39    4.90
   0 -13  12  159.18    7.30
   0 -13  12  138.69    5.00
  -1  13 -12  203.98    6.50
   1 -13  12  199.28    7.60
  -2  13 -12   66.89    3.00
   2 -13  12   63.69    4.40
  -3  13 -12    3.40    0.90
   3 -13  12    4.20    1.60
  -4  13 -12   24.50    2.20
   4 -13  12   21.40    3.90
  -5  13 -12   41.00    2.70
   5 -13  12   42.00    4.40
  -6  13 -12    8.50    1.20
   6 -13  12    6.80    1.90
  -7  13 -12  105.49    4.60
  12  12 -12   22.30    2.20
  11  12 -12  131.09    4.80
  10  12 -12   29.10    2.00
   9  12 -12  142.89    4.90
   8  12 -12    2.50    0.60
   7  12 -12   68.09    2.80
   6  12 -12    1.00    0.50
   5  12 -12  110.59    3.80
  -5 -12  12  110.69    4.00
   4  12 -12  152.58    4.90
  -4 -12  12  148.69    5.10
   3  12 -12   45.60    2.10
  -3 -12  12   43.00    2.30
   2  12 -12  111.89    3.90
  -2 -12  12  109.79    4.90
  -2 -12  12  112.39    4.00
   1  12 -12   37.10    2.00
  -1 -12  12   37.30    2.20
  -1 -12  12   38.00    3.10
   0  12 -12  164.18    5.30
   0 -12  12  160.28    6.40
   0 -12  12  164.18    5.50
  -1  12 -12    0.20    0.70
   1 -12  12    1.40    0.80
   1 -12  12    2.30    1.30
  -2  12 -12  242.98    7.70
   2 -12  12  243.88    8.60
  -3  12 -12  104.99    4.00
   3 -12  12  104.39    5.10
  -4  12 -12   32.00    2.40
   4 -12  12   31.40    3.70
  -5  12 -12   19.10    2.20
   5 -12  12   13.70    1.90
  -6  12 -12  147.99    5.40
   6 -12  12  148.19    6.30
  -7  12 -12   11.10    1.40
  -8  12 -12    7.80    1.40
  12  11 -12   95.09    3.90
  11  11 -12  740.13   21.50
  10  11 -12   80.29    3.20
   9  11 -12   22.90    1.70
   8  11 -12   23.40    1.60
   7  11 -12  517.75   15.10
   6  11 -12   24.50    1.60
  -6 -11  12   19.90    1.70
   5  11 -12    3.20    0.60
  -5 -11  12    3.10    0.70
   4  11 -12    9.90    1.30
  -4 -11  12   10.10    1.60
   3  11 -12   44.60    2.10
  -3 -11  12   44.20    2.30
   2  11 -12   24.00    1.60
  -2 -11  12   25.90    1.90
   1  11 -12    5.60    0.80
  -1 -11  12    4.90    0.80
  -1 -11  12    5.30    1.10
   0  11 -12  101.09    3.70
   0 -11  12  107.19    4.70
   0 -11  12   99.29    3.90
  -1  11 -12  345.87   10.50
   1 -11  12  349.67   10.60
   1 -11  12  350.66   11.40
  -2  11 -12  142.49    4.90
   2 -11  12  139.89    5.80
   2 -11  12  139.59    5.00
  -3  11 -12   64.39    3.00
   3 -11  12   64.59    4.00
  -4  11 -12   -0.80    0.80
   4 -11  12   -1.30    1.30
  -5  11 -12    0.50    0.90
   5 -11  12    0.50    1.40
  -6  11 -12   30.60    2.60
   6 -11  12   27.00    3.60
  -7  11 -12   16.40    2.50
  -8  11 -12  270.67    8.90
  13  10 -12   92.59    3.80
  12  10 -12   19.70    2.00
  11  10 -12  154.48    5.20
  10  10 -12   12.60    1.50
   9  10 -12    6.40    0.80
   8  10 -12  101.59    3.70
  -8 -10  12  108.59    4.70
   7  10 -12  378.06   11.20
  -7 -10  12  378.26   11.30
   6  10 -12   14.10    1.30
  -6 -10  12   13.10    1.50
   5  10 -12  119.49    4.00
  -5 -10  12  124.49    4.20
   4  10 -12    3.90    0.60
  -4 -10  12    3.60    0.70
   3  10 -12    5.50    0.70
  -3 -10  12    5.80    0.80
   2  10 -12  128.49    4.30
  -2 -10  12  133.09    4.50
   1  10 -12  487.55   14.40
  -1 -10  12  499.95   14.60
   0  10 -12   12.40    1.60
   0 -10  12   10.80    1.70
  -1  10 -12  210.28    6.80
   1 -10  12  211.38    7.60
   1 -10  12  220.38    6.90
  -2  10 -12   14.80    1.80
   2 -10  12   15.10    2.80
   2 -10  12   14.10    1.80
  -3  10 -12   72.09    3.20
   3 -10  12   66.39    4.00
   3 -10  12   73.09    3.50
  -4  10 -12   19.60    2.20
   4 -10  12   26.30    3.20
  -5  10 -12   37.90    2.70
   5 -10  12   42.70    3.50
  -6  10 -12    6.30    1.20
   6 -10  12    6.00    1.50
  -7  10 -12    1.30    1.00
  -8  10 -12   28.10    2.80
  -9  10 -12  346.47   11.30
  13   9 -12  346.77   10.70
  12   9 -12   89.49    3.50
  11   9 -12   10.70    1.50
  10   9 -12  236.48    7.40
   9   9 -12    8.80    1.40
   8   9 -12  102.09    3.60
  -8  -9  12  100.79    3.60
   7   9 -12  349.57   10.30
  -7  -9  12  344.47   10.40
   6   9 -12   36.40    1.80
  -6  -9  12   35.30    1.90
   5   9 -12  459.75   13.60
  -5  -9  12  474.95   13.70
   4   9 -12    1.80    0.50
  -4  -9  12    2.00    0.60
   3   9 -12   51.29    2.20
  -3  -9  12   52.39    2.40
   2   9 -12   59.09    2.50
  -2  -9  12   61.89    2.70
   1   9 -12  726.33   21.30
  -1  -9  12  752.62   21.40
   0   9 -12  296.37    9.10
   0  -9  12  306.47    9.30
  -1   9 -12  404.36   12.20
   1  -9  12  416.56   12.30
  -2   9 -12    3.20    0.80
   2  -9  12    2.70    0.70
  -3   9 -12   40.40    2.50
   3  -9  12   44.50    3.20
   3  -9  12   41.80    2.40
  -4   9 -12   46.50    2.70
   4  -9  12   47.80    3.40
  -5   9 -12    5.10    1.00
   5  -9  12    6.00    1.40
   6  -9  12   78.39    4.00
  -7   9 -12  244.28    8.10
  -8   9 -12   59.89    3.60
  -9   9 -12    0.20    1.20
  13   8 -12  171.88    5.80
  12   8 -12   40.00    2.20
  11   8 -12   28.00    1.90
  10   8 -12    0.10    0.60
   9   8 -12  221.18    6.90
  -9  -8  12  222.18    6.90
   8   8 -12   71.59    2.70
  -8  -8  12   70.99    2.80
   7   8 -12   61.99    2.40
  -7  -8  12   63.29    2.50
   6   8 -12    3.90    0.50
  -6  -8  12    4.10    0.60
   5   8 -12   77.69    3.10
  -5  -8  12   79.59    3.00
   4   8 -12   15.80    2.20
  -4  -8  12   19.40    1.60
   3   8 -12  116.59    4.40
  -3  -8  12  125.39    4.20
  -2  -8  12   98.99    3.60
   1   8 -12   88.99    3.70
  -1  -8  12  102.29    3.60
   0   8 -12  159.98    5.30
   0  -8  12  163.68    5.40
  -1   8 -12   45.70    2.40
   1  -8  12   48.10    2.50
  -2   8 -12    1.10    0.70
   2  -8  12    1.20    0.70
  -3   8 -12   97.49    3.80
   3  -8  12   92.09    3.70
  -4   8 -12   65.19    3.20
   4  -8  12   69.79    3.70
  -5   8 -12   29.90    2.40
   5  -8  12   35.20    3.00
  -6   8 -12   55.59    3.00
   6  -8  12   49.10    4.00
  -7   8 -12   75.29    3.70
  -8   8 -12   15.80    2.60
  -9   8 -12   -0.30    1.10
  13   7 -12    3.50    0.80
  12   7 -12  111.09    4.00
  11   7 -12  525.55   15.40
  10   7 -12  223.68    6.80
 -10  -7  12  211.68    6.80
   9   7 -12  120.89    4.00
  -9  -7  12  116.49    4.00
   8   7 -12  398.16   11.80
  -8  -7  12  405.46   11.90
   7   7 -12  183.48    5.70
  -7  -7  12  186.88    5.80
   6   7 -12  257.17    8.90
  -6  -7  12  293.47    8.40
   5   7 -12   41.70    1.90
  -5  -7  12   41.60    2.00
   4   7 -12  767.52   22.50
  -4  -7  12  808.02   22.60
   3   7 -12 1761.22   50.29
  -3  -7  12 1804.62   50.39
   2   7 -12   34.20    1.90
  -2  -7  12   36.70    2.00
   1   7 -12  327.87   10.10
  -1  -7  12  346.87   10.20
   0   7 -12   96.69    4.00
   0  -7  12  108.49    3.80
  -1   7 -12  803.32   23.70
   1  -7  12  843.22   23.80
  -2   7 -12  585.54   17.30
   2  -7  12  597.14   17.30
  -3   7 -12   79.29    3.40
   3  -7  12   79.79    3.30
  -4   7 -12  160.88    5.60
  -5   7 -12   44.90    2.70
   5  -7  12   38.10    4.50
  -6   7 -12    6.10    1.00
  -7   7 -12    0.30    1.00
  -8   7 -12  130.59    5.20
  -9   7 -12  173.18    6.40
  13   6 -12  545.95   16.10
  12   6 -12   87.39    3.30
 -11  -6  12    3.10    0.60
  10   6 -12   22.50    1.60
 -10  -6  12   22.30    1.70
   9   6 -12   10.40    1.30
  -9  -6  12   10.30    1.40
   8   6 -12    3.10    0.60
  -8  -6  12    3.70    0.60
   7   6 -12  206.78    6.80
  -7  -6  12  226.88    6.70
   6   6 -12  557.54   16.20
  -6  -6  12  566.24   16.30
   5   6 -12  748.43   21.80
  -5  -6  12  777.02   21.90
   4   6 -12    0.50    0.50
  -4  -6  12    0.60    0.50
   3   6 -12  463.15   13.60
  -3  -6  12  473.95   13.70
   2   6 -12   48.60    2.10
  -2  -6  12   46.80    2.30
   1   6 -12  272.87    8.40
  -1  -6  12  283.87    8.50
   0   6 -12  334.57   11.00
   0  -6  12  380.06   10.80
  -1   6 -12  423.96   12.60
   1  -6  12  427.36   12.70
  -2   6 -12  647.64   19.10
   2  -6  12  663.43   19.10
  -3   6 -12    7.30    1.00
   3  -6  12    6.10    0.90
  -4   6 -12  102.79    4.00
   4  -6  12  103.99    4.60
  -5   6 -12  208.98    7.00
  -6   6 -12    0.50    1.00
  -7   6 -12   98.49    4.20
  -8   6 -12   26.20    2.80
  14   5 -12   61.49    2.80
  13   5 -12  289.97    8.90
  12   5 -12    2.50    0.70
  11   5 -12    9.30    1.40
 -11  -5  12   10.60    1.40
  10   5 -12  404.46   11.90
 -10  -5  12  403.26   11.90
   9   5 -12    1.20    0.50
   8   5 -12    1.80    0.50
  -8  -5  12    0.90    0.50
   7   5 -12    3.00    0.50
  -7  -5  12    2.30    0.50
   6   5 -12 1085.09   30.50
  -6  -5  12 1066.09   30.60
   5   5 -12  294.87    8.90
  -5  -5  12  304.87    9.00
   4   5 -12  207.78    6.30
  -4  -5  12  206.58    6.40
   3   5 -12    1.40    0.50
  -3  -5  12    2.00    0.60
   2   5 -12  110.29    3.80
  -2  -5  12  117.69    4.00
   1   5 -12  654.03   19.40
  -1  -5  12  693.33   19.50
   0   5 -12  311.07    9.50
   0  -5  12  323.37    9.60
  -1   5 -12  101.99    3.90
  -2   5 -12  271.87    8.40
   2  -5  12  266.97    8.40
  -3   5 -12  826.52   24.30
   3  -5  12  855.91   24.30
   4  -5  12  131.79    4.80
  -5   5 -12   18.90    2.20
  -6   5 -12  108.19    4.40
  -7   5 -12  105.39    4.40
  -8   5 -12  150.48    5.70
  -9   5 -12    9.30    1.40
  14   4 -12   93.59    3.60
  13   4 -12   32.50    2.00
  12   4 -12   13.70    1.40
 -12  -4  12   11.40    1.40
  11   4 -12   57.49    2.40
 -11  -4  12   58.09    2.40
  10   4 -12   88.89    3.20
 -10  -4  12   87.69    3.20
   9   4 -12   20.60    2.10
  -9  -4  12   26.00    1.50
   8   4 -12  236.98    7.20
  -8  -4  12  244.98    7.30
   7   4 -12 1001.80   28.60
  -7  -4  12 1012.20   28.70
   6   4 -12    2.60    0.50
  -6  -4  12    3.10    0.60
   5   4 -12    7.40    1.10
  -5  -4  12    4.80    0.60
   4   4 -12  164.78    5.20
  -4  -4  12  169.98    5.30
   3   4 -12  333.57   10.00
  -3  -4  12  342.57   10.10
   2   4 -12   12.90    1.40
  -2  -4  12   13.50    1.50
   1   4 -12   21.70    1.60
  -1  -4  12   21.90    1.70
   0   4 -12   78.89    3.10
   0  -4  12   79.69    3.10
   1  -4  12  584.84   17.10
  -2   4 -12   42.20    2.40
   2  -4  12   43.90    2.40
  -3   4 -12   20.60    2.10
   3  -4  12   19.30    1.50
   3  -4  12   18.80    1.90
  -4   4 -12    2.80    0.90
   4  -4  12    3.00    0.60
   4  -4  12    2.50    0.80
  -5   4 -12    4.00    1.00
  -6   4 -12   92.79    4.00
  -7   4 -12   19.30    2.50
  -8   4 -12   46.20    3.20
  -9   4 -12   31.70    3.30
  14   3 -12    3.60    0.70
  13   3 -12  232.98    7.30
  12   3 -12    3.20    0.60
 -12  -3  12    2.00    0.60
  11   3 -12  227.38    7.00
 -11  -3  12  225.38    6.90
  10   3 -12    1.30    0.80
 -10  -3  12    1.30    0.50
   9   3 -12    4.00    0.50
  -9  -3  12    3.70    0.60
   8   3 -12    3.40    0.50
  -8  -3  12    3.10    0.60
   7   3 -12  615.34   17.80
  -7  -3  12  627.34   17.90
   6   3 -12   68.39    2.50
  -6  -3  12   67.79    2.60
   5   3 -12   62.89    2.40
  -5  -3  12   68.19    2.60
   4   3 -12  310.77    9.30
  -4  -3  12  321.07    9.40
   3   3 -12  502.65   14.80
  -3  -3  12  522.85   15.00
   2   3 -12  429.76   12.70
  -2  -3  12  443.76   12.90
   1   3 -12   -0.50    0.50
  -1  -3  12    0.30    0.60
   0   3 -12  379.76   11.50
   0  -3  12  393.86   11.50
  -1   3 -12  108.99    4.60
   1  -3  12  115.29    4.10
  -2   3 -12  225.18    7.30
   2  -3  12  230.88    7.00
   2  -3  12  233.38    7.30
  -3   3 -12  193.88    6.50
   3  -3  12  205.18    6.10
   3  -3  12  197.88    6.50
  -4   3 -12 1525.65   43.10
   4  -3  12 1510.75   43.20
   4  -3  12 1504.15   42.70
  -5   3 -12  229.08    7.50
  -6   3 -12   22.70    2.40
  -7   3 -12   34.70    2.80
  -8   3 -12    6.20    1.30
  -9   3 -12   99.29    6.00
 -18  -2  12    4.10    1.20
 -17  -2  12   81.79    3.90
  14   2 -12  168.88    5.60
  13   2 -12  662.63   19.00
 -13  -2  12  648.74   18.90
  12   2 -12   11.20    1.40
 -12  -2  12   10.60    1.40
  11   2 -12   34.60    1.80
 -11  -2  12   35.30    1.80
  10   2 -12  417.96   12.50
 -10  -2  12  442.26   12.60
   9   2 -12   51.29    2.00
  -9  -2  12   48.10    2.10
  -8  -2  12    4.50    0.60
   7   2 -12   43.90    1.80
  -7  -2  12   41.50    1.90
   6   2 -12  911.91   26.30
  -6  -2  12  945.71   26.50
   5   2 -12  114.29    3.80
  -5  -2  12  118.69    3.90
   4   2 -12  303.27    9.10
  -4  -2  12  318.37    9.30
   3   2 -12   56.29    2.30
  -3  -2  12   58.09    2.50
   2   2 -12    0.20    0.50
  -2  -2  12    0.80    0.60
   1   2 -12  187.28    6.00
  -1  -2  12  191.98    5.90
  -1  -2  12  191.98    6.10
   0   2 -12  127.79    4.30
   0  -2  12  128.09    4.40
   0  -2  12  124.59    4.20
  -1   2 -12    2.70    0.80
   1  -2  12    2.80    0.80
   1  -2  12    2.50    0.60
  -2   2 -12 1943.61   56.39
   2  -2  12 1990.00   56.09
   2  -2  12 2047.40   56.49
  -3   2 -12  107.09    4.20
   3  -2  12  105.99    4.20
   3  -2  12  115.89    3.70
  -4   2 -12    2.50    1.00
   4  -2  12    2.60    0.90
  -5   2 -12   83.49    3.70
  -6   2 -12   -0.10    0.90
  -7   2 -12    9.50    1.30
  -8   2 -12   15.50    2.60
 -18  -1  12   50.99    3.50
 -17  -1  12   85.39    4.00
 -16  -1  12  190.98    6.50
 -15  -1  12  346.27   10.70
  14   1 -12    0.70    0.60
  13   1 -12   87.29    3.30
 -13  -1  12   86.09    3.20
  12   1 -12    0.20    0.50
 -12  -1  12    0.00    0.60
  11   1 -12    1.20    0.60
 -11  -1  12    0.60    0.50
  10   1 -12  727.33   21.10
 -10  -1  12  747.03   21.10
   9   1 -12  109.99    3.70
  -9  -1  12  114.59    3.70
   8   1 -12  390.66   11.40
  -8  -1  12  400.16   11.60
   7   1 -12  123.59    3.90
  -7  -1  12  125.19    4.10
   6   1 -12  643.34   18.80
  -6  -1  12  674.13   18.90
   5   1 -12  465.25   13.50
  -5  -1  12  470.35   13.60
   4   1 -12    4.10    0.60
  -4  -1  12    3.60    0.70
   3   1 -12   52.29    2.20
  -3  -1  12   52.69    2.20
  -3  -1  12   55.69    2.40
   2   1 -12  159.18    5.10
  -2  -1  12  163.88    5.30
  -2  -1  12  162.38    5.10
   1   1 -12  286.47    8.60
  -1  -1  12  291.07    8.60
  -1  -1  12  283.97    8.70
   0   1 -12  450.55   13.30
   0  -1  12  453.85   13.20
   0  -1  12  456.25   13.40
  -1   1 -12   30.20    2.20
   1  -1  12   31.30    2.20
   1  -1  12   34.30    1.80
  -2   1 -12  526.45   15.80
   2  -1  12  544.65   15.60
   2  -1  12  542.25   15.80
  -3   1 -12  181.78    6.10
   3  -1  12  176.68    6.10
   3  -1  12  186.48    5.80
  -4   1 -12   53.79    3.00
   4  -1  12   53.29    2.50
   4  -1  12   54.69    2.90
  -5   1 -12    3.10    1.00
  -6   1 -12   21.20    2.40
  -7   1 -12    5.30    1.20
  -8   1 -12    0.00    1.10
 -18   0  12    7.40    1.30
 -17   0  12   55.39    3.30
 -16   0  12    0.90    0.90
 -15   0  12   63.59    3.20
 -14   0  12    9.00    1.10
  13   0 -12   71.59    2.90
 -13   0  12   69.19    2.80
 -13   0  12   78.79    3.30
  12   0 -12   38.20    2.00
 -12   0  12   36.50    2.40
 -12   0  12   40.90    1.90
  11   0 -12  526.45   15.50
 -11   0  12  548.55   15.50
 -11   0  12  531.75   16.20
  10   0 -12  204.18    6.20
 -10   0  12  196.98    6.50
 -10   0  12  205.78    6.20
   9   0 -12   11.20    1.10
  -9   0  12    8.90    1.50
  -9   0  12   10.90    1.30
   8   0 -12  355.16   10.30
  -8   0  12  353.86   10.40
   7   0 -12  414.36   12.30
  -7   0  12  429.76   12.60
  -7   0  12  435.76   12.40
   6   0 -12    0.90    0.40
  -6   0  12    1.30    0.50
  -6   0  12    2.50    0.60
   5   0 -12  269.27    8.10
  -5   0  12  285.17    8.40
  -5   0  12  272.17    8.30
   4   0 -12  560.24   16.20
  -4   0  12  574.94   16.40
  -4   0  12  562.14   16.40
   3   0 -12  300.67    9.00
  -3   0  12  308.57    9.10
  -3   0  12  302.27    9.10
   2   0 -12   -0.10    0.50
  -2   0  12    0.60    0.50
  -2   0  12    0.10    0.60
   1   0 -12  255.57    7.80
  -1   0  12  252.67    7.70
  -1   0  12  259.07    7.90
   0   0 -12  958.30   27.50
   0   0  12  981.30   27.60
   0   0  12  952.40   27.50
  -1   0 -12  301.97    9.20
   1   0  12  301.97    9.30
   1   0  12  308.07    9.20
  -2   0 -12   64.19    3.00
   2   0  12   69.89    2.80
   2   0  12   68.79    3.10
  -3   0 -12   44.00    2.70
   3   0  12   46.20    2.40
   3   0  12   46.00    2.60
  -4   0 -12   52.39    3.10
   4   0  12   63.99    3.30
   4   0  12   60.49    2.80
  -5   0 -12   36.60    2.70
  -6   0 -12    6.40    1.20
  -7   0 -12   69.89    3.70
  -8   0 -12    1.90    1.20
 -18   1  12   30.00    3.10
 -17   1  12    1.30    1.10
 -16   1  12    3.20    1.00
 -15   1  12   -0.50    0.80
 -14   1  12  364.66   11.20
 -14   1  12  370.36   10.90
  13  -1 -12  232.68    7.30
 -13   1  12  232.48    7.20
 -13   1  12  245.98    7.60
  12  -1 -12  115.89    4.00
 -12   1  12  119.29    4.40
 -12   1  12  118.79    3.90
  11  -1 -12   22.00    1.50
 -11   1  12   19.10    2.00
 -11   1  12   22.80    1.50
  10  -1 -12  373.46   11.20
 -10   1  12  397.66   11.30
 -10   1  12  390.06   11.90
   9  -1 -12   77.29    2.60
  -9   1  12   72.29    3.00
  -9   1  12   75.79    2.80
   8  -1 -12  384.86   11.10
  -8   1  12  389.86   11.20
  -8   1  12  375.96   11.40
   7  -1 -12  163.38    5.00
  -7   1  12  162.28    5.10
  -7   1  12  164.38    5.30
   6  -1 -12    1.10    0.40
  -6   1  12    1.80    0.60
  -6   1  12    1.40    0.60
   5  -1 -12  191.18    5.80
  -5   1  12  195.08    6.10
  -5   1  12  192.08    6.00
   4  -1 -12  154.98    4.80
  -4   1  12  155.58    5.00
  -4   1  12  155.98    5.00
   3  -1 -12   14.70    1.40
  -3   1  12   16.70    1.50
  -3   1  12   16.20    1.60
   2  -1 -12   96.29    3.40
  -2   1  12   96.09    3.50
  -2   1  12   97.09    3.50
   1  -1 -12  493.45   14.40
  -1   1  12  506.95   14.60
  -1   1  12  489.55   14.50
   0  -1 -12 1245.38   35.60
   0   1  12 1236.28   35.70
   0   1  12 1281.17   35.70
  -1  -1 -12  564.14   16.60
   1   1  12  567.44   16.70
   1   1  12  575.94   16.60
  -2  -1 -12   14.00    2.00
   2   1  12   18.90    2.00
   2   1  12   16.20    1.90
  -3  -1 -12   15.20    2.20
   3   1  12   19.60    2.10
   3   1  12   13.00    2.00
  -4  -1 -12  136.39    5.00
   4   1  12  138.99    4.90
  -5  -1 -12    4.30    1.10
  -6  -1 -12    0.80    1.00
  -7  -1 -12   18.80    2.70
 -18   2  12  200.38    7.10
 -17   2  12    9.20    1.20
 -16   2  12   -0.10    0.80
 -15   2  12   17.10    1.60
 -15   2  12   13.70    2.10
 -14   2  12  319.27    9.50
 -14   2  12  315.57    9.90
  13  -2 -12    1.40    0.70
 -13   2  12    0.40    0.80
 -13   2  12    1.00    0.60
  12  -2 -12   15.70    1.40
 -12   2  12   16.70    1.40
  11  -2 -12  273.67    8.20
 -11   2  12  283.77    8.30
 -11   2  12  274.37    8.60
  10  -2 -12  473.65   14.20
 -10   2  12  511.85   14.30
   9  -2 -12  826.12   23.70
  -9   2  12  833.32   24.00
  -9   2  12  842.62   23.70
   8  -2 -12    2.20    0.40
  -8   2  12    1.90    0.60
  -8   2  12    2.50    0.60
   7  -2 -12   26.80    1.30
  -7   2  12   27.30    1.80
  -7   2  12   27.30    1.60
   6  -2 -12  405.26   12.00
  -6   2  12  424.76   12.10
  -6   2  12  417.26   12.30
   5  -2 -12  392.36   11.40
  -5   2  12  392.36   11.50
  -5   2  12  396.06   11.70
   4  -2 -12  138.69    4.40
  -4   2  12  144.49    4.70
  -4   2  12  139.49    4.60
   3  -2 -12  461.85   13.50
  -3   2  12  460.75   13.80
  -3   2  12  480.95   13.70
   2  -2 -12  853.61   24.80
  -2   2  12  861.81   25.00
  -2   2  12  890.71   24.90
   1  -2 -12  128.49    4.30
  -1   2  12  126.49    4.40
  -1   2  12  126.09    4.40
   0  -2 -12   68.49    3.00
   0   2  12   68.39    3.10
   0   2  12   73.09    3.10
  -1  -2 -12   54.39    2.70
   1   2  12   53.19    2.70
   1   2  12   54.79    2.80
  -2  -2 -12  247.28    7.80
   2   2  12  245.28    7.80
   2   2  12  247.48    7.80
  -3  -2 -12  346.87   10.40
   3   2  12  326.57   10.40
   3   2  12  341.47   10.40
  -4  -2 -12   33.60    2.70
   4   2  12   35.80    2.70
  -5  -2 -12    4.10    1.10
  -6  -2 -12   54.79    3.30
  -7  -2 -12    9.40    1.40
 -18   3  12   43.00    3.50
 -17   3  12    6.40    1.20
 -16   3  12    5.70    1.00
 -15   3  12   26.30    2.50
 -15   3  12   25.40    1.80
 -14   3  12   62.29    2.50
 -14   3  12   59.89    3.10
  13  -3 -12   48.50    2.30
 -13   3  12   50.69    2.20
 -13   3  12   51.79    2.80
  12  -3 -12  429.66   12.50
 -12   3  12  430.36   12.40
 -12   3  12  423.46   12.90
  11  -3 -12    1.60    0.50
 -11   3  12    0.40    0.50
 -11   3  12    1.70    0.80
  10  -3 -12   14.50    1.20
 -10   3  12   13.30    1.40
 -10   3  12   11.10    1.90
   9  -3 -12   83.59    2.80
  -9   3  12   83.89    3.00
   8  -3 -12    0.00    0.40
  -8   3  12    0.40    0.50
  -8   3  12    1.10    0.70
   7  -3 -12    6.40    0.90
  -7   3  12    5.80    0.70
  -7   3  12    9.60    1.50
   6  -3 -12   11.40    1.10
  -6   3  12   12.20    1.50
  -6   3  12   10.50    1.40
   5  -3 -12  136.59    4.30
  -5   3  12  138.69    4.70
  -5   3  12  138.29    4.50
   4  -3 -12  236.18    7.00
  -4   3  12  236.58    7.50
  -4   3  12  237.38    7.20
   3  -3 -12    2.20    0.60
  -3   3  12    3.60    0.70
  -3   3  12    2.40    0.80
   2  -3 -12  451.65   13.50
  -2   3  12  473.45   13.90
  -2   3  12  470.75   13.70
   1  -3 -12    2.00    0.70
  -1   3  12    3.30    0.80
  -1   3  12    1.70    0.80
   0  -3 -12  124.79    4.40
   0   3  12  124.29    4.50
   0   3  12  127.59    4.60
  -1  -3 -12  131.89    4.70
   1   3  12  136.69    4.80
   1   3  12  133.79    4.90
  -2  -3 -12    7.80    1.10
   2   3  12    7.30    1.20
   2   3  12   12.70    2.00
  -3  -3 -12  229.28    7.30
   3   3  12  229.08    7.50
   3   3  12  214.88    7.30
  -4  -3 -12  214.98    7.10
   4   3  12  209.68    7.20
  -5  -3 -12    0.70    1.00
   5   3  12   -0.80    1.10
  -6  -3 -12   55.99    3.50
 -18   4  12    2.50    1.30
 -17   4  12   49.70    3.60
 -16   4  12    0.40    0.90
 -16   4  12    0.10    0.90
 -15   4  12    7.50    1.10
 -15   4  12   10.20    1.50
 -14   4  12   -0.40    0.60
 -14   4  12   -0.90    0.80
 -13   4  12   89.29    3.20
 -13   4  12   86.39    3.80
  12  -4 -12  990.20   28.60
 -12   4  12 1018.60   28.60
 -12   4  12 1010.80   29.00
  11  -4 -12   48.90    2.00
 -11   4  12   46.20    2.10
 -11   4  12   49.10    2.60
  10  -4 -12  192.78    5.80
 -10   4  12  198.88    5.90
 -10   4  12  189.48    6.40
   9  -4 -12    4.50    0.60
  -9   4  12    4.00    0.70
   8  -4 -12  274.37    7.80
  -8   4  12  281.57    8.00
  -8   4  12  246.18    8.70
   7  -4 -12   51.29    1.90
  -7   4  12   50.99    2.20
   6  -4 -12   46.80    1.80
  -6   4  12   46.80    2.40
  -6   4  12   45.70    2.20
   5  -4 -12  241.88    7.20
  -5   4  12  243.48    7.40
  -5   4  12  246.88    7.70
   4  -4 -12  802.62   23.30
  -4   4  12  820.02   23.40
  -4   4  12  839.22   23.80
   3  -4 -12  668.23   19.30
  -3   4  12  673.93   19.80
  -3   4  12  679.43   19.40
   2  -4 -12  121.99    4.20
  -2   4  12  128.19    4.70
  -2   4  12  127.89    4.40
   1  -4 -12   40.70    2.30
  -1   4  12   41.00    2.40
  -1   4  12   47.00    2.70
   0  -4 -12  155.58    5.10
   0   4  12  153.08    5.20
   0   4  12  152.18    5.50
  -1  -4 -12   50.69    2.70
   1   4  12   47.80    2.70
   1   4  12   43.00    3.00
  -2  -4 -12   45.40    2.60
   2   4  12   39.80    3.00
   2   4  12   40.70    2.70
  -3  -4 -12   20.70    2.40
   3   4  12   26.50    2.90
  -4  -4 -12  110.19    4.40
   4   4  12  108.39    4.70
  -6  -4 -12    0.60    1.20
 -18   5  12  129.39    5.60
 -17   5  12    0.30    1.20
 -16   5  12    0.10    0.70
 -16   5  12   -0.20    1.10
 -15   5  12    0.00    0.90
 -15   5  12    0.30    0.70
 -14   5  12   81.29    3.00
 -14   5  12   79.79    3.80
 -13   5  12   50.59    2.20
 -13   5  12   52.89    3.10
  12  -5 -12    0.60    0.50
 -12   5  12    0.90    0.60
 -12   5  12    1.30    0.80
  11  -5 -12   13.00    1.30
 -11   5  12    9.50    1.40
 -11   5  12   12.20    2.00
  10  -5 -12    3.00    0.50
 -10   5  12    1.90    0.90
 -10   5  12    2.70    0.60
   9  -5 -12   67.89    2.40
  -9   5  12   70.69    3.30
  -9   5  12   69.69    2.70
   8  -5 -12   42.10    1.60
  -8   5  12   42.90    2.50
  -8   5  12   35.10    3.00
   7  -5 -12    0.70    0.40
  -7   5  12    1.10    0.70
  -7   5  12    1.70    0.70
   6  -5 -12   16.70    1.10
  -6   5  12   17.40    1.90
  -6   5  12   16.90    2.00
   5  -5 -12  184.08    5.50
   4  -5 -12   30.10    1.60
  -4   5  12   30.90    2.00
  -4   5  12   33.30    3.60
   3  -5 -12   27.90    1.70
  -3   5  12   27.30    2.00
  -3   5  12   27.20    2.40
   2  -5 -12   -0.30    0.60
  -2   5  12    0.50    0.70
  -2   5  12    0.40    0.80
   1  -5 -12  603.44   17.10
  -1   5  12  578.64   17.60
  -1   5  12  589.84   17.20
   0  -5 -12  105.59    3.90
   0   5  12  106.29    3.90
   0   5  12  100.29    4.40
  -1  -5 -12    0.80    0.90
   1   5  12    1.60    0.90
   1   5  12   -0.10    1.00
  -2  -5 -12    7.70    1.10
   2   5  12    8.20    1.40
   3   5  12   -1.00    1.20
  -4  -5 -12   50.09    3.10
   4   5  12   46.80    3.80
  -5  -5 -12    6.60    1.30
 -18   6  12   83.09    4.80
 -17   6  12   31.60    3.40
 -16   6  12   -0.70    0.70
 -16   6  12   -0.50    1.00
 -15   6  12   32.00    2.80
 -15   6  12   28.50    2.00
 -14   6  12  120.69    4.90
 -14   6  12  124.79    4.10
 -13   6  12   29.90    2.60
 -13   6  12   28.10    1.90
 -12   6  12    2.10    0.60
 -12   6  12    3.20    1.10
  11  -6 -12   53.39    2.10
 -11   6  12   52.69    2.20
 -11   6  12   47.80    3.00
  10  -6 -12  560.34   15.90
 -10   6  12  532.25   16.60
 -10   6  12  576.84   16.00
   9  -6 -12  406.56   11.60
  -9   6  12  375.06   12.00
  -9   6  12  430.06   12.50
   8  -6 -12    1.10    0.40
  -8   6  12    0.00    0.60
   7  -6 -12  264.47    7.70
  -7   6  12  268.17    8.60
  -7   6  12  266.17    8.00
   6  -6 -12  119.79    3.70
  -6   6  12  119.79    4.60
  -6   6  12  119.99    4.00
   5  -6 -12   44.00    1.80
  -5   6  12   47.80    2.30
  -5   6  12   47.40    2.90
   4  -6 -12   41.90    1.80
  -4   6  12   44.10    2.70
  -4   6  12   42.50    2.70
   3  -6 -12  385.76   11.00
  -3   6  12  370.56   11.70
  -3   6  12  375.16   11.10
   2  -6 -12  375.56   10.80
  -2   6  12  359.36   11.50
  -2   6  12  364.26   10.90
   1  -6 -12    6.30    0.90
  -1   6  12    6.40    0.90
  -1   6  12    6.10    1.20
   0  -6 -12    3.10    0.90
   0   6  12    3.60    0.90
   0   6  12    2.30    1.20
  -1  -6 -12    7.40    1.10
   1   6  12    6.80    1.60
  -2  -6 -12  155.38    5.40
   2   6  12  148.09    7.80
  -3  -6 -12   11.00    1.30
   3   6  12    9.10    2.00
  -4  -6 -12    4.10    1.30
   4   6  12    4.90    1.70
 -18   7  12   -0.90    1.40
 -17   7  12   -0.50    1.20
 -17   7  12   -1.00    0.90
 -16   7  12    8.20    1.40
 -16   7  12    7.60    1.00
 -15   7  12    4.30    0.80
 -15   7  12    4.20    1.20
 -14   7  12    0.80    1.10
 -14   7  12    0.40    0.70
 -13   7  12   72.59    2.80
 -13   7  12   69.89    3.70
 -12   7  12  555.64   16.90
 -12   7  12  561.34   16.00
 -11   7  12   20.10    1.60
 -11   7  12   22.00    2.50
  10  -7 -12   36.50    1.70
 -10   7  12   38.70    2.80
 -10   7  12   37.00    2.00
   9  -7 -12    3.70    0.50
  -9   7  12    2.80    0.70
  -9   7  12    5.90    1.10
   8  -7 -12   41.50    1.70
  -8   7  12   44.40    2.10
  -8   7  12   44.20    2.80
   7  -7 -12    0.90    0.70
   7  -7 -12    1.10    0.40
  -7   7  12    1.10    0.70
  -7   7  12    0.60    0.80
   6  -7 -12    6.40    0.90
  -6   7  12    7.20    1.20
  -6   7  12   10.20    1.60
   5  -7 -12    4.00    0.70
   5  -7 -12    6.00    1.00
  -5   7  12    5.00    1.00
  -5   7  12    4.30    0.70
   4  -7 -12   69.69    2.40
   4  -7 -12   66.99    3.00
  -4   7  12   66.59    2.80
  -4   7  12   67.39    3.50
   3  -7 -12    0.50    0.70
   3  -7 -12   -0.20    0.60
  -3   7  12    0.00    0.90
  -3   7  12    0.20    0.70
   2  -7 -12   35.60    2.30
   2  -7 -12   35.10    2.00
  -2   7  12   38.80    2.30
  -2   7  12   36.10    3.00
   1  -7 -12   52.89    2.80
   1  -7 -12   57.49    2.60
  -1   7  12   53.09    3.50
   0  -7 -12   -0.60    0.80
   0  -7 -12    0.40    0.80
   0   7  12   -1.40    1.20
  -1  -7 -12   62.39    3.20
   1   7  12   68.79    4.10
  -2  -7 -12   -0.40    1.00
   2   7  12    1.60    1.50
  -3  -7 -12   -1.70    1.20
   3   7  12   -1.00    1.60
 -17   8  12   66.69    3.80
 -17   8  12   73.29    4.60
 -16   8  12   81.99    3.30
 -16   8  12   80.59    4.50
 -15   8  12    3.00    0.80
 -15   8  12    1.60    1.30
 -14   8  12   52.29    3.50
 -14   8  12   50.49    2.40
 -13   8  12   10.20    1.70
 -13   8  12    7.00    1.30
 -12   8  12   88.39    4.30
 -12   8  12   90.79    3.20
 -11   8  12   47.70    3.20
 -11   8  12   48.40    2.20
 -10   8  12   36.40    2.00
   9  -8 -12   79.99    2.50
  -9   8  12   66.69    2.80
  -9   8  12   79.09    3.80
   8  -8 -12   47.00    1.70
  -8   8  12   45.90    3.00
  -8   8  12   42.50    2.20
   7  -8 -12   59.29    2.00
  -7   8  12   59.99    3.30
  -7   8  12   55.89    2.40
   6  -8 -12   16.00    2.00
   6  -8 -12   18.50    1.00
  -6   8  12   16.00    1.70
  -6   8  12   19.30    2.50
   5  -8 -12  133.89    5.00
   5  -8 -12  151.68    4.40
  -5   8  12  150.68    5.70
  -5   8  12  141.69    4.60
   4  -8 -12   73.49    3.30
   4  -8 -12   79.69    2.70
  -4   8  12   79.19    4.00
  -4   8  12   76.89    2.90
   3  -8 -12   73.59    2.60
   3  -8 -12   65.59    3.20
  -3   8  12   77.09    3.90
   2  -8 -12    4.20    0.90
   2  -8 -12    5.60    0.80
  -2   8  12    5.20    1.30
   1  -8 -12    3.20    0.90
   1  -8 -12    3.80    0.80
  -1   8  12    2.80    1.30
   0  -8 -12  297.27    9.90
   0  -8 -12  345.87    9.70
   0   8  12  317.87   10.70
  -1  -8 -12   19.80    2.50
  -1  -8 -12   18.80    2.60
   1   8  12   20.60    3.50
  -2  -8 -12    3.10    1.20
  -2  -8 -12    4.60    1.20
   2   8  12    2.80    1.70
   3   8  12   28.80    4.50
 -17   9  12   22.80    3.80
 -16   9  12   36.30    3.70
 -15   9  12   67.39    3.80
 -15   9  12   57.59    4.00
 -14   9  12  147.39    4.90
 -14   9  12  150.48    6.00
 -13   9  12   -1.70    1.20
 -13   9  12    0.20    0.70
 -12   9  12    5.00    0.80
 -12   9  12    5.30    1.10
 -11   9  12   27.40    2.80
 -11   9  12   26.70    1.80
 -10   9  12  186.98    6.70
 -10   9  12  177.88    5.60
  -9   9  12    4.20    1.10
  -8   9  12    0.40    0.90
  -7   9  12    0.20    1.00
  -6   9  12   69.99    3.90
   5  -9 -12    0.10    0.40
  -5   9  12    0.70    0.60
  -5   9  12   -0.80    0.90
   4  -9 -12    7.00    1.10
  -4   9  12    5.70    1.40
   3  -9 -12   21.80    1.50
  -3   9  12   21.20    3.00
   2  -9 -12  285.97    8.20
  -2   9  12  264.97    9.50
   1  -9 -12    0.30    0.80
  -1   9  12    1.50    1.40
   0  -9 -12    1.40    1.00
   0   9  12    2.10    1.50
  -1  -9 -12   43.30    3.00
   1   9  12   37.80    4.40
 -16  10  12    0.00    1.40
 -15  10  12   77.89    4.50
 -14  10  12  113.19    5.20
 -13  10  12   96.69    4.70
 -12  10  12    6.80    1.40
 -11  10  12    1.50    1.20
 -10  10  12  230.08    8.20
  -9  10  12    4.10    1.10
  -8  10  12    2.70    1.10
  -7  10  12   81.79    4.30
  -6  10  12   36.50    3.20
  -5  10  12    2.50    1.30
  -4  10  12  262.77    9.30
  -3  10  12  100.99    5.10
   2 -10 -12  121.39    3.90
  -2  10  12  104.99    5.60
   1 -10 -12  127.19    4.90
  -1  10  12  117.29    5.90
   0  10  12  103.49    5.80
 -15  11  12    2.10    1.40
 -14  11  12   -1.60    1.10
 -13  11  12  113.99    5.30
 -12  11  12   33.30    3.20
 -11  11  12  172.78    6.70
 -10  11  12    1.40    1.20
  -9  11  12  273.97    9.50
  -8  11  12    8.90    1.40
  -7  11  12   -0.50    1.00
  -6  11  12    5.10    1.50
  -5  11  12    7.00    1.60
  -4  11  12  255.87    9.30
  -3  11  12    1.40    1.50
  -2  11  12   22.50    3.90
  -1  11  12   -1.00    1.80
 -14  12  12    4.40    1.60
 -13  12  12    0.80    1.20
 -12  12  12    1.70    1.10
 -11  12  12   32.30    3.30
 -10  12  12    0.00    1.10
  -9  12  12  214.18    8.00
  -8  12  12   14.70    2.90
  -7  12  12   -1.40    1.10
  -6  12  12    0.80    1.40
  -5  12  12   -0.10    1.40
  -4  12  12  124.29    6.00
  -3  12  12    4.20    1.80
 -12  13  12   26.40    4.90
 -11  13  12   63.89    4.20
 -10  13  12   33.90    3.50
  -9  13  12    5.70    1.30
  -8  13  12   53.59    4.00
  -7  13  12  104.39    5.40
  -6  13  12   64.39    4.70
  -5  13  12    1.10    1.60
   2  17 -13   60.69    2.80
   1  17 -13  108.09    4.10
   0  17 -13    0.90    0.80
   6  16 -13  147.79    5.10
   5  16 -13   17.70    1.90
   4  16 -13   17.00    1.80
   3  16 -13    1.70    0.70
   2  16 -13   17.10    1.80
   1  16 -13   29.30    2.10
   0  16 -13    4.30    0.90
  -1  16 -13  180.08    6.00
  -2  16 -13   92.49    3.80
   8  15 -13  219.98    7.10
   7  15 -13    2.60    0.80
   6  15 -13   -0.10    0.70
   5  15 -13   50.29    2.40
   4  15 -13   -0.80    0.60
   3  15 -13   68.69    2.90
   2  15 -13  283.57    8.70
   1  15 -13  684.23   19.90
   0  15 -13  180.38    5.90
  -1  15 -13    0.30    0.80
  -2  15 -13   18.90    2.10
  -3  15 -13   97.69    4.10
  -4  15 -13    2.70    1.00
  -5  15 -13   42.20    3.00
   9  14 -13  186.28    6.20
   8  14 -13  153.88    5.20
   7  14 -13   23.30    1.90
   6  14 -13   46.40    2.30
   5  14 -13  191.48    6.10
   4  14 -13   47.10    2.30
   3  14 -13  145.49    4.90
   2  14 -13   45.00    2.30
   1  14 -13  653.93   19.00
   0  14 -13  288.07    8.90
  -1  14 -13   78.29    3.40
  -2  14 -13   48.20    2.70
  -3  14 -13  188.08    6.40
  -4  14 -13    1.40    0.90
  -5  14 -13    1.00    1.00
   5 -14  13    1.30    2.40
  -6  14 -13  150.78    5.70
  10  13 -13  176.58    6.00
   9  13 -13   20.30    1.90
   8  13 -13    7.70    0.90
   7  13 -13  202.48    6.50
   6  13 -13   45.20    2.20
   5  13 -13   48.50    2.30
   4  13 -13   54.39    2.40
   3  13 -13  343.97   10.30
   2  13 -13   55.29    2.50
   1  13 -13   31.80    2.00
   0  13 -13    7.50    0.90
  -1  13 -13  248.28    7.80
  -2  13 -13   31.50    2.30
   2 -13  13   29.40    3.90
  -3  13 -13   87.19    3.70
   3 -13  13   86.19    5.30
  -4  13 -13   -1.00    0.80
   4 -13  13   -0.30    1.80
  -5  13 -13  290.97    9.40
   5 -13  13  296.67   10.50
  -6  13 -13   22.60    2.70
  12  12 -13   17.60    2.10
  11  12 -13  162.38    5.60
  10  12 -13    3.50    0.80
   9  12 -13   13.20    1.60
   8  12 -13    6.40    0.80
   7  12 -13    2.90    0.70
   6  12 -13    1.10    0.50
   5  12 -13   38.50    2.00
   4  12 -13    1.20    0.60
   3  12 -13   45.20    2.20
   2  12 -13  102.09    3.70
   1  12 -13   47.20    2.40
  -1 -12  13   46.20    3.50
   0  12 -13   -0.40    0.60
   0 -12  13   -1.30    1.20
  -1  12 -13  259.77    8.00
   1 -12  13  249.68    9.10
  -2  12 -13   25.60    2.20
   2 -12  13   32.10    3.70
  -3  12 -13    2.90    0.90
   3 -12  13    1.20    1.60
  -4  12 -13    1.60    0.90
   4 -12  13    1.60    1.70
  -5  12 -13  229.48    7.60
   5 -12  13  228.78    8.60
  -6  12 -13   30.20    2.80
  -7  12 -13   31.40    3.10
  13  11 -13   81.89    3.90
  12  11 -13   62.59    3.00
  11  11 -13   16.00    1.80
  10  11 -13  165.48    5.50
   9  11 -13  254.17    7.90
   8  11 -13   28.90    1.80
   7  11 -13   51.79    2.30
   6  11 -13   41.70    2.00
   5  11 -13    7.60    1.30
  -5 -11  13    9.30    1.60
  -4 -11  13    4.00    0.70
   3  11 -13   91.59    3.30
  -3 -11  13   88.09    3.50
   2  11 -13  269.47    8.20
  -2 -11  13  268.87    8.40
   1  11 -13  592.64   17.10
  -1 -11  13  582.34   17.20
   0  11 -13   45.80    2.40
   0 -11  13   48.00    2.90
   0 -11  13   49.10    3.60
  -1  11 -13   -1.00    0.70
   1 -11  13    1.20    1.20
  -2  11 -13  149.49    5.30
   2 -11  13  160.28    6.40
  -3  11 -13    2.60    0.80
   3 -11  13    3.10    1.50
  -4  11 -13    0.40    0.90
   4 -11  13   -0.10    1.50
  -5  11 -13   43.90    2.90
   5 -11  13   48.30    4.20
  -6  11 -13  103.59    4.40
  -7  11 -13  306.27    9.90
  13  10 -13   42.60    2.60
  12  10 -13    2.00    0.70
  11  10 -13   41.50    2.30
  10  10 -13   24.20    1.80
   9  10 -13    3.80    0.70
   8  10 -13  160.08    5.20
   7  10 -13    2.50    0.60
   6  10 -13  108.79    3.70
  -6 -10  13  103.89    3.80
   5  10 -13  105.69    3.70
  -5 -10  13  105.99    3.90
   4  10 -13   14.30    1.40
  -4 -10  13   11.50    1.60
   3  10 -13  386.86   11.40
  -3 -10  13  384.66   11.60
   2  10 -13    0.10    0.60
  -2 -10  13    0.00    0.60
   1  10 -13   14.30    1.60
  -1 -10  13   16.40    1.80
   0  10 -13    0.10    0.70
   0 -10  13   -0.50    0.70
  -1  10 -13   28.50    2.10
   1 -10  13   31.80    2.70
  -2  10 -13   27.10    2.20
   2 -10  13   32.40    3.30
  -3  10 -13  186.78    6.30
   3 -10  13  191.98    7.10
  -4  10 -13   -0.90    0.80
   4 -10  13    1.30    1.40
  -5  10 -13    6.00    1.10
   5 -10  13    5.00    1.50
  -6  10 -13   32.00    2.80
  -7  10 -13  219.88    7.50
  -8  10 -13    2.00    1.60
  14   9 -13   84.19    3.60
  13   9 -13   57.99    2.90
  12   9 -13   98.39    3.80
  11   9 -13    8.70    1.50
  10   9 -13  145.09    4.90
   9   9 -13  111.69    3.90
   8   9 -13    1.30    0.50
   7   9 -13  309.17    9.20
  -7  -9  13  302.87    9.30
   6   9 -13   15.00    1.40
  -6  -9  13   15.90    1.60
   5   9 -13   -0.30    0.50
  -5  -9  13    0.40    0.60
   4   9 -13    7.10    1.30
  -4  -9  13    9.20    1.50
   3   9 -13  343.07   10.30
  -3  -9  13  352.66   10.50
   2   9 -13    0.70    0.60
  -2  -9  13    0.70    0.60
   1   9 -13  176.98    5.80
  -1  -9  13  181.28    5.90
   0   9 -13    1.00    0.70
   0  -9  13    1.40    0.70
  -1   9 -13  179.88    5.90
   1  -9  13  177.18    6.00
  -2   9 -13  211.78    6.90
  -3   9 -13   -0.50    0.80
   3  -9  13   -1.40    1.20
  -4   9 -13   28.60    2.40
   4  -9  13   28.60    3.30
  -5   9 -13   15.70    2.30
   5  -9  13   10.40    1.60
  -6   9 -13    1.40    1.00
  -8   9 -13   53.99    3.60
  14   8 -13  201.58    6.70
  13   8 -13    6.60    0.90
  12   8 -13   11.90    1.60
  11   8 -13   75.49    3.10
  10   8 -13   52.99    2.40
   9   8 -13  359.96   10.70
   8   8 -13   53.59    2.30
  -8  -8  13   48.50    2.30
   7   8 -13   98.69    3.50
  -7  -8  13  100.69    3.60
   6   8 -13  140.99    4.60
  -6  -8  13  145.09    4.80
   5   8 -13    0.50    0.50
  -5  -8  13    1.30    0.60
   4   8 -13  134.39    4.50
  -4  -8  13  140.59    4.70
   3   8 -13    4.50    0.60
  -3  -8  13    3.80    0.70
   2   8 -13  136.69    4.60
  -2  -8  13  138.39    4.70
   1   8 -13    1.50    0.60
  -1  -8  13    2.10    0.70
   0   8 -13  348.47   10.50
   0  -8  13  350.06   10.60
  -1   8 -13   24.60    2.00
   1  -8  13   26.00    2.10
  -2   8 -13   50.19    2.70
   2  -8  13   54.69    2.90
  -3   8 -13   34.80    2.40
  -4   8 -13  203.28    6.80
   4  -8  13  209.08    7.20
  -5   8 -13    7.70    1.20
   5  -8  13    9.50    1.50
  -7   8 -13  101.99    4.50
  -8   8 -13   17.40    2.70
  14   7 -13  231.18    7.50
  13   7 -13  206.98    6.70
  12   7 -13   34.00    2.10
  11   7 -13   53.39    2.40
  10   7 -13   35.80    1.90
   9   7 -13    1.30    0.50
  -9  -7  13    0.40    0.60
   8   7 -13   42.90    2.00
  -8  -7  13   41.20    2.10
   7   7 -13    3.60    0.60
  -7  -7  13    3.50    0.70
   6   7 -13  423.56   12.50
  -6  -7  13  435.36   12.70
   5   7 -13  654.53   19.30
  -5  -7  13  688.83   19.50
   4   7 -13  128.69    4.30
  -4  -7  13  133.29    4.50
  -3  -7  13  241.08    7.50
   2   7 -13  124.99    4.30
  -2  -7  13  128.29    4.50
   1   7 -13  652.23   19.40
  -1  -7  13  691.93   19.60
   0   7 -13  567.74   16.70
   0  -7  13  579.64   16.90
  -1   7 -13  302.27    9.30
   1  -7  13  307.27    9.40
  -2   7 -13  133.09    4.70
   2  -7  13  128.89    4.70
  -3   7 -13    1.60    0.80
  -4   7 -13   25.60    2.30
  -5   7 -13   69.59    3.40
   5  -7  13   73.09    3.80
  -6   7 -13  169.48    6.10
  -8   7 -13  162.68    6.10
  14   6 -13   12.10    1.80
  13   6 -13   -0.50    0.60
  12   6 -13    2.20    0.60
  11   6 -13   45.20    2.20
  10   6 -13  174.08    5.60
   9   6 -13   59.99    2.40
  -9  -6  13   59.79    2.60
   8   6 -13  943.91   27.00
  -8  -6  13  952.40   27.10
   7   6 -13  519.95   15.30
  -7  -6  13  542.65   15.50
   6   6 -13   94.39    3.40
  -6  -6  13  100.29    3.60
  -5  -6  13  693.23   20.00
  -4  -6  13   58.89    2.60
  -3  -6  13   56.69    2.60
   2   6 -13  123.39    4.30
  -2  -6  13  131.09    4.50
   1   6 -13   57.69    2.60
  -1  -6  13   57.79    2.70
   0   6 -13  374.36   11.30
   0  -6  13  383.26   11.40
  -1   6 -13    5.00    0.90
   1  -6  13    4.40    0.80
  -2   6 -13   16.30    2.00
   2  -6  13   16.90    2.00
  -3   6 -13   68.69    3.20
  -4   6 -13    2.30    0.90
  -5   6 -13   37.50    2.70
   5  -6  13   36.50    2.00
  -6   6 -13   15.20    2.40
  -7   6 -13    6.80    1.20
  -8   6 -13    4.50    1.30
  14   5 -13   32.70    2.10
  13   5 -13    9.90    1.60
  12   5 -13  386.26   11.50
  11   5 -13   22.90    1.60
 -11  -5  13   23.20    1.70
  10   5 -13  281.27    8.40
 -10  -5  13  272.37    8.40
   9   5 -13   30.70    1.70
  -9  -5  13   26.90    1.80
   8   5 -13  555.44   16.50
  -8  -5  13  590.24   16.60
   7   5 -13  702.83   21.60
  -7  -5  13  772.32   21.20
   6   5 -13   35.70    1.80
  -6  -5  13   35.20    1.90
   5   5 -13   -0.10    0.50
  -5  -5  13    0.60    0.60
   4   5 -13  556.54   16.40
  -4  -5  13  578.54   16.50
   3   5 -13   98.29    3.50
  -3  -5  13  101.29    3.70
   2   5 -13   54.19    3.10
  -2  -5  13   57.79    2.60
   1   5 -13  279.17    8.60
  -1  -5  13  286.77    8.70
   0   5 -13 1176.18   34.10
   0  -5  13 1215.98   34.20
  -1   5 -13  147.29    5.00
   1  -5  13  147.09    5.10
  -2   5 -13   -0.50    0.70
   2  -5  13   -0.90    0.70
  -3   5 -13  147.09    5.20
  -4   5 -13   98.09    4.00
   4  -5  13   99.09    3.40
  -5   5 -13  157.78    5.70
  -6   5 -13  101.29    4.30
  -7   5 -13   21.60    2.60
  -8   5 -13   13.50    1.50
  14   4 -13  212.58    6.80
  13   4 -13   33.00    2.00
  12   4 -13   11.00    1.50
  11   4 -13  118.69    4.10
 -11  -4  13  120.29    4.10
  10   4 -13  109.29    3.70
 -10  -4  13  107.19    3.70
   9   4 -13   90.29    3.20
  -9  -4  13   92.79    3.30
  -8  -4  13   28.90    1.70
   7   4 -13  172.08    5.40
  -7  -4  13  177.28    5.60
   6   4 -13  501.25   14.70
  -6  -4  13  515.35   14.80
   5   4 -13  199.18    6.10
  -5  -4  13  202.28    6.30
   4   4 -13   41.30    2.00
  -4  -4  13   42.50    2.10
   3   4 -13  348.97   10.40
  -3  -4  13  354.56   10.60
   2   4 -13   36.30    2.00
  -2  -4  13   40.60    2.20
  -1  -4  13   14.00    1.80
   0   4 -13   52.09    2.50
   0  -4  13   55.19    2.60
  -1   4 -13    1.60    0.80
   1  -4  13    2.10    0.80
  -2   4 -13  366.76   11.10
   2  -4  13  364.26   11.20
   2  -4  13  370.76   10.80
  -3   4 -13   74.89    3.40
   3  -4  13   77.29    2.90
  -4   4 -13   14.00    2.20
   4  -4  13   13.70    1.50
  -5   4 -13  194.68    6.60
  -6   4 -13   45.30    3.00
  -7   4 -13  120.19    4.90
  -8   4 -13   -1.70    1.10
  14   3 -13   19.50    1.80
  13   3 -13    1.10    0.60
  12   3 -13   57.49    2.50
 -12  -3  13   52.79    2.40
  11   3 -13  238.68    7.30
 -11  -3  13  237.48    7.30
  10   3 -13  343.67   10.30
 -10  -3  13  354.16   10.40
  -9  -3  13    2.30    0.60
   8   3 -13    1.20    0.50
  -8  -3  13    1.50    0.60
   7   3 -13   21.30    1.40
  -7  -3  13   24.00    1.60
   6   3 -13  236.58    7.10
  -6  -3  13  233.38    7.20
   5   3 -13  963.80   28.00
  -5  -3  13 1010.50   28.20
   4   3 -13   80.09    3.00
  -4  -3  13   83.39    3.10
   3   3 -13   37.90    2.00
  -3  -3  13   42.60    2.20
   2   3 -13    2.40    0.60
  -2  -3  13    2.60    0.70
   1   3 -13  116.29    4.20
  -1  -3  13  122.79    4.30
   0   3 -13    0.50    0.70
   0  -3  13   -0.10    0.70
  -1   3 -13  108.69    4.00
   1  -3  13  110.69    3.70
   1  -3  13  103.49    4.10
  -2   3 -13  899.01   26.10
   2  -3  13  906.61   26.20
   2  -3  13  914.01   25.80
  -3   3 -13  429.96   13.30
   3  -3  13  436.46   13.00
   3  -3  13  470.25   14.50
  -4   3 -13    5.60    1.00
   4  -3  13    8.50    1.60
  -5   3 -13    4.40    1.00
  -6   3 -13   39.00    2.90
  -7   3 -13  136.79    5.30
  -8   3 -13    2.40    1.50
 -18  -2  13    2.70    1.20
 -17  -2  13    5.00    1.20
  14   2 -13    3.80    0.70
  13   2 -13  258.67    8.00
 -13  -2  13  264.47    8.20
  12   2 -13   17.50    1.50
 -12  -2  13   17.90    1.60
  11   2 -13    1.70    0.50
 -11  -2  13    2.20    0.60
  10   2 -13  177.08    5.80
 -10  -2  13  182.68    5.70
   9   2 -13  142.59    4.60
  -9  -2  13  146.39    4.70
   8   2 -13  732.53   21.10
  -8  -2  13  748.83   21.30
   7   2 -13  616.84   17.80
  -7  -2  13  627.24   18.00
   6   2 -13   38.60    1.80
  -6  -2  13   40.70    2.00
   5   2 -13   -0.50    0.50
  -5  -2  13   -0.80    0.60
   4   2 -13    0.60    0.50
  -4  -2  13    0.60    0.60
   3   2 -13    4.90    0.60
  -3  -2  13    5.40    0.80
   2   2 -13  137.99    4.50
  -2  -2  13  134.59    4.50
  -2  -2  13  137.99    4.70
   1   2 -13  207.68    6.60
  -1  -2  13  209.88    6.70
  -1  -2  13  209.08    6.50
   0   2 -13 1219.58   36.40
   0  -2  13 1288.67   36.20
   0  -2  13 1321.37   36.40
  -1   2 -13  318.67    9.90
   1  -2  13  329.97    9.70
   1  -2  13  324.47   10.00
  -2   2 -13   17.30    2.10
   2  -2  13   19.90    1.70
   2  -2  13   16.50    2.00
  -3   2 -13  126.49    4.80
   3  -2  13  138.49    5.80
   3  -2  13  124.99    4.40
  -4   2 -13   36.30    2.60
   4  -2  13   37.40    2.30
  -5   2 -13   81.29    3.70
  -6   2 -13   16.70    2.50
  -7   2 -13   -0.50    1.10
 -18  -1  13   37.10    3.30
 -17  -1  13  130.79    5.20
 -16  -1  13   33.70    2.80
 -15  -1  13   39.00    2.70
  14   1 -13   -0.10    0.60
  13   1 -13  151.78    4.90
 -13  -1  13  146.89    4.90
  12   1 -13  402.96   12.00
 -12  -1  13  408.46   11.90
  11   1 -13  226.08    7.00
 -11  -1  13  232.88    7.00
  10   1 -13  490.05   14.20
 -10  -1  13  491.45   14.30
   9   1 -13   46.10    2.00
  -9  -1  13   40.70    2.00
   8   1 -13  109.39    3.60
  -8  -1  13  107.89    3.70
   7   1 -13  342.17    9.90
  -7  -1  13  332.57   10.00
   6   1 -13   67.79    2.50
  -6  -1  13   71.09    2.70
   5   1 -13    7.90    1.20
  -5  -1  13    9.00    1.40
  -5  -1  13    5.90    0.70
   4   1 -13  521.25   15.20
  -4  -1  13  524.85   15.30
  -4  -1  13  532.95   15.30
   3   1 -13  135.19    4.50
  -3  -1  13  139.49    4.70
  -3  -1  13  139.49    4.60
   2   1 -13  498.65   14.40
  -2  -1  13  493.15   14.50
  -2  -1  13  489.05   14.40
   1   1 -13  121.69    4.30
  -1  -1  13  121.09    4.40
  -1  -1  13  126.89    4.20
   0   1 -13  631.24   20.80
   0  -1  13  722.63   20.10
   0  -1  13  738.23   20.30
  -1   1 -13   27.00    2.20
   1  -1  13   30.30    2.20
   1  -1  13   27.40    1.90
  -2   1 -13   82.09    3.50
   2  -1  13   87.79    3.30
   2  -1  13   80.59    3.50
  -3   1 -13  186.68    6.50
   3  -1  13  195.48    6.30
   3  -1  13  210.68    7.70
  -4   1 -13  481.95   14.40
   4  -1  13  476.65   14.10
  -5   1 -13   -1.50    0.90
  -6   1 -13    0.50    1.10
  -7   1 -13   32.30    2.90
 -18   0  13   38.20    3.30
 -17   0  13   30.10    3.00
 -16   0  13   59.19    3.30
 -15   0  13  202.78    6.80
  14   0 -13  337.57   10.20
 -14   0  13  336.97   10.20
 -14   0  13  343.17   10.50
  13   0 -13   19.10    1.60
 -13   0  13   18.90    1.60
 -13   0  13   17.50    2.10
  12   0 -13  100.59    3.50
 -12   0  13   94.69    3.90
 -12   0  13  102.39    3.50
  11   0 -13   86.79    3.60
 -11   0  13   99.79    3.80
 -11   0  13  100.29    3.40
  10   0 -13  395.36   11.80
 -10   0  13  412.96   12.20
 -10   0  13  407.26   11.90
   9   0 -13    8.30    1.20
  -9   0  13    6.50    0.90
  -9   0  13    5.00    0.70
   8   0 -13   90.69    3.10
  -8   0  13   89.99    3.30
  -8   0  13   92.49    3.50
   7   0 -13  145.99    4.70
  -7   0  13  152.68    4.90
  -7   0  13  156.08    5.10
   6   0 -13  585.84   16.80
  -6   0  13  593.24   17.10
  -6   0  13  585.14   17.00
   5   0 -13  101.99    3.50
  -5   0  13  107.39    3.70
  -5   0  13  101.09    3.70
   4   0 -13   10.30    1.30
  -4   0  13   12.50    1.50
  -4   0  13   11.80    1.50
   3   0 -13   13.60    1.40
  -3   0  13   11.70    1.50
  -3   0  13   13.90    1.70
   2   0 -13  594.44   17.00
  -2   0  13  570.04   17.00
  -2   0  13  592.74   17.10
   1   0 -13   15.70    1.90
  -1   0  13   17.70    1.90
  -1   0  13   18.50    1.70
   0   0  13   11.60    1.90
   0   0  13    9.70    1.60
  -1   0 -13  349.57   10.80
   1   0  13  364.16   10.70
   1   0  13  359.56   10.90
  -2   0 -13  708.53   20.70
   2   0  13  705.13   20.70
   2   0  13  720.03   20.60
  -3   0 -13  340.17   10.50
   3   0  13  342.17   10.40
  -4   0 -13    0.90    0.90
   4   0  13    0.70    0.90
  -5   0 -13    5.10    1.10
  -6   0 -13   38.60    3.00
  -7   0 -13   -0.70    1.10
 -18   1  13   61.49    3.70
 -17   1  13    1.60    1.10
 -16   1  13  198.28    6.80
 -15   1  13   30.60    2.60
  14  -1 -13   33.50    2.00
 -14   1  13   33.90    2.00
 -14   1  13   31.50    2.50
  13  -1 -13  141.89    4.80
 -13   1  13  147.19    4.70
 -13   1  13  144.59    5.20
  12  -1 -13  158.88    5.70
 -12   1  13  178.58    5.50
 -12   1  13  178.68    5.90
  11  -1 -13  194.38    6.10
 -11   1  13  203.58    6.60
 -11   1  13  200.08    6.20
  10  -1 -13  291.97    8.70
 -10   1  13  289.47    8.70
 -10   1  13  296.07    9.10
   9  -1 -13  299.47    9.10
  -9   1  13  314.97    9.20
  -9   1  13  315.67    9.50
   8  -1 -13   83.79    2.80
  -8   1  13   77.89    4.20
  -8   1  13   83.39    3.10
   7  -1 -13   53.99    2.10
  -7   1  13   59.09    2.60
  -7   1  13   53.99    2.40
   6  -1 -13   52.89    2.10
  -6   1  13   58.69    2.50
  -6   1  13   53.29    2.40
   5  -1 -13   68.49    2.60
  -5   1  13   68.39    2.90
  -5   1  13   72.29    2.80
   4  -1 -13   21.80    1.50
  -4   1  13   17.60    1.70
  -4   1  13   19.90    1.80
   3  -1 -13  175.68    5.50
  -3   1  13  175.38    5.70
  -3   1  13  176.28    5.70
   2  -1 -13  313.17    9.30
  -2   1  13  312.27    9.50
  -2   1  13  310.87    9.50
   1  -1 -13  296.67    9.00
  -1   1  13  297.97    9.10
  -1   1  13  300.07    9.10
   0  -1 -13  210.58    8.10
   0   1  13  231.68    7.20
   0   1  13  233.58    7.20
  -1  -1 -13   -0.80    0.80
   1   1  13    1.00    0.80
   1   1  13    0.40    0.80
  -2  -1 -13   81.69    3.50
   2   1  13   78.29    3.50
   2   1  13   81.69    3.50
  -3  -1 -13  320.17    9.90
   3   1  13  314.57    9.80
  -4  -1 -13   33.00    2.70
   4   1  13   33.10    2.70
  -5  -1 -13   23.30    2.60
  -6  -1 -13    0.00    1.10
 -18   2  13   10.70    1.50
 -17   2  13   17.00    2.70
 -16   2  13   57.49    3.30
 -15   2  13   97.49    4.10
 -15   2  13   97.09    4.10
  14  -2 -13    3.70    0.70
 -14   2  13    1.90    0.90
 -14   2  13    3.70    0.70
  13  -2 -13  283.47    8.60
 -13   2  13  283.07    9.00
 -13   2  13  288.97    8.60
  12  -2 -13  413.36   12.20
 -12   2  13  415.96   12.60
 -12   2  13  420.16   12.20
  11  -2 -13  176.98    5.60
 -11   2  13  183.58    6.10
 -11   2  13  181.08    5.70
  10  -2 -13  132.09    4.20
 -10   2  13  131.39    4.30
 -10   2  13  128.09    4.70
   9  -2 -13    3.50    0.50
  -9   2  13    2.10    0.60
  -9   2  13    3.80    0.80
   8  -2 -13   83.19    2.80
  -8   2  13   81.29    3.10
  -8   2  13   85.89    3.40
   7  -2 -13   16.20    1.20
  -7   2  13   17.20    2.50
  -7   2  13   16.90    1.60
   6  -2 -13    0.80    0.50
  -6   2  13    1.40    0.70
  -6   2  13    1.00    0.60
   5  -2 -13  850.51   24.30
  -5   2  13  864.31   24.50
  -5   2  13  849.52   24.60
   4  -2 -13  370.46   10.80
  -4   2  13  358.66   11.10
  -4   2  13  377.86   11.00
   3  -2 -13   33.70    1.90
  -3   2  13   33.00    2.20
  -3   2  13   35.60    2.20
   2  -2 -13  721.93   21.10
  -2   2  13  753.32   21.30
  -2   2  13  735.93   21.40
  -1   2  13   15.20    1.90
  -1   2  13   14.30    2.00
   0  -2 -13  271.67    9.20
   0   2  13  292.97    8.90
   0   2  13  301.67    9.10
  -1  -2 -13  210.88    6.80
   1   2  13  213.48    6.90
   1   2  13  207.58    6.90
  -2  -2 -13   94.59    3.90
   2   2  13   95.09    4.00
   2   2  13   91.79    4.00
  -3  -2 -13  119.69    4.60
   3   2  13  116.59    4.70
  -4  -2 -13    9.30    1.20
   4   2  13    9.50    1.40
  -5  -2 -13  127.49    5.00
  -6  -2 -13   31.10    2.90
 -18   3  13   80.79    4.40
 -17   3  13   -0.10    1.00
 -16   3  13   57.29    3.30
 -15   3  13  144.09    4.80
 -15   3  13  148.69    5.40
 -14   3  13  217.08    7.40
 -14   3  13  227.58    6.90
 -13   3  13    3.30    0.70
 -13   3  13    4.30    1.00
  12  -3 -13  259.97    7.90
 -12   3  13  261.37    7.90
 -12   3  13  265.07    8.40
  11  -3 -13   21.80    1.50
 -11   3  13   20.90    1.70
 -11   3  13   26.90    2.20
  10  -3 -13   56.59    2.20
 -10   3  13   56.89    2.30
 -10   3  13   52.79    2.80
   9  -3 -13   89.29    3.00
  -9   3  13   84.59    3.20
  -9   3  13   88.69    3.60
   8  -3 -13   93.89    3.10
  -8   3  13   95.39    3.70
  -8   3  13   94.19    3.40
   7  -3 -13   19.40    1.20
  -7   3  13   17.40    1.80
  -7   3  13   16.70    1.70
   6  -3 -13   76.39    2.60
  -6   3  13   74.99    3.00
   5  -3 -13   77.79    2.70
  -5   3  13   77.09    3.00
  -5   3  13   75.49    3.40
   4  -3 -13  250.67    7.70
  -4   3  13  259.77    8.10
  -4   3  13  259.77    7.90
   3  -3 -13   73.79    2.90
  -3   3  13   75.69    3.20
  -3   3  13   84.99    3.40
   2  -3 -13  828.02   24.10
  -2   3  13  837.42   24.20
  -2   3  13  861.91   24.50
   1  -3 -13   23.40    2.10
  -1   3  13   27.30    2.30
  -1   3  13   28.20    2.30
   0  -3 -13   17.70    2.30
   0   3  13   22.40    2.20
   0   3  13   20.90    2.40
  -1  -3 -13  109.49    4.00
   1   3  13   98.59    4.30
   1   3  13  106.09    4.20
  -2  -3 -13  139.39    5.00
   2   3  13  139.69    5.20
   2   3  13  128.49    5.00
  -3  -3 -13  174.28    6.00
   3   3  13  168.98    6.20
  -4  -3 -13  196.78    6.70
   4   3  13  192.18    6.90
  -5  -3 -13   68.79    3.70
 -18   4  13   94.79    4.90
 -17   4  13   35.30    3.30
 -16   4  13    1.80    1.00
 -15   4  13   79.89    3.00
 -15   4  13   71.59    3.70
 -14   4  13  412.66   12.80
 -14   4  13  425.96   12.30
  13  -4 -13   30.30    1.80
 -13   4  13   30.20    2.50
 -13   4  13   28.20    1.80
  12  -4 -13    5.10    0.70
 -12   4  13    4.00    0.70
 -12   4  13    5.60    1.00
  11  -4 -13  154.58    4.90
 -11   4  13  154.18    5.50
 -11   4  13  155.78    4.90
  10  -4 -13   16.50    1.30
 -10   4  13   16.30    1.60
 -10   4  13   11.20    2.00
   9  -4 -13  186.58    5.50
  -9   4  13  185.48    5.70
  -9   4  13  178.38    6.20
   8  -4 -13   14.60    1.20
  -8   4  13   12.30    1.60
   7  -4 -13  287.97    8.30
  -7   4  13  282.67    8.90
  -7   4  13  281.07    8.50
   6  -4 -13 1080.29   31.00
  -6   4  13 1118.79   31.20
  -6   4  13 1095.09   31.60
   5  -4 -13   76.99    2.80
  -5   4  13   77.69    3.20
  -5   4  13   86.19    3.50
   4  -4 -13    7.90    1.40
  -4   4  13   12.10    1.90
  -4   4  13   13.20    2.40
   3  -4 -13  234.68    7.10
  -3   4  13  235.88    7.40
   2  -4 -13  193.88    6.00
  -2   4  13  181.08    6.90
  -2   4  13  194.48    6.20
   1  -4 -13   82.39    3.30
  -1   4  13   81.29    3.50
  -1   4  13   78.89    3.80
   0  -4 -13    1.70    0.90
   0   4  13    3.40    0.90
   0   4  13    1.50    1.00
  -1  -4 -13  134.29    4.70
   1   4  13  125.79    4.80
   1   4  13  130.09    5.20
  -2  -4 -13  327.47    9.90
   2   4  13  320.67   10.20
   2   4  13  307.07    9.90
  -3  -4 -13  101.89    4.20
   3   4  13   99.29    4.70
  -4  -4 -13   54.79    3.30
   4   4  13   46.00    3.80
  -5  -4 -13    0.10    1.20
 -18   5  13   -0.20    1.30
 -17   5  13    0.50    1.30
 -16   5  13    3.70    1.20
 -16   5  13    3.40    0.90
 -15   5  13    1.00    0.70
 -15   5  13    0.40    1.00
 -14   5  13    0.00    1.00
 -14   5  13    0.00    0.70
 -13   5  13    1.00    0.90
 -13   5  13    1.20    0.60
  12  -5 -13   46.80    2.10
 -12   5  13   46.60    2.20
 -12   5  13   42.80    2.90
  11  -5 -13    4.30    0.60
 -11   5  13    3.90    1.00
 -11   5  13    3.50    0.70
  10  -5 -13    0.90    0.50
 -10   5  13    0.50    0.70
 -10   5  13   -0.10    0.70
   9  -5 -13   23.30    1.40
  -9   5  13   21.40    1.80
  -9   5  13   22.80    2.20
   8  -5 -13    4.50    0.50
  -8   5  13    4.50    0.90
  -8   5  13    2.40    0.70
   7  -5 -13   22.50    1.30
  -7   5  13   22.60    1.90
  -7   5  13   19.80    2.20
   6  -5 -13    0.60    0.50
  -6   5  13    0.70    0.70
  -6   5  13    1.70    0.80
   5  -5 -13 1024.90   29.20
  -5   5  13 1048.00   29.40
  -5   5  13 1026.80   29.90
   4  -5 -13    4.10    0.70
  -4   5  13    6.50    1.00
  -4   5  13    5.70    1.00
   3  -5 -13   -0.50    0.60
  -3   5  13    1.50    0.90
  -3   5  13    0.90    0.80
   2  -5 -13  205.48    6.40
  -2   5  13  200.78    6.60
  -2   5  13  205.48    7.00
   1  -5 -13   13.10    1.90
  -1   5  13   13.60    2.50
  -1   5  13   13.50    2.10
   0  -5 -13   18.20    2.10
   0   5  13   21.40    2.30
   0   5  13   15.70    2.70
  -1  -5 -13   26.50    2.40
   1   5  13   30.80    2.70
   1   5  13   27.70    3.70
  -2  -5 -13   19.30    2.50
   2   5  13   15.20    2.90
  -3  -5 -13   -0.70    1.10
   3   5  13    2.20    1.50
  -4  -5 -13    1.40    1.30
   4   5  13    1.20    1.90
 -18   6  13   21.80    3.80
 -17   6  13   87.69    4.70
 -16   6  13   55.19    2.70
 -16   6  13   55.19    3.60
 -15   6  13    6.70    1.20
 -15   6  13   10.80    1.80
 -14   6  13    0.80    0.90
 -14   6  13    0.60    0.70
 -13   6  13    4.90    1.10
 -13   6  13    6.90    0.80
  12  -6 -13  417.56   11.90
 -12   6  13  403.56   12.60
 -12   6  13  405.36   11.90
  11  -6 -13   22.00    1.50
 -11   6  13   22.80    2.40
 -11   6  13   16.40    1.80
  10  -6 -13   93.09    3.20
 -10   6  13   99.49    3.40
 -10   6  13   92.69    4.10
   9  -6 -13  232.68    6.90
  -9   6  13  234.38    7.10
  -9   6  13  233.78    7.80
   8  -6 -13  167.98    5.20
  -8   6  13  173.28    5.50
  -8   6  13  178.58    6.20
   7  -6 -13   21.60    1.30
  -7   6  13   19.10    1.90
  -7   6  13   27.20    2.30
   6  -6 -13   21.40    1.30
  -6   6  13   21.00    2.00
  -6   6  13   21.80    2.40
   5  -6 -13   99.39    3.30
  -5   6  13   99.99    3.70
  -5   6  13   99.69    4.30
   4  -6 -13  482.35   14.10
  -4   6  13  496.75   14.30
  -4   6  13  490.95   15.00
   3  -6 -13   31.40    1.90
  -3   6  13   38.40    2.80
  -3   6  13   28.80    2.30
   2  -6 -13    1.00    0.70
  -2   6  13    1.60    0.90
  -2   6  13    1.00    1.00
   1  -6 -13    0.20    0.80
  -1   6  13    1.70    0.90
  -1   6  13    0.30    1.10
   0  -6 -13    8.60    1.10
   0   6  13    7.90    1.40
  -1  -6 -13   16.60    2.40
   1   6  13   17.90    3.20
   2   6  13   -0.80    1.40
  -3  -6 -13  167.88    6.00
   3   6  13  162.58    6.80
 -17   7  13    9.30    1.60
 -17   7  13    6.10    1.10
 -16   7  13   22.00    3.10
 -16   7  13   19.70    2.20
 -15   7  13   29.70    2.20
 -15   7  13   25.50    3.00
 -14   7  13   47.50    2.40
 -14   7  13   49.10    3.40
 -13   7  13    1.20    0.80
 -13   7  13    1.20    1.00
 -12   7  13   -0.20    0.70
 -12   7  13    1.00    0.90
  11  -7 -13    1.40    0.50
 -11   7  13   -0.30    0.70
 -11   7  13    0.90    0.90
  10  -7 -13    7.30    1.20
 -10   7  13    5.40    1.10
 -10   7  13    4.60    0.80
   9  -7 -13   -0.80    0.40
  -9   7  13    0.10    0.90
  -9   7  13   -0.50    0.90
   8  -7 -13    3.60    0.50
  -8   7  13    2.90    1.00
   7  -7 -13    2.30    0.50
  -7   7  13    3.80    0.80
  -7   7  13    2.60    1.00
   6  -7 -13   32.70    1.50
  -6   7  13   31.40    2.80
  -6   7  13   32.50    2.30
   5  -7 -13   24.80    1.40
  -5   7  13   25.80    2.60
  -5   7  13   26.50    2.20
   4  -7 -13   64.59    2.50
  -4   7  13   66.79    3.60
  -4   7  13   61.69    2.90
   3  -7 -13   24.70    1.80
  -3   7  13   23.30    2.80
  -3   7  13   26.30    2.20
   2  -7 -13    4.50    0.80
  -2   7  13    4.80    1.00
  -2   7  13    5.50    1.40
   1  -7 -13   24.00    2.10
  -1   7  13   18.70    3.10
   0  -7 -13    0.00    0.90
   0   7  13    0.10    1.30
  -1  -7 -13   57.59    3.30
   1   7  13   58.49    4.30
  -2  -7 -13   44.00    3.20
   2   7  13   44.60    4.30
 -17   8  13    1.00    1.40
 -16   8  13    2.30    1.40
 -15   8  13   69.29    4.20
 -15   8  13   72.49    3.10
 -14   8  13  281.47    9.50
 -14   8  13  277.27    8.40
 -13   8  13   85.19    3.20
 -13   8  13   82.29    4.20
 -12   8  13  101.59    4.60
 -12   8  13   98.99    3.60
 -11   8  13  169.68    6.40
  10  -8 -13  176.58    5.10
 -10   8  13  161.58    5.30
 -10   8  13  164.78    6.30
   9  -8 -13   51.59    2.00
  -9   8  13   58.19    3.30
  -9   8  13   49.90    2.50
   8  -8 -13   10.00    1.10
  -8   8  13   13.20    1.80
  -8   8  13    7.90    1.30
   7  -8 -13  316.47    9.00
  -7   8  13  301.17    9.20
  -7   8  13  315.17   10.20
   6  -8 -13   28.10    1.40
  -6   8  13   29.70    2.80
  -6   8  13   22.70    2.10
   5  -8 -13  128.59    4.00
  -5   8  13  128.99    4.40
  -5   8  13  134.49    5.40
   4  -8 -13   19.10    1.50
  -4   8  13   22.20    2.90
  -4   8  13   18.70    2.00
   3  -8 -13  225.78    6.70
  -3   8  13  219.78    6.90
  -3   8  13  214.98    7.90
   2  -8 -13   99.99    3.50
  -2   8  13   89.29    4.80
   1  -8 -13    2.10    0.90
  -1   8  13   -0.50    1.40
   0  -8 -13    1.40    1.00
   0   8  13    1.30    1.60
  -1  -8 -13   39.00    3.00
   1   8  13   34.90    4.20
 -16   9  13   61.59    4.40
 -15   9  13    1.20    1.40
 -14   9  13   -0.80    1.20
 -13   9  13  135.39    5.70
 -13   9  13  134.49    5.00
 -12   9  13    3.00    1.20
 -12   9  13    2.30    1.20
 -11   9  13    4.40    0.90
 -11   9  13    4.80    1.20
 -10   9  13   22.80    2.70
  -9   9  13  114.29    4.90
  -8   9  13   34.20    3.00
  -7   9  13    3.00    1.10
  -6   9  13   23.20    2.90
  -6   9  13   24.00    1.90
   5  -9 -13   77.89    2.60
  -5   9  13   72.69    3.00
  -5   9  13   74.29    4.20
   4  -9 -13  200.38    5.90
  -4   9  13  193.08    7.40
   3  -9 -13   30.90    1.90
  -3   9  13   25.80    3.40
   2  -9 -13  155.68    4.80
  -2   9  13  138.69    6.30
   1  -9 -13    1.40    0.90
  -1   9  13   -1.70    1.70
   0  -9 -13    2.40    1.20
   0   9  13    2.30    1.70
 -16  10  13   23.20    3.60
 -15  10  13   24.80    3.40
 -14  10  13    0.50    1.20
 -13  10  13  118.69    5.30
 -12  10  13    8.60    1.60
 -11  10  13   63.99    3.90
 -10  10  13   21.00    2.80
  -9  10  13  140.39    5.80
  -8  10  13   82.29    4.30
  -7  10  13    2.30    1.30
  -6  10  13    4.10    1.30
  -5  10  13   51.29    3.80
  -4  10  13  346.07   11.70
  -3  10  13   -0.70    1.40
  -2  10  13  172.48    7.40
  -1  10  13   62.09    5.00
 -14  11  13  109.19    5.40
 -13  11  13    4.00    1.40
 -12  11  13   66.29    4.00
 -11  11  13   45.90    3.50
 -10  11  13   73.69    4.20
  -8  11  13   -0.20    1.20
  -7  11  13   17.60    3.10
  -6  11  13   85.89    4.70
  -5  11  13    2.30    1.50
  -4  11  13    0.70    1.30
  -3  11  13   -1.50    1.60
 -12  12  13    1.40    1.10
 -11  12  13   65.59    4.10
 -10  12  13   48.20    3.70
  -9  12  13   -0.40    1.20
  -8  12  13   -0.60    1.20
  -7  12  13   72.19    4.50
  -6  12  13   45.80    4.20
  -5  12  13    0.10    1.40
   4  16 -14    0.10    0.70
   3  16 -14   15.20    1.80
   2  16 -14  146.59    5.10
   1  16 -14  396.66   11.90
   0  16 -14   27.60    2.30
  -1  16 -14   47.50    2.80
   7  15 -14   48.60    2.50
   6  15 -14   29.30    2.00
   5  15 -14    1.20    0.70
   4  15 -14  200.58    6.50
   3  15 -14  403.56   12.00
   2  15 -14  155.08    5.30
   1  15 -14   70.79    3.10
   0  15 -14   13.10    1.90
  -1  15 -14  104.59    4.10
  -2  15 -14   -1.00    0.80
  -3  15 -14   89.69    3.90
   9  14 -14   23.70    2.00
   8  14 -14   25.10    2.00
   7  14 -14    4.00    0.80
   6  14 -14   56.89    2.60
   5  14 -14    1.60    0.60
   4  14 -14  109.29    3.90
   3  14 -14  240.48    7.50
   2  14 -14   88.69    3.50
   1  14 -14   51.29    2.60
   0  14 -14   75.09    3.20
  -1  14 -14   11.20    1.90
  -2  14 -14   -0.20    0.80
  -3  14 -14   40.50    2.80
  -4  14 -14   27.70    2.70
  10  13 -14   47.20    2.60
   9  13 -14  509.15   15.10
   8  13 -14   14.20    1.70
   7  13 -14   70.99    2.90
   6  13 -14  390.56   11.70
   5  13 -14  164.18    5.40
   4  13 -14   11.70    1.60
   3  13 -14   74.79    3.00
   2  13 -14   87.59    3.40
   1  13 -14  222.88    7.10
   0  13 -14    1.30    0.80
  -1  13 -14  208.88    6.80
  -2  13 -14   62.79    3.10
  -3  13 -14   74.59    3.50
  -4  13 -14    1.30    1.00
   4 -13  14    1.80    2.00
  -5  13 -14  119.19    4.90
  11  12 -14   39.40    2.40
  10  12 -14    1.00    0.70
   9  12 -14  133.19    4.70
   8  12 -14    5.20    0.80
   7  12 -14   93.99    3.50
   6  12 -14  122.19    4.20
   5  12 -14  312.47    9.40
   4  12 -14   29.50    1.90
   3  12 -14  545.05   15.90
   2  12 -14   50.79    2.50
   1  12 -14  190.88    6.20
   0  12 -14   30.30    2.20
  -1  12 -14   10.40    1.80
   1 -12  14    8.10    1.80
  -2  12 -14    4.60    0.90
   2 -12  14    7.60    1.90
  -3  12 -14   34.40    2.50
   3 -12  14   26.70    4.40
  -4  12 -14  118.59    4.70
   4 -12  14  119.99    6.30
  -5  12 -14   -0.10    1.00
  -6  12 -14  230.88    7.90
  12  11 -14  145.09    5.10
  11  11 -14  199.98    6.60
  10  11 -14  137.49    4.80
   9  11 -14  155.08    5.20
   8  11 -14  198.18    6.30
   7  11 -14  481.45   14.10
   6  11 -14  214.28    6.70
   5  11 -14    3.70    0.70
   4  11 -14   34.30    2.00
   3  11 -14  678.73   19.60
   2  11 -14   38.20    2.20
   1  11 -14  158.48    5.30
   0  11 -14  132.19    4.70
  -1  11 -14    4.90    0.90
   1 -11  14    7.80    1.60
  -2  11 -14  156.98    5.50
   2 -11  14  160.18    6.70
  -3  11 -14  251.97    8.10
   3 -11  14  251.07    9.10
  -4  11 -14  130.19    5.00
   4 -11  14  134.89    6.20
  -5  11 -14  290.87    9.40
  -6  11 -14   -0.40    1.10
  13  10 -14  254.17    8.20
  12  10 -14   24.90    2.00
  11  10 -14   61.59    2.80
  10  10 -14   31.50    2.00
   9  10 -14    3.30    0.70
   8  10 -14    9.10    1.40
   7  10 -14    4.80    0.70
   6  10 -14   20.40    1.60
   5  10 -14    9.20    1.40
   4  10 -14   82.59    3.20
   3  10 -14    0.70    0.60
   2  10 -14   30.40    2.00
   1  10 -14   87.79    3.40
   0  10 -14  209.08    6.70
  -1  10 -14  179.18    6.00
  -2  10 -14   43.30    2.60
   2 -10  14   55.19    4.00
  -3  10 -14   12.60    2.00
   3 -10  14   10.00    1.80
  -4  10 -14   81.49    3.70
   4 -10  14   87.19    4.90
  -5  10 -14   97.39    4.20
   5 -10  14   93.39    6.80
  -6  10 -14   -1.70    1.00
  14   9 -14   47.40    2.80
  13   9 -14    7.40    0.90
  12   9 -14  172.98    5.80
  11   9 -14  303.57    9.30
  10   9 -14  327.37    9.90
   9   9 -14  327.87    9.90
   8   9 -14  192.78    6.10
   7   9 -14   67.59    2.70
   6   9 -14   67.19    2.70
  -6  -9  14   66.19    3.00
   5   9 -14   15.00    1.40
  -5  -9  14   13.30    1.70
   4   9 -14   11.10    1.40
  -4  -9  14    9.80    1.60
   3   9 -14   13.30    1.50
  -3  -9  14   15.40    1.80
   2   9 -14    2.90    0.70
  -2  -9  14    4.70    0.80
   1   9 -14   11.10    1.70
  -1  -9  14   12.90    2.20
   0   9 -14   25.90    2.00
  -1   9 -14   19.90    2.00
  -2   9 -14   31.00    2.30
  -3   9 -14   -0.70    0.70
   3  -9  14    1.40    1.40
  -4   9 -14   41.90    2.80
   4  -9  14   48.70    4.00
  -5   9 -14   19.60    2.50
   5  -9  14   26.10    4.50
  -6   9 -14  255.97    8.50
  -7   9 -14  179.98    8.10
  14   8 -14    2.30    0.80
  13   8 -14   73.49    3.20
  12   8 -14   33.10    2.10
  11   8 -14   12.40    1.50
  10   8 -14    5.00    0.70
   9   8 -14   11.10    1.40
   8   8 -14   45.30    2.10
   7   8 -14   39.00    1.90
  -7  -8  14   36.80    2.10
   6   8 -14  114.19    3.90
  -6  -8  14  112.19    4.00
   5   8 -14   41.00    2.00
  -5  -8  14   42.30    2.20
   4   8 -14  309.47    9.40
  -4  -8  14  316.77    9.60
   3   8 -14  126.19    4.30
  -3  -8  14  125.99    4.50
   2   8 -14    0.00    0.60
  -2  -8  14    0.20    0.70
   1   8 -14  143.79    4.90
  -1  -8  14  147.39    5.10
   0   8 -14    3.20    0.80
  -1   8 -14    1.00    0.70
  -3   8 -14    6.50    1.00
  -4   8 -14  209.38    7.10
   4  -8  14  216.58    7.60
  -5   8 -14  151.08    5.60
   5  -8  14  154.58    6.70
  -6   8 -14  145.99    5.50
  -7   8 -14   27.80    2.90
  15   7 -14   71.49    3.20
  14   7 -14   19.80    2.00
  13   7 -14   68.89    3.00
  12   7 -14   52.49    2.50
  11   7 -14  436.76   13.00
  10   7 -14  129.39    4.40
   9   7 -14   80.09    3.00
   8   7 -14   80.59    2.90
  -8  -7  14   76.99    3.10
   7   7 -14   66.99    2.60
  -7  -7  14   67.79    2.90
   6   7 -14   79.19    2.90
  -6  -7  14   76.49    3.10
   5   7 -14   25.80    1.70
  -5  -7  14   24.50    1.90
   4   7 -14    0.50    0.50
  -4  -7  14    1.40    0.70
   3   7 -14   56.99    2.50
  -3  -7  14   59.39    2.80
   2   7 -14  315.97    9.50
  -2  -7  14  309.57    9.60
   1   7 -14  266.47    8.10
  -1  -7  14  256.77    8.20
   0   7 -14  163.88    5.40
   0  -7  14  153.58    5.50
  -1   7 -14    4.80    0.90
  -2   7 -14   44.50    2.60
  -3   7 -14    3.90    1.00
  -4   7 -14  128.79    4.90
  -5   7 -14  161.38    5.90
   5  -7  14  167.58    7.20
  -7   7 -14   55.09    3.60
  15   6 -14    1.90    0.70
  14   6 -14   58.49    2.80
  13   6 -14   35.00    2.10
  12   6 -14   19.50    1.70
  11   6 -14    0.30    0.60
  10   6 -14  163.78    5.30
  -9  -6  14    2.00    0.60
   8   6 -14  188.28    5.90
  -8  -6  14  190.48    6.10
   7   6 -14   21.70    1.50
  -7  -6  14   18.30    1.70
   6   6 -14  118.89    4.00
  -6  -6  14  120.79    4.20
   5   6 -14   19.90    1.50
  -5  -6  14   20.80    1.80
   4   6 -14   67.99    2.70
  -4  -6  14   65.89    2.90
   3   6 -14  237.58    7.30
  -3  -6  14  233.98    7.40
   2   6 -14   52.49    2.50
  -2  -6  14   55.39    2.70
   1   6 -14   43.80    2.30
  -1  -6  14   41.50    2.50
   0   6 -14   83.19    3.30
   0  -6  14   81.59    3.50
  -1   6 -14   11.80    1.80
  -2   6 -14  322.67   10.00
  -3   6 -14   21.30    2.20
  -4   6 -14   -0.10    0.90
   4  -6  14    1.40    0.70
  -5   6 -14    0.10    1.00
   5  -6  14    1.00    0.70
  -7   6 -14   -1.00    1.00
  15   5 -14   28.00    2.20
  14   5 -14  228.28    7.30
  13   5 -14    0.40    0.60
  12   5 -14   16.60    1.60
  11   5 -14  167.58    5.40
  10   5 -14  685.53   19.80
 -10  -5  14  684.83   19.80
   9   5 -14  159.68    4.90
  -9  -5  14  145.19    5.00
   8   5 -14  100.29    3.50
  -8  -5  14  100.29    3.60
   7   5 -14   98.19    3.40
  -7  -5  14   99.79    3.60
   6   5 -14  346.17   10.30
  -6  -5  14  350.26   10.50
   5   5 -14  244.58    7.50
  -5  -5  14  247.28    7.70
   4   5 -14    0.60    0.60
  -4  -5  14    0.50    0.60
   3   5 -14   31.10    1.90
  -3  -5  14   36.40    2.20
   2   5 -14  154.38    5.20
  -2  -5  14  162.88    5.40
   1   5 -14  203.08    6.50
  -1  -5  14  203.18    6.60
   0   5 -14  296.37    9.20
   0  -5  14  300.77    9.30
  -1   5 -14   84.59    3.50
   1  -5  14   83.79    3.60
  -2   5 -14   92.79    3.80
  -3   5 -14   19.50    2.30
   3  -5  14   20.80    1.70
  -4   5 -14   19.00    2.30
   4  -5  14   23.50    1.80
  -5   5 -14    3.60    1.00
  -6   5 -14  119.99    4.90
  -7   5 -14  100.19    4.70
  15   4 -14   69.19    3.10
  14   4 -14   11.30    1.70
  13   4 -14  318.47    9.70
  12   4 -14  258.97    8.00
  11   4 -14   48.60    2.20
 -11  -4  14   47.70    2.30
  10   4 -14  131.79    4.30
 -10  -4  14  128.49    4.40
   9   4 -14   -0.20    0.50
   8   4 -14  775.52   22.40
  -8  -4  14  792.52   22.60
   7   4 -14  172.88    5.40
  -7  -4  14  170.88    5.60
   6   4 -14   96.29    3.40
  -6  -4  14  101.49    3.70
   5   4 -14  350.06   10.90
  -5  -4  14  378.96   11.00
   4   4 -14  298.07    9.40
  -4  -4  14  331.47    9.60
   3   4 -14   38.10    2.10
  -3  -4  14   42.20    2.30
   2   4 -14    0.00    0.60
  -2  -4  14   -0.10    0.70
   1   4 -14   34.70    2.10
  -1  -4  14   35.30    2.30
   0   4 -14  234.98    7.40
   0  -4  14  232.18    7.50
  -1   4 -14  131.69    4.70
   1  -4  14  134.59    4.40
   1  -4  14  126.09    4.70
  -2   4 -14   15.90    2.10
   2  -4  14   17.60    1.60
  -3   4 -14   51.69    3.00
   3  -4  14   56.19    2.50
  -4   4 -14    0.30    0.90
   4  -4  14    1.10    0.70
  -5   4 -14  149.59    5.60
  -6   4 -14    6.70    1.20
  -7   4 -14   45.20    3.50
  15   3 -14    1.70    0.70
  14   3 -14   15.00    1.70
  13   3 -14  119.19    4.20
  12   3 -14   42.10    2.10
  11   3 -14  171.48    5.40
 -11  -3  14  166.28    5.50
  10   3 -14  121.29    4.00
 -10  -3  14  118.79    4.10
   9   3 -14   -0.30    0.50
   8   3 -14  481.25   14.40
  -8  -3  14  516.35   14.60
  -7  -3  14  196.18    6.20
   6   3 -14    5.90    0.80
  -6  -3  14    5.30    0.70
   5   3 -14  113.49    3.90
  -5  -3  14  116.69    4.10
   4   3 -14  100.49    4.00
  -4  -3  14  108.29    3.90
   3   3 -14   15.90    2.10
  -3  -3  14   20.30    1.90
   2   3 -14   16.50    1.80
  -2  -3  14   19.00    1.90
   1   3 -14  143.59    4.90
  -1  -3  14  146.79    5.10
   0   3 -14 1083.69   31.20
   0  -3  14 1100.19   31.10
   0  -3  14 1089.89   31.30
  -1   3 -14  135.49    4.80
   1  -3  14  126.49    4.80
   1  -3  14  136.59    4.50
  -2   3 -14    2.40    0.90
   2  -3  14    1.10    0.70
  -3   3 -14    0.40    0.90
   3  -3  14    0.00    0.70
  -4   3 -14   45.10    2.90
   4  -3  14   40.70    2.40
  -5   3 -14   55.39    3.20
  -6   3 -14   51.69    3.30
  -7   3 -14  191.88    7.70
 -17  -2  14  112.49    4.80
  15   2 -14  426.76   12.80
  14   2 -14   60.99    2.70
  13   2 -14    1.70    0.60
  12   2 -14  242.28    7.40
 -12  -2  14  236.78    7.40
  11   2 -14    2.20    0.60
 -11  -2  14    2.40    0.60
  10   2 -14  103.69    3.50
 -10  -2  14   97.99    3.60
   9   2 -14   48.60    2.10
  -9  -2  14   48.30    2.20
   8   2 -14   11.00    1.50
  -8  -2  14   14.20    1.60
   7   2 -14  161.68    5.20
  -7  -2  14  170.68    5.40
   6   2 -14   36.40    1.80
  -6  -2  14   34.90    2.00
   5   2 -14   43.40    2.00
  -5  -2  14   42.10    2.30
   4   2 -14   72.89    2.80
  -4  -2  14   77.49    3.10
   3   2 -14   16.80    1.90
  -3  -2  14   17.80    1.90
  -3  -2  14   16.10    1.70
   2   2 -14  923.01   27.30
  -2  -2  14  976.10   27.40
  -2  -2  14  962.70   27.30
   1   2 -14  469.15   14.00
  -1  -2  14  480.25   14.20
  -1  -2  14  483.45   14.00
   0   2 -14   69.09    3.10
   0  -2  14   70.89    3.30
   0  -2  14   76.99    2.90
  -1   2 -14  285.77    8.90
   1  -2  14  295.47    8.70
   1  -2  14  282.27    9.00
  -2   2 -14  128.29    4.70
   2  -2  14  131.19    4.40
  -3   2 -14    0.30    0.90
   3  -2  14   -0.90    0.80
  -4   2 -14   14.50    2.40
   4  -2  14   14.90    2.10
  -6   2 -14  196.88    6.90
 -18  -1  14    0.30    1.20
 -17  -1  14    4.20    1.10
 -16  -1  14    4.70    1.10
  15   1 -14   68.09    3.00
 -15  -1  14   61.99    3.30
  14   1 -14  206.88    6.60
 -14  -1  14  209.78    7.00
  13   1 -14   28.80    1.80
 -13  -1  14   25.60    1.80
  12   1 -14    4.80    0.70
 -12  -1  14    4.70    0.70
  11   1 -14    3.50    0.60
 -11  -1  14    3.20    0.70
  10   1 -14  107.09    3.60
 -10  -1  14  104.89    3.70
   9   1 -14   34.90    1.80
  -9  -1  14   32.30    1.90
   8   1 -14   19.70    1.40
  -8  -1  14   17.60    1.60
   7   1 -14    2.40    0.50
  -7  -1  14    2.20    0.80
  -7  -1  14    2.00    0.70
   6   1 -14  136.49    4.40
  -6  -1  14  137.99    4.60
  -6  -1  14  135.39    5.10
   5   1 -14   38.50    1.90
  -5  -1  14   37.80    2.20
  -5  -1  14   39.90    2.20
   4   1 -14    3.80    0.70
  -4  -1  14    3.60    0.80
   3   1 -14  215.68    6.60
  -3  -1  14  210.78    6.70
  -3  -1  14  208.48    6.80
  -2  -1  14  949.40   27.30
  -2  -1  14  956.60   27.40
   1   1 -14    8.30    1.00
  -1  -1  14   12.30    1.60
  -1  -1  14   10.80    1.90
   0   1 -14   10.30    1.90
   0  -1  14   12.50    2.00
   0  -1  14    9.60    1.60
  -1   1 -14   99.89    3.90
   1  -1  14   97.59    4.00
   1  -1  14  102.39    3.70
  -2   1 -14  436.96   13.20
   2  -1  14  440.86   13.00
  -3   1 -14  542.85   16.30
   3  -1  14  552.24   16.10
  -4   1 -14    5.70    1.20
   4  -1  14    3.90    1.00
  -5   1 -14    7.80    1.20
  -6   1 -14  140.89    5.50
 -18   0  14    0.10    1.10
 -17   0  14   64.09    3.60
 -16   0  14  480.45   14.60
  15   0 -14   35.90    2.20
 -15   0  14   31.60    2.70
  14   0 -14    3.70    0.70
 -14   0  14    1.80    1.00
  13   0 -14    2.00    0.60
 -13   0  14    0.80    0.80
 -13   0  14    2.20    0.70
  12   0 -14   95.29    3.40
 -12   0  14   97.39    3.50
 -12   0  14   97.49    3.90
  11   0 -14  127.29    4.30
 -11   0  14  136.69    4.80
 -11   0  14  130.19    4.40
  10   0 -14   -0.20    0.50
 -10   0  14   -0.40    0.50
 -10   0  14    0.20    0.70
   9   0 -14  228.18    7.00
  -9   0  14  235.18    7.40
  -9   0  14  231.48    7.10
   8   0 -14  749.73   21.60
  -8   0  14  763.42   21.80
  -8   0  14  761.12   22.00
   7   0 -14   37.50    1.80
  -7   0  14   42.20    2.30
  -7   0  14   37.40    2.20
   6   0 -14    3.20    0.60
  -6   0  14    2.50    0.70
   5   0 -14  292.17    8.60
  -5   0  14  287.67    8.80
  -5   0  14  287.77    8.90
   4   0 -14  212.98    6.60
  -4   0  14  211.28    6.70
  -4   0  14  213.28    6.80
   3   0 -14  251.37    7.60
  -3   0  14  239.68    7.70
  -3   0  14  252.37    7.80
   2   0 -14   87.39    3.70
  -2   0  14   91.79    3.60
  -2   0  14   91.39    3.50
   1   0 -14  178.18    5.90
  -1   0  14  181.68    5.90
  -1   0  14  181.58    6.00
   0   0 -14  104.79    4.00
   0   0  14  111.29    4.00
   0   0  14  107.19    4.10
  -1   0 -14   72.79    3.30
   1   0  14   68.59    3.40
   1   0  14   76.09    3.20
  -2   0 -14   35.30    2.60
   2   0  14   39.30    2.60
  -3   0 -14   44.00    2.80
   3   0  14   34.90    2.70
  -4   0 -14    0.40    1.00
   4   0  14    1.40    1.10
  -5   0 -14   63.09    3.50
  -6   0 -14    1.10    1.20
 -18   1  14   28.70    3.20
 -17   1  14    1.90    1.10
 -16   1  14   22.40    2.70
  15  -1 -14  159.68    5.30
 -15   1  14  155.48    5.70
  14  -1 -14  156.28    5.10
 -14   1  14  146.29    5.00
 -14   1  14  150.28    5.50
  13  -1 -14   49.90    2.30
 -13   1  14   50.69    2.40
 -13   1  14   50.69    2.90
  12  -1 -14  338.57   10.10
 -12   1  14  342.67   10.20
 -12   1  14  341.77   10.50
 -11   1  14   14.50    2.00
 -11   1  14   15.00    1.60
  10  -1 -14   35.40    1.70
 -10   1  14   35.00    2.30
 -10   1  14   32.30    1.90
   9  -1 -14  146.99    4.60
  -9   1  14  147.39    5.10
  -9   1  14  146.59    4.80
   8  -1 -14   79.99    2.80
  -8   1  14   81.39    3.30
  -8   1  14   77.19    3.10
   7  -1 -14   77.99    2.80
  -7   1  14   72.89    3.10
  -7   1  14   81.79    3.30
   6  -1 -14   42.30    1.90
  -6   1  14   41.90    2.30
  -6   1  14   42.40    2.40
   5  -1 -14  959.60   26.60
  -5   1  14  833.72   27.70
  -5   1  14 1009.30   26.80
   4  -1 -14  117.09    4.00
  -4   1  14  120.89    4.20
  -4   1  14  112.19    4.20
   3  -1 -14    9.70    1.60
  -3   1  14   11.80    1.90
  -3   1  14   11.00    1.70
   2  -1 -14    5.10    0.80
  -2   1  14    4.80    0.90
  -2   1  14    3.60    0.80
   1  -1 -14  239.18    7.50
  -1   1  14  237.88    7.60
  -1   1  14  238.58    7.60
   0  -1 -14  144.89    4.90
   0   1  14  136.09    5.00
   0   1  14  141.89    5.00
  -1  -1 -14   85.39    3.50
   1   1  14   82.09    3.60
   1   1  14   77.89    3.70
  -2  -1 -14  175.18    5.90
   2   1  14  167.38    5.90
  -3  -1 -14  339.47   10.40
   3   1  14  327.67   10.40
   4   1  14   86.29    4.00
  -5  -1 -14   85.39    4.10
 -18   2  14   60.49    3.80
 -17   2  14    7.30    1.40
 -16   2  14   17.80    2.60
 -15   2  14  344.87   10.80
  14  -2 -14  194.48    6.10
 -14   2  14  186.98    6.00
 -14   2  14  184.38    6.50
  13  -2 -14   45.10    2.20
 -13   2  14   43.80    2.70
 -13   2  14   42.50    2.20
  12  -2 -14   12.90    1.60
 -12   2  14   11.10    1.60
 -12   2  14    8.10    1.10
  11  -2 -14   98.09    3.40
 -11   2  14   98.69    3.90
 -11   2  14   95.69    3.50
  10  -2 -14   35.70    1.80
 -10   2  14   35.40    2.30
 -10   2  14   36.30    2.00
   9  -2 -14   11.60    1.30
  -9   2  14   12.80    1.90
   8  -2 -14  288.07    8.50
  -8   2  14  286.07    8.90
  -8   2  14  289.47    8.70
   7  -2 -14  197.08    5.90
  -7   2  14  190.48    6.10
  -7   2  14  190.28    6.30
   6  -2 -14  526.25   15.10
  -6   2  14  512.85   15.30
  -6   2  14  535.95   15.50
   5  -2 -14  179.38    5.60
  -5   2  14  176.18    5.90
  -5   2  14  183.18    6.00
  -4   2  14   -0.10    0.80
   3  -2 -14  365.06   10.50
  -3   2  14  361.36   10.60
  -3   2  14  329.57   11.10
   2  -2 -14  594.94   17.20
  -2   2  14  592.84   17.50
  -2   2  14  594.34   17.40
   1  -2 -14  188.78    6.20
  -1   2  14  190.68    6.30
  -1   2  14  192.78    6.40
   0  -2 -14   47.00    2.70
   0   2  14   49.80    2.90
   0   2  14   53.39    2.90
  -1  -2 -14  327.97   10.00
   1   2  14  320.77   10.10
   1   2  14  324.27   10.20
  -2  -2 -14  177.78    6.00
   2   2  14  171.78    6.20
  -3  -2 -14   59.99    3.30
   3   2  14   60.19    3.60
  -4  -2 -14    5.20    1.30
   4   2  14   -0.40    1.30
  -5  -2 -14   20.50    2.80
 -18   3  14    1.00    1.20
 -17   3  14  104.19    4.70
 -16   3  14  154.98    5.80
 -15   3  14    6.40    1.10
 -15   3  14    5.20    0.80
  14  -3 -14    2.10    0.70
 -14   3  14    1.40    0.90
 -14   3  14    1.40    0.70
  13  -3 -14   16.00    1.60
 -13   3  14   13.90    1.70
 -13   3  14   13.20    2.20
  12  -3 -14  173.18    5.50
 -12   3  14  178.08    5.60
 -12   3  14  172.28    6.10
  11  -3 -14    9.70    1.30
 -11   3  14    7.10    0.80
  10  -3 -14   59.79    2.40
 -10   3  14   58.89    2.60
 -10   3  14   65.49    3.00
   9  -3 -14  725.43   21.40
  -9   3  14  772.02   21.60
  -9   3  14  759.12   21.90
   8  -3 -14    9.20    1.20
  -8   3  14    6.30    0.90
   7  -3 -14  227.18    6.80
  -7   3  14  223.58    7.30
  -7   3  14  225.68    7.00
   6  -3 -14  404.26   11.70
  -6   3  14  419.96   12.20
  -6   3  14  383.06   11.90
   5  -3 -14  407.86   11.90
  -5   3  14  416.66   12.40
  -5   3  14  403.96   12.20
   4  -3 -14  112.79    3.90
  -4   3  14  114.09    4.20
  -4   3  14  113.89    4.30
   3  -3 -14   59.99    2.50
  -3   3  14   58.69    2.90
  -3   3  14   53.89    3.00
   2  -3 -14   87.59    3.30
  -2   3  14   81.39    4.30
  -2   3  14   89.29    3.60
   1  -3 -14   18.70    2.30
  -1   3  14   13.70    2.10
   0  -3 -14   -0.30    0.80
   0   3  14   -0.40    1.00
   0   3  14    1.90    1.00
  -1  -3 -14  126.99    4.70
   1   3  14  125.89    4.90
   1   3  14  125.79    5.00
  -2  -3 -14   89.49    3.80
   2   3  14   82.79    4.20
  -3  -3 -14    5.40    1.20
   3   3  14    5.70    1.50
  -4  -3 -14   -2.20    1.10
 -18   4  14    0.70    1.30
 -17   4  14   28.20    3.30
 -16   4  14   63.99    3.70
 -15   4  14    3.10    1.20
 -15   4  14    5.70    0.90
 -14   4  14    5.90    1.10
 -14   4  14    5.80    0.90
 -13   4  14   56.39    2.50
 -13   4  14   49.20    3.00
  12  -4 -14  225.08    6.60
 -12   4  14  207.68    7.20
 -12   4  14  213.68    6.70
  11  -4 -14   20.90    1.50
 -11   4  14   19.60    2.20
 -11   4  14   21.70    1.80
  10  -4 -14  119.99    3.80
 -10   4  14  116.19    4.00
 -10   4  14  111.89    4.50
   9  -4 -14  264.57    8.00
  -9   4  14  264.67    8.60
  -9   4  14  282.17    8.20
   8  -4 -14  166.78    4.90
  -8   4  14  151.88    5.20
   7  -4 -14  118.39    3.80
  -7   4  14  119.69    4.50
  -7   4  14  112.69    4.10
   6  -4 -14   17.30    1.40
  -6   4  14   19.70    2.10
  -6   4  14   18.50    2.20
   5  -4 -14  445.46   13.00
  -5   4  14  445.36   13.60
  -5   4  14  457.25   13.30
   4  -4 -14  214.08    6.70
  -4   4  14  224.68    7.30
  -4   4  14  213.88    6.90
   3  -4 -14    3.10    0.80
  -3   4  14    5.00    1.00
  -3   4  14    5.30    1.00
   2  -4 -14   -0.30    0.70
  -2   4  14    0.20    0.90
  -2   4  14   -0.10    0.90
  -1   4  14  171.88    5.90
  -1   4  14  171.48    6.20
   0  -4 -14  362.66   10.70
   0   4  14  345.27   10.80
   0   4  14  348.47   11.20
  -1  -4 -14    4.50    1.10
   1   4  14    5.20    1.40
   1   4  14    4.20    1.20
  -2  -4 -14  100.59    4.20
   2   4  14  104.09    6.70
  -3  -4 -14  221.38    7.50
   3   4  14  221.78    8.00
 -18   5  14   27.60    3.70
 -17   5  14   29.80    3.40
 -16   5  14   27.80    3.10
 -16   5  14   27.80    2.40
 -15   5  14  321.97   10.40
 -15   5  14  318.87    9.60
 -14   5  14  166.88    6.20
 -14   5  14  173.68    5.50
  13  -5 -14   48.80    2.30
 -13   5  14   45.50    3.10
 -13   5  14   48.10    2.40
  12  -5 -14    0.10    0.50
 -12   5  14    0.80    0.70
 -12   5  14   -0.30    1.00
  11  -5 -14    0.40    0.50
 -11   5  14    1.10    0.90
  10  -5 -14   24.10    1.50
 -10   5  14   26.90    2.40
 -10   5  14   19.60    1.90
   9  -5 -14   35.10    1.70
  -9   5  14   36.50    2.60
  -9   5  14   39.00    2.20
   8  -5 -14   11.40    1.20
  -8   5  14   10.60    2.10
  -8   5  14   10.80    1.80
   7  -5 -14  347.87   10.50
  -7   5  14  374.06   11.40
  -7   5  14  371.66   10.80
   6  -5 -14  343.27   10.40
  -6   5  14  366.46   10.70
  -6   5  14  359.76   11.20
   5  -5 -14   64.79    2.60
  -5   5  14   68.49    3.10
  -5   5  14   69.69    3.40
   4  -5 -14  393.66   11.40
  -4   5  14  391.06   11.70
  -4   5  14  387.76   12.20
   3  -5 -14   19.20    1.80
  -3   5  14   20.60    2.30
  -3   5  14   23.40    2.60
   2  -5 -14   43.00    2.30
  -2   5  14   37.60    3.00
  -2   5  14   39.40    2.70
  -1   5  14   74.49    3.50
  -1   5  14   71.89    4.00
   0  -5 -14   23.50    2.40
   0   5  14   25.50    2.80
   0   5  14   21.10    3.10
  -1  -5 -14   59.69    3.20
   1   5  14   58.79    3.60
   1   5  14   55.19    3.90
  -2  -5 -14   17.50    2.80
   2   5  14   14.30    1.90
  -3  -5 -14  236.78    7.90
   3   5  14  233.48    8.60
 -17   6  14   43.00    3.80
 -16   6  14    0.10    0.90
 -16   6  14   -1.20    1.10
 -15   6  14   11.50    1.60
 -14   6  14  189.18    5.90
 -14   6  14  175.18    6.70
  13  -6 -14  118.99    4.00
 -13   6  14  114.69    4.90
 -13   6  14  115.89    4.10
  12  -6 -14  172.18    5.40
 -12   6  14  166.38    6.20
 -12   6  14  170.78    5.50
  11  -6 -14  286.57    8.50
 -11   6  14  281.17    9.30
 -11   6  14  291.47    8.70
  10  -6 -14    2.70    0.60
 -10   6  14    2.30    0.80
 -10   6  14    3.80    0.90
   9  -6 -14   23.90    1.40
  -9   6  14   20.60    2.10
  -9   6  14   26.50    2.50
   8  -6 -14   -0.20    0.40
  -8   6  14    1.60    1.00
  -8   6  14    0.60    0.80
   7  -6 -14  465.25   13.30
  -7   6  14  457.75   14.20
  -7   6  14  470.45   13.60
   6  -6 -14  421.56   12.00
  -6   6  14  414.66   13.00
  -6   6  14  414.96   12.30
   5  -6 -14  208.98    6.40
  -5   6  14  211.18    6.70
  -5   6  14  211.48    7.30
   4  -6 -14  103.49    3.60
  -4   6  14  104.69    4.10
  -4   6  14  104.39    4.60
   3  -6 -14    8.00    0.90
  -3   6  14    6.30    1.20
  -3   6  14    6.30    1.10
   2  -6 -14    3.20    0.80
  -2   6  14    4.80    1.10
  -2   6  14    2.00    1.20
   1  -6 -14   49.10    4.20
  -1   6  14   47.20    3.10
  -1   6  14   47.50    3.70
   0  -6 -14   -0.30    1.00
   0   6  14    0.60    1.30
   0   6  14    3.60    1.20
  -1  -6 -14  140.69    5.20
   1   6  14  140.49    6.10
  -2  -6 -14  127.19    5.10
   2   6  14  125.09    6.00
 -17   7  14  148.79    6.30
 -16   7  14   28.10    2.70
 -16   7  14   26.80    3.40
 -15   7  14  169.98    6.60
 -15   7  14  163.68    5.60
 -14   7  14   74.19    4.20
 -14   7  14   79.59    3.20
 -13   7  14  127.59    5.40
 -13   7  14  133.09    4.50
  12  -7 -14   29.20    1.80
 -12   7  14   27.50    2.90
 -12   7  14   26.60    2.20
  11  -7 -14    3.90    0.60
 -11   7  14    4.10    1.10
 -11   7  14    2.90    0.90
 -10   7  14    6.30    1.10
   9  -7 -14   95.89    3.20
  -9   7  14   97.79    3.70
  -9   7  14   96.19    4.30
   8  -7 -14   90.29    3.00
  -8   7  14   87.89    4.20
  -8   7  14   90.29    3.50
   7  -7 -14   18.30    1.30
  -7   7  14   20.90    2.20
  -7   7  14   21.50    2.70
   6  -7 -14  357.76   10.30
  -6   7  14  350.26   11.40
  -6   7  14  355.26   10.60
   5  -7 -14   73.99    2.70
  -5   7  14   74.19    3.90
  -5   7  14   74.09    3.30
   4  -7 -14    3.70    0.70
  -4   7  14    3.50    1.20
  -4   7  14    5.00    1.00
   3  -7 -14   65.69    2.70
  -3   7  14   59.09    3.10
  -3   7  14   59.89    3.80
   2  -7 -14   -0.10    0.80
  -2   7  14    2.30    1.40
  -2   7  14   -0.90    1.00
   1  -7 -14  127.39    4.90
  -1   7  14  118.89    5.60
   0  -7 -14    9.00    1.20
   0   7  14   10.30    1.80
  -1  -7 -14    0.30    1.20
   1   7  14    0.60    1.80
 -16   8  14   12.10    1.70
 -15   8  14   21.70    3.30
 -14   8  14    0.30    1.30
 -14   8  14   -0.80    1.50
 -13   8  14  169.08    5.70
 -13   8  14  173.48    6.60
 -12   8  14   22.00    2.30
 -12   8  14   23.80    2.90
  11  -8 -14   57.89    2.30
 -11   8  14   47.50    3.40
 -11   8  14   49.30    2.80
  10  -8 -14    5.60    0.60
 -10   8  14    6.20    1.20
   9  -8 -14  148.29    4.40
  -9   8  14  133.09    5.00
   8  -8 -14   71.39    2.40
  -8   8  14   64.99    3.00
  -8   8  14   69.79    3.80
   7  -8 -14    3.00    0.50
  -7   8  14    4.30    1.20
  -7   8  14    3.90    1.10
   6  -8 -14   81.69    2.70
  -6   8  14   67.99    3.80
  -6   8  14   79.09    4.10
   5  -8 -14   98.09    3.20
  -5   8  14   88.19    4.60
  -5   8  14   95.49    3.80
   4  -8 -14  163.98    5.00
  -4   8  14  151.58    5.30
  -4   8  14  155.58    6.30
   3  -8 -14    5.40    0.80
  -3   8  14    4.70    1.20
  -3   8  14    4.00    1.40
   2  -8 -14    2.00    0.90
  -2   8  14    1.20    1.40
   1  -8 -14   99.29    3.90
  -1   8  14   90.69    5.30
   0  -8 -14    0.00    1.10
   0   8  14    0.10    1.90
 -16   9  14   -0.50    1.30
 -15   9  14   81.39    4.60
 -14   9  14   32.70    3.40
 -13   9  14   -0.10    1.10
 -12   9  14   22.40    2.90
 -11   9  14   57.19    3.60
  10  -9 -14    4.60    0.60
 -10   9  14    3.30    1.10
  -9   9  14    5.20    1.30
  -8   9  14   69.39    3.90
  -7   9  14  116.59    5.20
   6  -9 -14   68.89    2.40
  -6   9  14   71.49    4.20
   5  -9 -14   59.69    2.30
  -5   9  14   54.69    4.00
   4  -9 -14    0.30    0.70
  -4   9  14   -1.00    1.30
   3  -9 -14    4.50    1.10
  -3   9  14    3.40    1.50
  -2   9  14   70.99    4.90
 -15  10  14    8.80    1.60
 -14  10  14   33.90    3.50
 -13  10  14    7.70    1.30
 -12  10  14   51.59    3.70
 -11  10  14  217.88    8.00
 -10  10  14   23.90    3.00
  -9  10  14   23.30    3.00
  -8  10  14    0.60    1.30
  -7  10  14  131.39    5.90
  -6  10  14    6.50    1.60
  -5  10  14    1.20    1.40
  -4  10  14   93.09    5.20
  -3  10  14   87.49    5.30
 -12  11  14   33.30    3.40
 -11  11  14    0.40    1.10
 -10  11  14    3.30    1.20
  -9  11  14   67.99    4.10
  -8  11  14   70.29    4.30
  -7  11  14   54.59    4.10
  -6  11  14   -0.40    1.50
  -5  11  14   88.29    5.20
   6  15 -15  276.07    8.60
   5  15 -15  124.89    4.40
   4  15 -15    3.60    0.80
   3  15 -15   32.90    2.20
   2  15 -15    4.20    0.90
   1  15 -15   54.49    2.80
   0  15 -15    0.40    0.80
  -1  15 -15   68.19    3.30
   8  14 -15   -0.40    0.70
   7  14 -15    1.60    0.70
   6  14 -15  208.08    6.70
   5  14 -15  146.39    5.00
   4  14 -15    0.40    0.70
   3  14 -15    4.90    0.80
   2  14 -15   93.29    3.70
   1  14 -15   46.40    2.60
   0  14 -15    5.60    0.90
  -1  14 -15   -0.70    0.80
  -2  14 -15  388.16   11.90
  -3  14 -15  101.09    4.30
  10  13 -15   -0.30    0.70
   9  13 -15   38.10    2.30
   8  13 -15  109.59    4.10
   7  13 -15  115.29    4.10
   6  13 -15  106.69    3.90
   5  13 -15   39.20    2.20
   4  13 -15  194.88    6.30
   3  13 -15  202.18    6.50
   2  13 -15    0.20    0.60
   1  13 -15    2.50    0.80
   0  13 -15  309.67    9.60
  -1  13 -15   12.10    2.00
  -2  13 -15   42.10    2.70
  -3  13 -15    3.90    1.10
  -4  13 -15   82.89    3.90
  11  12 -15    1.00    0.80
  10  12 -15   51.99    2.60
   9  12 -15    0.30    0.70
   8  12 -15  143.09    4.90
   7  12 -15    8.80    1.50
   6  12 -15   43.80    2.30
   5  12 -15   27.80    1.90
   4  12 -15  377.56   11.30
   3  12 -15  144.29    4.90
   2  12 -15   15.80    1.80
   1  12 -15   61.09    2.90
   0  12 -15   67.59    3.20
  -1  12 -15   47.20    2.70
  -2  12 -15   -0.30    0.80
   2 -12  15   -1.20    3.00
  -3  12 -15    7.30    1.20
   3 -12  15    9.10    2.20
  -4  12 -15  209.88    7.20
  12  11 -15    8.60    1.10
  11  11 -15   80.99    3.40
  10  11 -15  320.77    9.90
   9  11 -15  259.87    8.10
   8  11 -15  197.08    6.30
   7  11 -15   17.90    1.60
   6  11 -15  465.55   13.70
   5  11 -15  477.95   14.10
   4  11 -15   48.00    2.40
   3  11 -15   55.69    2.60
   2  11 -15  760.32   22.00
   1  11 -15  101.49    3.90
   0  11 -15   34.20    2.40
  -1  11 -15   52.19    2.80
   1 -11  15   56.79    4.60
  -2  11 -15  477.15   14.40
   2 -11  15  479.75   15.30
  -3  11 -15  187.98    6.50
   3 -11  15  188.98    7.90
  -4  11 -15    2.40    1.00
   4 -11  15    6.30    3.10
  -5  11 -15    3.00    1.00
  13  10 -15    2.00    1.00
  12  10 -15   58.59    2.80
  11  10 -15    3.10    0.80
  10  10 -15   37.70    2.20
   9  10 -15   20.20    1.70
   8  10 -15  100.49    3.70
   7  10 -15  193.68    6.20
   6  10 -15   74.69    3.00
   5  10 -15  138.19    4.70
   4  10 -15  104.19    3.80
   3  10 -15    1.80    0.70
   2  10 -15  223.88    7.10
   1  10 -15  118.99    4.30
   0  10 -15  117.69    4.40
  -1  10 -15   19.10    2.10
  -2  10 -15  166.48    5.80
   2 -10  15  171.48    7.10
  -3  10 -15  136.59    5.20
   3 -10  15  145.89    6.50
  -4  10 -15   -0.70    0.90
   4 -10  15    1.00    2.10
  -5  10 -15   -0.10    1.00
  13   9 -15  152.08    5.30
  12   9 -15  211.58    6.90
  11   9 -15   96.89    3.70
  10   9 -15   25.50    1.90
   9   9 -15  152.78    5.10
   8   9 -15  121.99    4.20
   7   9 -15  139.39    4.60
   6   9 -15   46.80    2.20
   5   9 -15  386.86   11.50
   4   9 -15    2.10    0.60
   3   9 -15    3.00    0.70
   2   9 -15    2.00    0.70
   1   9 -15   10.20    1.70
   0   9 -15   54.19    2.70
  -1   9 -15    5.70    0.90
  -2   9 -15  102.79    4.10
  -3   9 -15   41.60    2.70
  -4   9 -15  364.66   11.40
   4  -9  15  369.96   12.20
  -5   9 -15  198.38    6.90
  14   8 -15   23.60    2.10
  13   8 -15   52.39    2.70
  12   8 -15    3.50    0.80
  11   8 -15    0.60    0.60
  10   8 -15  134.79    4.60
   9   8 -15  137.39    4.60
   8   8 -15   36.50    2.00
   7   8 -15   13.70    1.40
   6   8 -15   42.70    2.10
   5   8 -15    2.40    0.60
   4   8 -15    0.70    0.60
   3   8 -15   72.79    3.00
   2   8 -15   13.80    1.70
   1   8 -15    9.50    1.70
   0   8 -15  165.48    5.60
  -1   8 -15   -0.90    0.70
  -2   8 -15  107.09    4.20
  -3   8 -15    2.00    0.90
  -4   8 -15  223.58    7.60
   4  -8  15  234.68    8.50
  -5   8 -15   69.99    3.60
  15   7 -15    6.80    1.30
  14   7 -15    9.60    1.70
  13   7 -15   14.80    1.70
  12   7 -15  114.89    4.20
  11   7 -15   28.50    1.90
  10   7 -15  262.27    8.10
   9   7 -15  235.98    7.30
   8   7 -15    0.20    0.50
   7   7 -15    1.50    0.60
   6   7 -15    3.60    0.60
  -6  -7  15    4.20    0.80
   5   7 -15   18.30    1.50
  -5  -7  15   14.10    1.80
   4   7 -15   37.20    2.00
  -4  -7  15   35.90    2.30
   3   7 -15  172.48    5.60
  -3  -7  15  174.28    5.90
   2   7 -15  419.06   12.50
   1   7 -15   75.19    3.10
   0   7 -15    1.20    0.80
  -1   7 -15   30.50    2.30
  -2   7 -15  160.68    5.60
  -3   7 -15   70.39    3.40
  -4   7 -15   -0.90    0.90
  15   6 -15    0.10    0.70
  14   6 -15    5.00    0.90
  13   6 -15   87.09    3.50
  12   6 -15  381.46   11.40
  11   6 -15  155.88    5.20
  10   6 -15    0.40    0.50
   9   6 -15  383.96   11.40
   8   6 -15  437.96   12.80
  -8  -6  15  433.36   13.00
   7   6 -15    6.40    0.70
  -7  -6  15    5.70    0.80
   6   6 -15    2.30    0.60
  -6  -6  15    2.70    0.70
   5   6 -15    0.00    0.50
  -5  -6  15    0.30    0.70
   4   6 -15  226.48    6.90
  -4  -6  15  215.18    7.10
   3   6 -15  240.68    7.30
  -3  -6  15  229.18    7.50
   2   6 -15    5.90    0.80
  -2  -6  15    4.50    0.90
   1   6 -15   14.20    1.80
   0   6 -15    2.80    0.80
  -1   6 -15    3.80    0.90
  -2   6 -15  242.28    7.80
  -3   6 -15   -0.50    0.90
   3  -6  15    0.00    0.70
  -4   6 -15    9.00    1.20
  -5   6 -15    6.00    1.20
  -6   6 -15  106.59    5.40
  16   5 -15   24.60    2.10
  15   5 -15   34.50    2.40
  14   5 -15  165.98    5.60
  13   5 -15  147.89    5.00
  12   5 -15   44.60    2.30
  11   5 -15   19.30    1.70
  10   5 -15   50.39    2.30
   9   5 -15   54.49    2.40
  -9  -5  15   51.99    2.50
   8   5 -15  187.78    5.80
  -8  -5  15  183.78    6.00
   7   5 -15   12.00    1.40
  -7  -5  15   10.70    1.60
   6   5 -15    3.50    0.70
  -6  -5  15    2.60    0.70
   5   5 -15    2.30    0.60
  -5  -5  15    1.00    0.70
   4   5 -15   11.20    1.50
  -4  -5  15    7.30    1.00
   3   5 -15  326.27    9.80
  -3  -5  15  325.47   10.00
   2   5 -15   51.29    2.50
  -2  -5  15   51.99    2.70
   1   5 -15  516.35   15.20
  -1  -5  15  520.55   15.60
   0   5 -15  363.26   11.00
  -1   5 -15    0.20    0.70
  -2   5 -15  157.58    5.60
   2  -5  15  161.28    5.20
  -3   5 -15   65.39    3.40
   3  -5  15   73.29    2.90
  -4   5 -15    7.90    1.20
   4  -5  15   10.50    1.80
  -5   5 -15   32.00    2.80
  16   4 -15    1.40    0.70
  15   4 -15   51.79    2.70
  14   4 -15   71.69    3.00
  13   4 -15    0.30    0.60
  12   4 -15   26.70    1.90
  11   4 -15    2.20    0.60
  10   4 -15  522.45   15.00
 -10  -4  15  508.15   15.10
   9   4 -15   63.69    2.50
  -9  -4  15   59.69    2.70
   8   4 -15   49.10    2.10
  -8  -4  15   45.50    2.40
   7   4 -15   11.70    1.40
  -7  -4  15   11.30    1.60
   6   4 -15   15.90    1.50
  -6  -4  15   17.40    1.80
   5   4 -15    0.60    0.50
  -5  -4  15    0.30    0.70
   4   4 -15   22.00    1.70
  -4  -4  15   25.70    2.10
   3   4 -15  287.47    8.70
  -3  -4  15  283.27    8.90
   2   4 -15   40.70    2.20
  -2  -4  15   39.60    2.50
   1   4 -15    0.70    0.70
  -1  -4  15    0.80    0.80
   0   4 -15   49.80    2.70
   0  -4  15   49.30    2.40
  -1   4 -15    1.40    0.80
   1  -4  15    1.20    0.70
  -2   4 -15   38.90    2.70
   2  -4  15   40.00    2.20
  -3   4 -15   19.20    2.40
   3  -4  15   20.60    1.90
  -4   4 -15   15.10    2.40
   4  -4  15   19.20    2.10
  -5   4 -15   27.60    2.70
  16   3 -15   60.49    2.90
  15   3 -15  146.69    5.10
  14   3 -15   70.79    3.00
  13   3 -15   63.29    2.80
  12   3 -15  192.18    6.10
  11   3 -15  423.26   12.70
 -11  -3  15  437.16   13.00
  10   3 -15   63.29    2.50
 -10  -3  15   57.29    2.60
   9   3 -15   34.70    1.80
  -9  -3  15   31.80    2.00
   8   3 -15   19.80    1.50
  -8  -3  15   19.00    1.70
   7   3 -15   82.49    3.00
  -7  -3  15   82.09    3.30
   6   3 -15   12.10    1.40
  -6  -3  15   12.80    1.70
   5   3 -15    0.30    0.50
  -5  -3  15    0.00    0.70
   4   3 -15    0.40    0.60
  -4  -3  15    1.40    0.80
   3   3 -15  153.68    5.10
  -3  -3  15  154.98    5.30
   2   3 -15  783.22   22.40
  -2  -3  15  768.82   22.40
  -2  -3  15  780.02   22.60
   1   3 -15  469.25   13.80
  -1  -3  15  476.75   13.80
  -1  -3  15  453.85   13.90
   0   3 -15   80.99    3.40
   0  -3  15   81.19    3.20
  -1   3 -15   90.19    3.70
   1  -3  15   89.99    3.40
  -2   3 -15   23.50    2.30
   2  -3  15   27.60    2.10
  -3   3 -15    6.20    1.10
   3  -3  15    5.00    0.90
  -4   3 -15    4.70    1.10
   4  -3  15    3.50    1.00
  -5   3 -15  213.98    7.40
 -17  -2  15  243.38    8.30
  16   2 -15   53.79    2.70
 -16  -2  15   45.20    3.20
  15   2 -15    3.80    0.80
  14   2 -15   27.80    2.00
  13   2 -15  381.06   11.40
  12   2 -15  321.87    9.70
  11   2 -15    1.50    0.60
 -11  -2  15    2.20    0.70
  10   2 -15    4.30    0.60
 -10  -2  15    3.30    0.70
   9   2 -15   53.69    2.30
  -9  -2  15   54.39    2.50
   8   2 -15  700.53   20.10
  -8  -2  15  703.03   20.30
   7   2 -15   10.00    1.30
  -7  -2  15    6.80    0.90
   6   2 -15   14.50    1.40
  -6  -2  15   14.30    1.80
   5   2 -15  148.49    4.80
  -5  -2  15  145.59    5.10
   4   2 -15  292.57    8.50
  -4  -2  15  260.97    9.20
  -4  -2  15  286.97    8.70
   3   2 -15    1.80    0.70
  -3  -2  15    1.60    0.80
  -3  -2  15    1.70    0.80
   2   2 -15    1.30    0.70
  -2  -2  15    0.90    0.70
  -2  -2  15    0.60    0.80
   1   2 -15  240.38    7.50
  -1  -2  15  236.38    7.70
  -1  -2  15  238.38    7.40
   0   2 -15  183.48    6.10
   0  -2  15  188.08    6.70
   0  -2  15  182.78    6.00
  -1   2 -15    0.50    0.90
   1  -2  15    0.60    0.70
  -2   2 -15    7.70    1.10
   2  -2  15    7.50    1.00
  -3   2 -15   -1.30    0.90
   3  -2  15   -0.50    0.90
  -5   2 -15   18.00    2.80
 -17  -1  15   95.89    4.50
  16   1 -15   47.50    2.60
 -16  -1  15   41.80    3.20
  15   1 -15    0.50    0.70
 -15  -1  15    0.00    0.90
  14   1 -15   32.90    2.00
 -14  -1  15   33.60    2.60
  13   1 -15   79.99    3.20
 -13  -1  15   83.49    3.70
  12   1 -15  232.98    7.20
 -12  -1  15  222.98    7.30
 -12  -1  15  246.28    7.70
  11   1 -15   37.30    2.00
 -11  -1  15   35.50    2.00
 -11  -1  15   39.20    2.40
  10   1 -15   23.10    1.60
 -10  -1  15   21.90    1.80
 -10  -1  15   21.80    2.10
   9   1 -15    3.70    0.60
  -9  -1  15    3.50    0.80
  -9  -1  15    3.30    0.80
   8   1 -15  220.98    6.60
  -8  -1  15  213.08    6.80
  -8  -1  15  210.08    7.00
   7   1 -15  190.88    6.70
  -7  -1  15  202.48    6.40
  -7  -1  15  209.28    6.60
  -6  -1  15   19.30    2.00
  -6  -1  15   18.80    1.90
   5   1 -15  256.27    8.40
  -5  -1  15  282.07    8.40
  -5  -1  15  275.07    8.50
   4   1 -15  624.44   17.90
  -4  -1  15  635.34   18.10
  -4  -1  15  601.24   18.30
   3   1 -15   12.40    1.70
  -3  -1  15   12.80    2.10
  -3  -1  15   12.90    2.20
   2   1 -15   35.00    2.20
  -2  -1  15   36.00    2.50
  -2  -1  15   33.30    2.10
   1   1 -15  379.06   11.30
  -1  -1  15  381.96   11.30
  -1  -1  15  364.76   11.40
   0   1 -15  331.07   10.20
   0  -1  15  339.57   10.20
   0  -1  15  335.27   10.50
  -1   1 -15  111.09    4.30
   1  -1  15  105.49    4.10
  -2   1 -15    2.20    1.00
   2  -1  15    2.80    1.00
  -3   1 -15    5.20    1.10
   3  -1  15    5.70    1.10
  -5   1 -15   53.49    3.50
 -17   0  15    0.20    1.10
 -16   0  15   18.80    2.70
  15   0 -15  346.47   10.50
 -15   0  15  341.97   10.80
  14   0 -15    4.40    0.80
 -14   0  15    4.60    1.10
  13   0 -15   39.10    2.10
 -13   0  15   38.10    2.30
 -13   0  15   42.20    2.70
  12   0 -15   26.00    1.80
 -12   0  15   24.50    2.30
 -12   0  15   24.40    1.80
  11   0 -15   58.29    2.50
 -11   0  15   62.49    3.00
 -11   0  15   58.39    2.60
  10   0 -15  226.08    7.00
 -10   0  15  238.08    7.50
 -10   0  15  225.28    7.10
   9   0 -15  171.08    5.70
  -9   0  15  180.88    6.00
  -9   0  15  180.28    5.80
   8   0 -15  546.15   17.40
  -8   0  15  633.04   17.60
  -8   0  15  608.04   17.30
   7   0 -15  287.67    8.70
  -7   0  15  297.77    9.10
  -7   0  15  288.07    8.90
   6   0 -15  375.06   11.00
  -6   0  15  378.46   11.40
  -6   0  15  370.66   11.20
   5   0 -15  122.39    4.40
  -5   0  15  122.19    4.40
  -5   0  15  123.49    4.40
   4   0 -15   30.80    2.40
  -4   0  15   37.00    2.20
  -4   0  15   33.60    2.40
   3   0 -15  180.58    5.60
  -3   0  15  173.28    5.80
  -3   0  15  156.98    6.70
   2   0 -15  248.08    7.60
  -2   0  15  246.98    7.90
  -2   0  15  238.08    7.80
   1   0 -15  241.18    7.60
  -1   0  15  245.48    7.70
  -1   0  15  236.78    7.80
   0   0 -15   17.60    2.20
   0   0  15   18.30    2.10
   0   0  15   20.10    2.30
  -1   0 -15   41.70    2.70
   1   0  15   44.00    2.80
  -2   0 -15    2.70    1.00
   2   0  15    3.90    1.10
  -3   0 -15   24.30    2.60
   3   0  15   24.40    2.80
  -4   0 -15    1.30    1.10
 -17   1  15    0.10    1.00
 -16   1  15   31.10    3.00
  15  -1 -15  247.68    7.80
 -15   1  15  247.68    8.20
  14  -1 -15   -0.60    0.60
 -14   1  15    0.30    0.80
  13  -1 -15    3.20    0.70
 -13   1  15    2.30    0.90
 -13   1  15    2.90    0.70
  12  -1 -15   -0.70    0.50
 -12   1  15   -0.60    0.80
 -12   1  15    0.10    0.70
  11  -1 -15   56.39    2.40
 -11   1  15   54.19    2.50
 -11   1  15   57.29    2.90
  10  -1 -15    0.40    0.60
 -10   1  15   -0.60    0.70
 -10   1  15    0.40    0.70
   9  -1 -15  182.28    5.60
  -9   1  15  185.48    5.80
  -9   1  15  174.28    6.10
   8  -1 -15   43.60    2.00
  -8   1  15   40.10    2.40
  -8   1  15   46.40    2.60
   7  -1 -15  544.75   15.50
  -7   1  15  532.85   15.80
  -7   1  15  540.05   15.90
   6  -1 -15  266.87    7.90
  -6   1  15  260.17    8.20
  -6   1  15  262.67    8.30
   5  -1 -15   62.89    2.60
  -5   1  15   62.69    2.90
  -5   1  15   59.29    2.90
   4  -1 -15   -0.80    0.80
  -4   1  15    0.30    0.70
  -4   1  15    1.40    0.90
   3  -1 -15  267.97    8.10
  -3   1  15  263.07    8.30
  -3   1  15  257.87    8.30
   2  -1 -15   37.00    2.30
  -2   1  15   37.60    3.00
  -2   1  15   37.40    2.50
   1  -1 -15   14.40    2.10
  -1   1  15   17.70    2.50
  -1   1  15   20.70    2.30
   0  -1 -15   50.79    2.80
   0   1  15   45.30    3.00
   0   1  15   51.19    3.10
  -1  -1 -15  160.08    5.60
   1   1  15  156.28    5.70
  -2  -1 -15   20.50    2.50
   2   1  15   17.00    2.70
  -3  -1 -15   -1.80    1.00
   3   1  15   -1.40    1.20
  -4  -1 -15    0.80    1.10
 -17   2  15  275.17    9.10
 -16   2  15  484.75   14.80
  15  -2 -15   48.30    2.50
 -15   2  15   41.80    3.10
  14  -2 -15    1.10    0.60
 -14   2  15    0.50    0.70
 -14   2  15    0.50    0.90
  13  -2 -15    2.90    0.70
 -13   2  15    4.10    0.80
 -13   2  15    3.60    1.00
  12  -2 -15   54.59    2.30
 -12   2  15   51.79    2.90
 -12   2  15   53.39    2.50
  11  -2 -15   81.59    3.40
 -11   2  15   89.49    3.70
 -11   2  15   87.29    3.30
  10  -2 -15   85.69    3.00
 -10   2  15   90.59    3.70
 -10   2  15   80.69    3.30
   9  -2 -15  751.52   22.50
  -9   2  15  801.42   22.80
  -9   2  15  823.42   23.10
   8  -2 -15  496.75   14.20
  -8   2  15  479.85   14.40
  -8   2  15  494.85   14.60
   7  -2 -15   33.90    1.80
  -7   2  15   38.10    2.40
  -7   2  15   29.00    2.40
   6  -2 -15   14.00    1.50
  -6   2  15   15.10    2.00
  -6   2  15   11.20    2.10
   5  -2 -15  649.14   18.50
  -5   2  15  638.84   18.90
  -5   2  15  642.24   18.70
   4  -2 -15   11.80    1.60
  -4   2  15   12.80    2.00
  -4   2  15   12.00    2.10
   3  -2 -15   13.60    2.20
  -3   2  15   15.60    2.10
  -3   2  15   17.30    2.10
   2  -2 -15  157.98    5.20
  -2   2  15  160.08    5.60
  -2   2  15  153.18    5.50
   1  -2 -15  342.77   10.20
  -1   2  15  335.97   10.60
  -1   2  15  331.87   10.40
   0  -2 -15  406.96   11.80
   0   2  15  370.76   11.90
  -1  -2 -15   26.40    2.50
   1   2  15   25.40    2.90
  -2  -2 -15   86.09    3.90
   2   2  15   86.39    4.30
  -3  -2 -15  345.27   10.10
   3   2  15  290.47   10.20
 -17   3  15   24.40    3.20
 -16   3  15    0.80    1.00
  15  -3 -15  229.18    7.10
 -15   3  15  221.98    7.70
  14  -3 -15    0.70    0.60
 -14   3  15    0.60    0.70
 -14   3  15    0.40    0.90
  13  -3 -15    4.70    0.70
 -13   3  15    4.60    0.90
 -13   3  15    6.10    1.10
  12  -3 -15   37.10    2.00
 -12   3  15   35.70    2.20
 -12   3  15   38.70    2.70
  11  -3 -15  112.29    3.80
 -11   3  15  113.99    4.10
 -11   3  15  117.09    4.50
  10  -3 -15    2.30    0.60
 -10   3  15    2.90    0.80
 -10   3  15    2.40    0.80
   9  -3 -15   17.60    1.40
  -9   3  15   13.60    2.00
  -9   3  15   16.50    2.20
   8  -3 -15    0.40    0.50
  -8   3  15    0.40    0.80
  -8   3  15    0.00    0.70
   7  -3 -15   45.80    2.00
  -7   3  15   45.60    2.50
  -7   3  15   40.30    2.70
   6  -3 -15   68.89    2.70
  -6   3  15   70.49    3.10
  -6   3  15   67.19    3.30
   5  -3 -15  114.69    3.80
  -5   3  15  112.99    4.20
  -5   3  15  109.69    4.40
   4  -3 -15  255.77    7.70
  -4   3  15  254.07    8.00
  -4   3  15  249.68    8.20
  -3   3  15   15.50    2.30
  -3   3  15   16.90    2.20
   2  -3 -15   42.50    2.40
  -2   3  15   37.50    2.90
  -2   3  15   44.10    2.80
   1  -3 -15    3.30    0.90
  -1   3  15    4.10    1.20
  -1   3  15    4.20    1.10
   0  -3 -15   19.80    2.30
   0   3  15   19.40    2.80
   0   3  15   26.40    2.80
  -1  -3 -15   -1.50    1.00
   1   3  15   -1.20    1.20
  -2  -3 -15   70.39    3.60
   2   3  15   66.49    6.30
  -3  -3 -15  130.59    5.20
 -17   4  15    0.80    1.30
 -16   4  15   56.89    3.70
 -15   4  15  206.38    7.30
 -15   4  15  206.78    6.60
  14  -4 -15    1.80    0.70
 -14   4  15   -1.10    1.00
 -14   4  15    0.90    0.80
  13  -4 -15   34.10    2.00
 -13   4  15   32.90    2.20
 -13   4  15   31.80    2.70
  12  -4 -15  219.08    6.90
 -12   4  15  229.18    7.00
 -12   4  15  217.58    7.50
  11  -4 -15   24.60    1.60
 -11   4  15   17.50    2.30
 -11   4  15   22.10    2.00
  10  -4 -15    0.50    0.50
 -10   4  15    0.40    0.90
 -10   4  15    0.00    0.80
   9  -4 -15    8.10    1.30
  -9   4  15    5.90    0.90
  -9   4  15   11.50    2.10
   8  -4 -15  550.54   16.00
  -8   4  15  558.14   16.70
  -8   4  15  566.14   16.30
   7  -4 -15  594.64   17.20
  -7   4  15  620.54   17.50
  -7   4  15  586.74   17.90
   6  -4 -15  272.87    7.90
  -6   4  15  253.07    8.60
  -6   4  15  268.07    8.30
   5  -4 -15  170.08    5.30
  -5   4  15  171.78    5.70
  -5   4  15  164.38    6.00
   4  -4 -15   -0.70    0.60
  -4   4  15    0.70    0.90
  -4   4  15    0.30    0.90
   3  -4 -15    1.20    0.70
  -3   4  15    2.40    1.00
  -3   4  15    1.30    1.00
   2  -4 -15    0.40    0.80
  -2   4  15    2.20    1.00
  -2   4  15    1.20    1.00
   1  -4 -15   33.50    2.50
  -1   4  15   34.20    2.90
  -1   4  15   27.60    3.00
   0  -4 -15  251.07    7.80
   0   4  15  245.78    8.40
   0   4  15  232.18    8.00
  -1  -4 -15  365.66   11.10
   1   4  15  353.96   11.60
  -2  -4 -15   22.60    2.90
   2   4  15   23.50    3.80
 -17   5  15  242.28    8.60
 -16   5  15  180.88    6.80
 -15   5  15   -1.10    1.10
 -15   5  15    0.90    0.90
  14  -5 -15   10.20    1.70
 -14   5  15    6.70    1.00
 -14   5  15    6.40    1.20
  13  -5 -15    7.00    1.00
 -13   5  15    6.00    1.10
  12  -5 -15   44.50    2.10
 -12   5  15   38.60    2.90
 -12   5  15   40.70    2.40
  11  -5 -15   28.60    1.70
 -11   5  15   27.10    2.30
 -11   5  15   33.20    2.60
  10  -5 -15   33.90    1.80
 -10   5  15   33.50    2.70
 -10   5  15   31.40    2.40
   9  -5 -15  826.72   23.90
  -9   5  15  856.21   24.20
  -9   5  15  844.22   24.70
   8  -5 -15   18.40    1.50
  -8   5  15   16.10    2.30
  -8   5  15   18.30    2.40
   7  -5 -15  698.03   19.70
  -7   5  15  682.43   20.50
  -7   5  15  686.53   19.90
   6  -5 -15  254.27    7.70
  -6   5  15  263.77    8.60
  -6   5  15  260.57    8.20
   5  -5 -15   51.19    2.40
  -5   5  15   55.89    3.10
  -5   5  15   58.39    3.30
   4  -5 -15    6.10    0.80
  -4   5  15    6.00    1.20
  -4   5  15    6.80    1.10
   3  -5 -15    6.60    0.90
  -3   5  15    6.80    1.20
  -3   5  15    5.90    1.20
   2  -5 -15   11.10    1.90
  -2   5  15    6.80    1.30
  -2   5  15    8.00    1.30
   1  -5 -15  267.57    8.00
  -1   5  15  249.08    8.70
  -1   5  15  242.38    8.20
   0  -5 -15    6.10    1.20
   0   5  15    6.80    1.60
   0   5  15    7.80    1.40
  -1  -5 -15  206.28    6.90
   1   5  15  200.88    7.70
 -17   6  15   21.90    3.50
 -16   6  15   49.60    3.20
 -16   6  15   52.89    3.80
 -15   6  15   68.69    4.00
 -15   6  15   69.59    3.30
 -14   6  15    1.10    0.90
 -14   6  15    2.70    1.10
  13  -6 -15   28.40    2.00
 -13   6  15   24.80    2.70
 -13   6  15   25.50    2.30
  12  -6 -15    5.40    0.70
 -12   6  15    4.90    1.00
 -12   6  15    4.60    0.90
  11  -6 -15   49.30    2.10
 -11   6  15   42.10    2.60
 -11   6  15   41.10    3.10
  10  -6 -15    1.90    0.60
 -10   6  15    2.40    0.90
 -10   6  15    2.00    0.90
   9  -6 -15  178.48    5.50
  -9   6  15  181.68    5.90
   8  -6 -15  251.37    7.30
  -8   6  15  242.08    7.70
  -8   6  15  247.78    8.30
   7  -6 -15   -0.10    0.60
  -7   6  15    1.10    1.00
  -7   6  15    1.80    1.00
   6  -6 -15    6.40    0.80
  -6   6  15    6.80    1.10
  -6   6  15    7.40    1.40
   5  -6 -15   37.80    2.00
  -5   6  15   38.90    3.10
  -5   6  15   39.50    2.80
   4  -6 -15   10.80    1.70
  -4   6  15    8.80    1.20
  -4   6  15    8.40    1.40
   3  -6 -15   54.09    2.60
  -3   6  15   50.69    3.20
  -3   6  15   50.89    3.60
   2  -6 -15   72.09    3.20
  -2   6  15   72.49    3.70
  -2   6  15   70.59    4.30
   1  -6 -15  349.57   10.20
  -1   6  15  314.67   10.40
  -1   6  15  331.77   11.10
   0  -6 -15   78.39    3.70
   0   6  15   68.69    4.20
   0   6  15   71.09    4.70
 -16   7  15   60.09    4.20
 -15   7  15    5.70    1.40
 -14   7  15    1.80    1.20
 -14   7  15    0.60    1.00
 -13   7  15   50.79    3.50
 -13   7  15   38.40    2.80
  12  -7 -15  123.39    4.10
 -12   7  15  114.79    4.40
 -12   7  15  118.39    5.10
  11  -7 -15  226.68    6.80
 -11   7  15  228.38    7.90
 -11   7  15  218.48    7.10
  10  -7 -15    0.50    0.60
 -10   7  15    1.00    1.00
 -10   7  15    2.20    1.10
   9  -7 -15   57.19    2.30
  -9   7  15   64.59    3.10
  -9   7  15   57.79    3.60
   8  -7 -15    1.70    0.60
  -8   7  15    2.70    1.30
  -8   7  15    2.90    1.00
   7  -7 -15   54.19    2.20
  -7   7  15   51.79    3.50
  -7   7  15   57.59    3.00
   6  -7 -15    3.70    0.70
  -6   7  15    3.90    1.30
  -6   7  15    5.80    1.10
   5  -7 -15    4.30    0.70
  -5   7  15    3.50    1.10
  -5   7  15    2.50    1.20
   4  -7 -15   12.80    1.70
  -4   7  15    7.70    1.40
  -4   7  15   15.00    2.70
   3  -7 -15   48.90    2.60
  -3   7  15   45.60    3.80
  -3   7  15   46.90    3.20
  -2   7  15    8.10    1.70
   1  -7 -15    4.60    1.10
  -1   7  15    1.50    1.70
 -15   8  15   35.50    3.60
 -14   8  15    5.60    1.50
 -13   8  15    1.00    1.10
 -12   8  15    5.90    1.20
  11  -8 -15  129.39    4.10
 -11   8  15  122.99    5.40
  10  -8 -15   -1.00    0.60
 -10   8  15    0.20    1.40
 -10   8  15    0.00    0.90
   9  -8 -15   27.30    1.60
  -9   8  15   28.90    2.90
  -9   8  15   21.30    3.10
   8  -8 -15  117.19    3.70
  -8   8  15  117.39    5.10
  -8   8  15  113.39    5.10
   7  -8 -15  171.58    5.10
  -7   8  15  162.18    6.50
   6  -8 -15   -1.10    0.60
  -6   8  15   -0.30    1.20
   5  -8 -15    1.40    0.70
  -5   8  15    0.00    1.20
   4  -8 -15   79.69    3.00
  -4   8  15   74.99    4.60
   3  -8 -15   31.70    2.30
  -3   8  15   29.70    3.80
   2  -8 -15    2.50    1.10
  -2   8  15    1.40    1.70
 -15   9  15  155.18    8.80
 -14   9  15    4.20    1.40
 -13   9  15    1.80    1.10
 -12   9  15    2.50    1.10
 -11   9  15   20.10    2.90
 -10   9  15   88.99    4.50
  -9   9  15    2.80    1.20
  -8   9  15   82.89    4.40
  -7   9  15    1.90    1.20
  -6   9  15   17.30    3.30
  -5   9  15   53.99    4.10
  -4   9  15    7.40    1.70
  -3   9  15   38.30    4.40
 -12  10  15   16.50    3.10
 -11  10  15   -1.10    1.20
 -10  10  15    8.20    1.60
  -9  10  15    1.30    1.10
  -8  10  15   58.29    4.10
  -7  10  15    1.30    1.30
  -6  10  15   68.79    4.60
  -5  10  15  120.39    6.00
   3  15 -16   38.90    2.40
   2  15 -16    1.60    0.80
   7  14 -16    5.50    0.90
   6  14 -16   24.30    2.00
   5  14 -16    2.60    0.70
   4  14 -16   81.49    3.30
   3  14 -16   12.50    1.90
   2  14 -16    5.90    0.90
   1  14 -16    0.70    0.80
   0  14 -16   27.00    2.40
  -1  14 -16    2.60    1.00
   9  13 -16  147.89    5.20
   8  13 -16    1.00    0.70
   7  13 -16    3.90    0.80
   6  13 -16  492.25   14.60
   5  13 -16  148.39    5.10
   4  13 -16   38.80    2.30
   3  13 -16   50.49    2.70
   2  13 -16  202.68    6.60
   1  13 -16   37.90    2.50
   0  13 -16   -1.20    0.70
  -1  13 -16  144.49    5.30
  -2  13 -16  659.13   19.50
  10  12 -16    1.20    0.80
   9  12 -16   63.09    2.90
   8  12 -16   50.59    2.50
   7  12 -16   34.40    2.10
   6  12 -16  236.28    7.40
   5  12 -16   51.49    2.60
   4  12 -16   -0.50    0.70
   3  12 -16  181.78    6.00
   2  12 -16  142.29    5.00
   1  12 -16    3.10    0.90
   0  12 -16  255.27    8.20
  -1  12 -16    5.20    1.00
  -2  12 -16   96.79    4.10
  -3  12 -16   57.59    3.30
  11  11 -16    0.70    0.70
  10  11 -16   18.10    1.90
   9  11 -16   91.19    3.60
   8  11 -16  528.05   15.50
   7  11 -16  157.98    5.30
   6  11 -16   25.70    1.90
   5  11 -16  143.19    4.90
   4  11 -16  306.67    9.40
   3  11 -16    0.00    0.70
   2  11 -16    5.30    0.90
   1  11 -16    4.00    0.90
   0  11 -16  184.08    6.20
  -1  11 -16   48.70    2.80
  -2  11 -16    0.70    0.90
   2 -11  16    1.10    2.10
  -3  11 -16   33.10    2.60
   3 -11  16   34.70    6.60
  12  10 -16  152.88    5.30
  11  10 -16    1.80    0.70
  10  10 -16  269.17    8.40
   9  10 -16   20.00    1.80
   8  10 -16  168.78    5.60
   7  10 -16   58.09    2.60
   6  10 -16   13.90    1.60
   5  10 -16   17.20    1.70
   4  10 -16  256.47    8.00
   3  10 -16   63.89    2.80
   2  10 -16    1.90    0.80
   1  10 -16   32.30    2.30
   0  10 -16  127.09    4.70
  -1  10 -16    1.30    0.80
  -2  10 -16   28.80    2.50
  -3  10 -16    4.10    1.10
   3 -10  16    7.30    2.30
  -4  10 -16  166.88    6.30
  13   9 -16   12.80    1.90
  12   9 -16    0.30    0.60
  11   9 -16  136.69    4.80
  10   9 -16  160.78    5.40
   9   9 -16  158.18    5.20
   8   9 -16   11.10    1.50
   7   9 -16  444.16   13.10
   6   9 -16  487.95   14.30
   5   9 -16   -0.10    0.60
   4   9 -16    2.10    0.70
   3   9 -16  273.47    8.50
   2   9 -16  786.32   22.80
   1   9 -16   23.70    2.10
   0   9 -16   90.89    3.70
  -1   9 -16   23.70    2.30
  -2   9 -16  397.56   12.20
  -3   9 -16    4.50    1.00
  -4   9 -16   31.40    2.60
  14   8 -16   34.90    2.80
  13   8 -16   31.90    2.20
  12   8 -16   78.29    3.30
  11   8 -16    9.20    1.60
  10   8 -16  114.69    4.10
   9   8 -16   71.69    2.90
   8   8 -16  308.77    9.30
   7   8 -16   -0.60    0.60
   6   8 -16    0.00    0.60
   5   8 -16   35.90    2.10
   4   8 -16   15.20    1.60
   3   8 -16   29.10    2.00
   2   8 -16  190.18    6.20
   1   8 -16   16.20    2.00
   0   8 -16  105.09    4.10
  -1   8 -16    1.30    0.80
  -2   8 -16  107.69    4.30
  -3   8 -16   16.90    2.30
  -4   8 -16    0.20    1.00
  13   7 -16   75.09    3.20
  12   7 -16  603.74   17.70
  11   7 -16  123.99    4.40
  10   7 -16   48.70    2.30
   9   7 -16    2.40    0.60
   8   7 -16    1.40    0.60
   7   7 -16   43.90    2.20
   6   7 -16  354.36   10.60
   5   7 -16  430.26   12.70
   4   7 -16  293.27    8.90
   3   7 -16    2.00    0.70
   2   7 -16   76.19    3.20
   1   7 -16  118.09    4.30
   0   7 -16   69.39    3.20
  -1   7 -16   20.20    2.20
  -2   7 -16  123.89    4.80
  -3   7 -16  279.97    9.00
  -4   7 -16  181.98    6.10
   4  -7  16  146.49    5.40
  15   6 -16    4.50    0.90
  14   6 -16  166.98    5.70
  13   6 -16   55.29    2.70
  12   6 -16    0.30    0.60
  11   6 -16   21.10    1.80
  10   6 -16    2.70    0.60
   9   6 -16    1.00    0.50
   8   6 -16    2.40    0.70
   7   6 -16    6.20    0.80
   6   6 -16   11.30    1.50
   5   6 -16    1.20    0.60
   4   6 -16   56.59    2.60
   3   6 -16    1.70    0.70
   2   6 -16   13.20    1.80
   1   6 -16  196.78    6.40
   0   6 -16   65.39    3.10
  -1   6 -16    2.30    0.90
  -2   6 -16    7.90    1.20
  -3   6 -16    6.20    1.20
   3  -6  16   11.20    2.00
  -4   6 -16    4.30    1.10
   4  -6  16    0.80    0.90
  15   5 -16    0.70    0.70
  14   5 -16   63.49    3.00
  13   5 -16  129.99    4.60
  12   5 -16   40.90    2.20
  11   5 -16  676.83   19.60
  10   5 -16  355.86   10.60
   9   5 -16   -0.10    0.60
   8   5 -16    4.50    0.70
   7   5 -16   26.00    1.70
  -7  -5  16   25.40    2.50
  -6  -5  16    5.20    0.90
   5   5 -16    1.90    0.60
  -5  -5  16    1.60    0.80
   4   5 -16   14.20    1.60
   3   5 -16   28.20    2.00
   2   5 -16  200.48    6.50
   1   5 -16   37.60    2.40
   0   5 -16   54.39    2.80
  -1   5 -16   36.80    2.60
   1  -5  16   42.40    2.40
  -2   5 -16   -0.10    0.90
   2  -5  16    2.10    0.80
  -3   5 -16   16.40    2.50
   3  -5  16   14.10    2.00
  -4   5 -16   50.69    3.30
  16   4 -16   27.40    2.30
  15   4 -16    1.80    0.70
  14   4 -16    5.50    0.80
  13   4 -16  348.17   10.50
  12   4 -16  607.04   17.70
  11   4 -16    2.60    0.60
  10   4 -16    0.60    0.60
   9   4 -16   46.50    2.20
   8   4 -16    0.70    0.60
  -8  -4  16   -0.10    0.70
   7   4 -16   13.80    1.50
  -7  -4  16   12.10    1.80
   6   4 -16   -0.50    0.50
  -6  -4  16   -0.60    0.70
   5   4 -16  139.79    4.50
  -5  -4  16  129.19    4.80
   4   4 -16   22.70    1.80
  -4  -4  16   21.80    2.10
   3   4 -16   51.59    2.50
  -3  -4  16   54.49    3.20
   2   4 -16  166.28    5.50
   1   4 -16    2.60    0.80
  -1  -4  16    1.10    0.90
   0   4 -16   60.09    3.00
   0  -4  16   63.09    2.90
  -1   4 -16   -0.20    0.80
   1  -4  16    0.80    0.80
  -2   4 -16   16.30    2.30
   2  -4  16   17.60    2.00
  -3   4 -16   48.60    3.10
   3  -4  16   49.99    2.80
  -4   4 -16  132.99    5.30
  16   3 -16    0.00    0.70
  15   3 -16   46.50    2.60
  14   3 -16    9.20    1.60
  13   3 -16  236.38    7.40
  12   3 -16  123.29    4.30
  11   3 -16   42.50    2.10
  10   3 -16    0.20    0.50
   9   3 -16   69.69    2.70
  -9  -3  16   61.89    2.80
   8   3 -16   15.40    1.50
  -8  -3  16   15.10    1.80
   7   3 -16   55.19    2.30
  -7  -3  16   51.89    2.70
   6   3 -16   19.20    1.60
  -6  -3  16   21.80    2.00
   5   3 -16  155.88    5.00
  -5  -3  16  145.79    5.20
   4   3 -16    0.40    0.60
  -4  -3  16    0.90    0.80
   3   3 -16   72.89    3.00
  -3  -3  16   71.59    3.30
  -3  -3  16   69.79    3.10
   2   3 -16   52.19    2.60
  -2  -3  16   49.50    2.60
   1   3 -16  132.89    4.70
   0   3 -16   20.30    2.10
   0  -3  16   18.50    2.00
  -1   3 -16    4.30    1.00
   1  -3  16    5.40    0.90
  -2   3 -16    1.20    1.00
   2  -3  16    2.00    0.90
  -3   3 -16  118.29    4.80
   3  -3  16  117.79    4.50
  -4   3 -16    0.40    1.10
 -17  -2  16    2.00    1.10
 -16  -2  16   11.80    1.40
  15   2 -16  277.17    8.60
 -15  -2  16  273.57    9.00
  14   2 -16  347.97   10.50
  13   2 -16   15.10    1.70
  12   2 -16    0.30    0.60
  11   2 -16   14.00    1.50
  10   2 -16   71.29    2.70
 -10  -2  16   66.89    3.00
   9   2 -16    4.20    0.60
  -9  -2  16    4.20    0.80
   8   2 -16   58.09    2.50
  -8  -2  16   60.79    2.80
   7   2 -16   79.69    3.00
  -7  -2  16   77.89    3.30
   6   2 -16   12.30    1.50
  -6  -2  16   15.30    2.00
   5   2 -16    3.50    0.70
  -5  -2  16    3.20    0.80
  -5  -2  16    5.10    0.90
   4   2 -16   62.49    2.70
  -4  -2  16   59.19    2.80
  -4  -2  16   58.99    3.00
   3   2 -16  177.18    5.70
  -3  -2  16  178.68    5.80
  -3  -2  16  173.18    6.00
   2   2 -16   31.50    2.20
  -2  -2  16   31.30    2.80
  -2  -2  16   27.90    2.10
   1   2 -16    3.00    0.90
  -1  -2  16    1.10    1.30
   0   2 -16    4.50    0.90
   0  -2  16    6.10    1.00
  -1   2 -16  100.69    4.10
   1  -2  16   99.69    3.90
  -2   2 -16   -1.00    0.90
   2  -2  16    0.00    1.00
  -3   2 -16    1.80    1.10
   3  -2  16    1.80    1.20
  -4   2 -16    3.90    1.20
 -17  -1  16   -1.90    1.00
  16   1 -16    1.50    0.80
 -16  -1  16   -0.40    1.00
  15   1 -16   45.70    2.50
 -15  -1  16   40.60    3.10
  14   1 -16   25.90    2.00
 -14  -1  16   26.60    2.60
  13   1 -16    6.40    0.80
  12   1 -16   55.19    2.50
 -12  -1  16   56.39    3.00
  11   1 -16  119.69    4.00
 -11  -1  16  112.99    4.20
 -11  -1  16  121.39    4.50
  10   1 -16  238.88    7.30
 -10  -1  16  241.98    7.70
 -10  -1  16  233.58    7.50
   9   1 -16    2.70    0.60
  -9  -1  16    3.30    0.80
  -9  -1  16    1.30    0.90
   8   1 -16    1.80    0.60
  -8  -1  16    1.30    0.70
  -8  -1  16    0.00    0.80
   7   1 -16  273.07    8.10
  -7  -1  16  265.97    8.50
  -7  -1  16  269.37    8.40
   6   1 -16   52.19    2.30
  -6  -1  16   47.20    2.70
  -6  -1  16   47.50    2.70
   5   1 -16  169.68    5.30
  -5  -1  16  161.08    5.50
  -5  -1  16  158.08    5.60
   4   1 -16  202.58    6.40
  -4  -1  16  199.68    6.60
  -4  -1  16  202.98    6.60
   3   1 -16  113.89    4.00
  -3  -1  16  112.09    4.10
  -3  -1  16  108.29    4.30
   2   1 -16  379.46   11.10
  -2  -1  16  371.36   11.20
  -2  -1  16  359.56   11.30
   1   1 -16  259.77    8.00
  -1  -1  16  245.28    8.10
   0   1 -16   24.30    2.30
   0  -1  16   26.60    3.70
  -1   1 -16    0.80    0.90
   1  -1  16    1.70    1.00
  -2   1 -16   -1.50    0.90
   2  -1  16    0.10    1.10
   3  -1  16   44.60    3.30
 -17   0  16  235.98    8.10
  16   0 -16  345.97   10.50
 -16   0  16  338.97   10.90
  15   0 -16    1.60    0.80
 -15   0  16   -0.10    1.10
  14   0 -16   18.50    1.90
 -14   0  16   21.70    2.40
  13   0 -16   98.79    3.60
 -13   0  16   97.29    4.10
  12   0 -16  148.89    4.80
 -12   0  16  151.88    5.30
 -12   0  16  130.79    4.80
  11   0 -16    0.60    0.50
 -11   0  16   -0.90    0.70
 -11   0  16   -0.40    0.70
  10   0 -16    0.20    0.50
 -10   0  16   -0.70    0.80
 -10   0  16    0.80    0.70
   9   0 -16   44.90    2.00
  -9   0  16   44.50    2.50
  -9   0  16   42.10    2.70
   8   0 -16  148.49    4.70
  -8   0  16  144.09    5.20
  -8   0  16  142.89    5.00
   7   0 -16  154.28    4.90
  -7   0  16  153.78    5.30
  -7   0  16  149.79    5.30
   6   0 -16   40.10    2.10
  -6   0  16   38.60    2.50
  -6   0  16   41.20    2.50
   5   0 -16  245.58    7.50
  -5   0  16  235.88    7.70
  -5   0  16  247.78    7.80
   4   0 -16   72.49    3.00
  -4   0  16   75.79    3.20
  -4   0  16   73.99    3.40
   3   0 -16    0.10    0.70
  -3   0  16    1.40    0.90
  -3   0  16    0.50    0.80
   2   0 -16  223.98    6.90
  -2   0  16  218.48    7.00
  -2   0  16  207.18    7.10
   1   0 -16    6.70    1.00
  -1   0  16    7.40    1.10
   0   0 -16   52.69    2.90
   0   0  16   51.19    3.60
  -1   0 -16   40.00    2.70
   1   0  16   32.60    3.50
  -2   0 -16   23.50    2.50
   2   0  16   24.80    3.00
  -3   0 -16  263.37    8.70
 -17   1  16   88.09    4.40
  16  -1 -16   86.49    3.50
 -16   1  16   71.69    4.00
  15  -1 -16   54.69    2.70
 -15   1  16   51.19    3.30
  14  -1 -16    9.80    1.70
 -14   1  16    8.50    1.30
  13  -1 -16    4.80    0.80
 -13   1  16    4.60    1.00
 -13   1  16    5.70    1.40
  12  -1 -16   19.50    1.60
 -12   1  16   16.80    1.90
 -12   1  16   16.90    2.30
  11  -1 -16   55.69    2.40
 -11   1  16   56.39    3.10
 -11   1  16   52.89    2.70
  10  -1 -16   73.39    2.80
 -10   1  16   71.39    3.10
 -10   1  16   74.99    3.40
   9  -1 -16  211.28    6.40
  -9   1  16  215.08    7.00
  -9   1  16  204.48    6.70
   8  -1 -16    1.10    0.60
  -8   1  16   -0.40    0.80
   7  -1 -16  303.57    8.80
  -7   1  16  288.37    9.00
  -7   1  16  285.37    9.20
   6  -1 -16   -1.00    0.60
  -6   1  16    0.40    0.90
  -6   1  16    0.50    0.80
   5  -1 -16  167.78    5.30
  -5   1  16  165.78    5.70
  -5   1  16  160.98    5.70
   4  -1 -16    1.30    0.70
  -4   1  16    2.20    0.80
  -4   1  16    2.60    1.00
   3  -1 -16  125.69    4.40
  -3   1  16  121.29    4.70
  -3   1  16  123.09    4.60
   2  -1 -16  127.69    4.50
  -2   1  16  118.39    4.80
  -2   1  16  131.09    4.80
   1  -1 -16   34.80    2.50
  -1   1  16   37.10    2.80
   0  -1 -16    2.10    1.00
   0   1  16    1.40    1.10
  -1  -1 -16  143.39    5.20
   1   1  16  135.59    5.60
  -2  -1 -16   -1.40    1.00
   2   1  16    0.20    1.40
  -3  -1 -16  217.38    7.40
 -17   2  16   23.50    3.20
  16  -2 -16   97.89    3.70
 -16   2  16   85.09    4.30
  15  -2 -16  121.29    4.30
 -15   2  16  111.19    4.80
  14  -2 -16    1.00    0.70
 -14   2  16    0.60    0.90
  13  -2 -16    0.20    0.60
 -13   2  16    1.00    0.80
 -13   2  16    2.30    0.90
  12  -2 -16   15.50    1.60
 -12   2  16   14.60    2.20
 -12   2  16   15.80    1.90
  11  -2 -16  215.98    6.70
 -11   2  16  216.18    7.00
 -11   2  16  228.18    7.40
  10  -2 -16   24.10    1.70
 -10   2  16   28.70    2.40
   9  -2 -16  161.68    5.30
  -9   2  16  160.88    5.50
  -9   2  16  168.48    5.80
  -8   2  16  348.07   10.70
  -8   2  16  342.87   10.50
  -7   2  16  196.88    6.70
  -7   2  16  200.38    6.50
   6  -2 -16    2.00    0.80
  -6   2  16    3.40    1.00
  -6   2  16    2.30    0.90
   5  -2 -16   20.10    1.80
  -5   2  16   20.70    2.20
  -5   2  16   21.10    2.40
   4  -2 -16    1.70    0.70
  -4   2  16    2.90    1.00
  -4   2  16    2.70    0.90
   3  -2 -16  279.17    8.30
  -3   2  16  261.27    8.60
  -3   2  16  270.07    8.70
   2  -2 -16  114.39    4.20
  -2   2  16  113.09    4.60
  -2   2  16  115.59    4.70
   1  -2 -16   -0.20    0.90
  -1   2  16    0.70    1.00
   0  -2 -16   14.10    2.40
   0   2  16    8.70    1.40
  -1  -2 -16  188.98    6.50
   1   2  16  187.68    6.90
  -2  -2 -16    3.20    1.30
   2   2  16    4.00    1.70
 -17   3  16    0.80    1.20
 -16   3  16    0.10    1.10
  15  -3 -16   28.70    2.20
 -15   3  16   26.40    2.90
  14  -3 -16    9.80    1.70
 -14   3  16    6.50    1.00
 -14   3  16    7.10    1.10
  13  -3 -16    0.00    0.60
 -13   3  16   -0.90    0.80
 -13   3  16    0.70    0.80
  12  -3 -16   63.79    2.70
 -12   3  16   66.29    3.40
 -12   3  16   63.59    3.00
  11  -3 -16  162.98    5.10
 -11   3  16  160.28    5.80
 -11   3  16  153.98    5.40
 -10   3  16    2.20    0.90
 -10   3  16    2.40    0.90
   9  -3 -16   89.89    3.10
  -9   3  16   82.99    3.50
  -9   3  16   79.99    3.80
   8  -3 -16   57.39    2.40
  -8   3  16   60.59    3.00
  -8   3  16   54.29    3.10
   7  -3 -16  124.89    4.10
  -7   3  16  125.29    4.80
  -7   3  16  119.69    4.60
   6  -3 -16   -0.40    0.70
  -6   3  16    0.20    0.90
  -6   3  16   -0.10    0.90
   5  -3 -16    0.40    0.80
  -5   3  16    0.90    1.00
  -5   3  16   -1.00    0.80
   4  -3 -16   36.90    2.20
  -4   3  16   41.40    2.90
  -4   3  16   36.60    2.80
   3  -3 -16   89.49    3.50
  -3   3  16   84.59    3.90
  -3   3  16   89.79    4.10
   2  -3 -16    1.80    0.90
  -2   3  16    0.40    1.10
  -2   3  16    1.90    1.20
   1  -3 -16   68.89    3.20
  -1   3  16   64.49    3.90
   0  -3 -16  142.19    5.20
   0   3  16  143.49    5.80
  -1  -3 -16  137.29    5.20
   1   3  16  127.79    5.70
 -17   4  16  247.08    8.70
 -16   4  16   85.69    4.40
  15  -4 -16    3.60    0.90
 -15   4  16    2.10    1.20
  14  -4 -16    2.60    0.80
 -14   4  16    2.60    1.00
 -14   4  16    1.70    1.10
  13  -4 -16   10.20    1.70
 -13   4  16    4.90    1.20
 -13   4  16    6.40    1.10
  12  -4 -16    2.70    0.70
 -12   4  16    2.70    0.90
 -12   4  16    1.30    0.90
  11  -4 -16    0.10    0.90
 -11   4  16   -0.80    0.80
 -11   4  16   -1.50    0.80
  10  -4 -16  330.07    9.80
 -10   4  16  339.87   10.20
 -10   4  16  332.37   10.60
   9  -4 -16  673.63   18.90
  -9   4  16  665.83   19.20
  -9   4  16  642.04   19.60
   8  -4 -16   17.00    1.50
  -8   4  16   11.90    1.30
  -8   4  16   17.30    2.40
   7  -4 -16   30.70    1.80
  -7   4  16   31.30    2.60
  -7   4  16   30.50    2.60
   6  -4 -16   60.39    2.60
  -6   4  16   60.99    3.40
  -6   4  16   63.59    3.30
   5  -4 -16   26.90    2.30
  -5   4  16   35.80    2.80
  -5   4  16   30.90    2.80
   4  -4 -16   27.80    2.00
  -4   4  16   30.60    2.80
  -4   4  16   32.50    2.90
   3  -4 -16   42.60    2.40
  -3   4  16   35.00    3.10
  -3   4  16   38.90    3.20
   2  -4 -16  381.66   11.00
  -2   4  16  358.76   11.70
  -2   4  16  354.86   11.30
   1  -4 -16  284.47    8.60
  -1   4  16  262.67    9.30
   0  -4 -16    1.00    1.10
   0   4  16    1.50    1.50
  -1  -4 -16   -1.10    1.20
   1   4  16   -1.50    1.60
 -16   5  16    2.40    1.30
 -15   5  16    0.10    1.10
 -15   5  16    0.70    1.00
  14  -5 -16   18.50    2.00
 -14   5  16   19.70    2.80
 -14   5  16   17.70    2.30
  13  -5 -16  110.69    3.80
 -13   5  16  105.19    4.20
 -13   5  16  107.09    4.70
  12  -5 -16   31.40    2.30
 -12   5  16   30.10    2.60
 -12   5  16   34.30    2.90
  11  -5 -16  534.75   15.40
 -11   5  16  529.55   16.20
 -11   5  16  535.05   15.60
  10  -5 -16   12.30    1.60
 -10   5  16   13.50    2.40
 -10   5  16   19.30    2.50
   9  -5 -16  106.59    3.50
  -9   5  16  101.69    4.10
  -9   5  16  101.89    4.50
   8  -5 -16   50.19    2.20
  -8   5  16   52.09    3.20
  -8   5  16   51.19    3.10
   7  -5 -16    4.00    0.70
  -7   5  16    6.20    1.20
  -7   5  16    5.20    1.00
   6  -5 -16    0.10    0.70
  -6   5  16    0.40    0.90
  -6   5  16    1.30    1.10
   5  -5 -16    1.70    0.70
  -5   5  16    0.80    1.00
  -5   5  16    3.40    1.20
   4  -5 -16   20.70    2.30
  -4   5  16   21.80    2.90
  -4   5  16   28.90    2.90
   3  -5 -16   60.09    2.80
  -3   5  16   45.60    3.70
  -3   5  16   58.09    3.60
   2  -5 -16   28.30    2.50
  -2   5  16   28.30    3.30
   1  -5 -16  196.88    6.50
  -1   5  16  185.48    7.40
  -1   5  16  197.18    8.20
   0  -5 -16    0.10    1.10
   0   5  16   -1.60    1.50
 -16   6  16   98.79    4.90
 -15   6  16   18.90    3.00
 -15   6  16   21.40    2.90
 -14   6  16   11.40    1.60
 -14   6  16   16.70    2.70
  13  -6 -16    3.60    0.90
 -13   6  16    2.40    1.00
 -13   6  16    3.90    1.10
  12  -6 -16  135.49    4.50
 -12   6  16  129.79    5.40
 -12   6  16  134.29    4.90
  11  -6 -16   81.69    2.90
 -11   6  16   72.99    4.00
 -11   6  16   69.79    3.50
  10  -6 -16   63.99    2.60
 -10   6  16   65.29    3.40
   9  -6 -16    0.00    0.60
  -9   6  16    1.20    1.00
  -9   6  16    0.50    1.00
   8  -6 -16  188.18    5.80
  -8   6  16  184.98    6.90
  -8   6  16  197.48    6.40
   7  -6 -16  233.18    7.10
  -7   6  16  238.78    7.60
  -7   6  16  236.98    8.20
   6  -6 -16   15.30    1.70
  -6   6  16   17.80    2.80
  -6   6  16   18.20    2.90
   5  -6 -16    4.90    0.80
  -5   6  16    4.60    1.40
  -5   6  16    5.30    1.20
   4  -6 -16  189.48    6.40
  -4   6  16  190.98    6.70
  -4   6  16  192.38    7.20
   3  -6 -16  131.09    4.50
  -3   6  16  122.59    5.20
  -3   6  16  129.59    5.70
   2  -6 -16   19.20    2.40
  -2   6  16   12.40    2.00
   1  -6 -16   23.80    2.80
  -1   6  16   21.30    4.00
 -15   7  16   11.90    1.90
 -14   7  16  128.99    5.60
  13  -7 -16   83.79    3.30
 -13   7  16   83.39    4.40
  12  -7 -16    6.20    0.80
  11  -7 -16  149.69    4.80
 -11   7  16  151.48    5.90
 -11   7  16  137.89    5.70
  10  -7 -16   72.79    2.80
 -10   7  16   74.29    4.00
 -10   7  16   65.49    3.70
   9  -7 -16  197.38    5.90
  -9   7  16  191.18    6.60
  -9   7  16  193.98    7.20
   8  -7 -16   58.09    2.30
  -8   7  16   53.59    3.50
  -8   7  16   54.19    3.70
   7  -7 -16    1.60    0.70
  -7   7  16    0.80    1.40
  -7   7  16    2.20    1.10
   6  -7 -16    0.50    0.70
  -6   7  16    1.20    1.10
   5  -7 -16   49.20    2.40
  -5   7  16   45.80    3.70
   4  -7 -16  120.19    4.20
  -4   7  16  114.29    5.50
   3  -7 -16    0.30    0.90
  -3   7  16    0.50    1.50
 -14   8  16   64.19    4.40
 -13   8  16  226.48    8.20
  12  -8 -16    4.40    1.00
 -12   8  16    4.70    1.40
  11  -8 -16  152.38    4.90
 -11   8  16  142.89    6.00
  10  -8 -16   25.50    1.80
 -10   8  16   31.80    3.10
   9  -8 -16  136.19    4.40
  -9   8  16  133.69    5.80
   8  -8 -16  208.08    6.30
  -8   8  16  204.48    7.70
   7  -8 -16  139.39    4.70
  -7   8  16  136.29    5.90
  -6   8  16  135.49    5.90
  -5   8  16  103.89    5.30
  -4   8  16   42.30    4.20
 -12   9  16   11.50    2.10
 -10   9  16    8.40    1.40
  -9   9  16  155.98    6.40
  -8   9  16   36.50    3.50
  -7   9  16   26.00    3.60
  -6   9  16   11.90    1.80
   4  14 -17    2.50    0.80
   3  14 -17   41.10    2.50
   7  13 -17   57.99    2.80
   6  13 -17   -0.40    0.60
   5  13 -17    0.20    0.70
   4  13 -17   47.10    2.60
   3  13 -17   19.70    2.10
   2  13 -17    1.70    0.80
   1  13 -17  212.38    7.00
   0  13 -17  377.46   11.70
   9  12 -17    0.20    0.70
   8  12 -17  132.39    4.70
   7  12 -17  127.89    4.60
   6  12 -17    4.40    0.80
   5  12 -17  216.28    7.00
   4  12 -17   52.69    2.70
   3  12 -17   26.80    2.10
   2  12 -17   42.20    2.60
   1  12 -17   61.39    3.10
   0  12 -17  315.57    9.90
  -1  12 -17  211.98    7.20
  10  11 -17  218.28    7.10
   9  11 -17   91.99    3.60
   8  11 -17   27.40    2.00
   7  11 -17  345.67   10.50
   6  11 -17   36.20    2.20
   4  11 -17    7.30    0.90
   3  11 -17  104.59    4.00
   2  11 -17  315.77    9.80
   1  11 -17   15.60    2.10
   0  11 -17   -0.90    0.80
  -1  11 -17  101.29    4.20
  -2  11 -17   34.30    3.90
  11  10 -17    2.30    0.80
  10  10 -17   57.29    2.70
   9  10 -17   29.20    2.00
   8  10 -17   22.50    1.90
   7  10 -17   26.60    1.90
   6  10 -17  136.99    4.70
   5  10 -17   80.49    3.30
   4  10 -17   -1.20    0.60
   3  10 -17  177.18    5.90
   2  10 -17   94.99    3.80
   1  10 -17   33.20    2.40
   0  10 -17   22.50    2.30
  -1  10 -17   65.59    3.30
  -2  10 -17  220.28    7.40
  12   9 -17  329.27   10.20
  11   9 -17   -0.70    0.60
  10   9 -17    5.00    0.80
   9   9 -17  120.19    4.30
   8   9 -17  487.15   14.40
   7   9 -17   15.70    1.70
   6   9 -17  120.39    4.30
   5   9 -17  454.15   13.50
   4   9 -17  296.77    9.10
   3   9 -17    8.10    1.00
   2   9 -17   13.70    1.90
   1   9 -17  170.98    5.90
   0   9 -17  410.76   12.50
  -1   9 -17  152.18    5.50
  -2   9 -17    2.20    0.90
  13   8 -17   30.40    2.20
  12   8 -17  128.59    4.60
  11   8 -17  133.59    4.70
  10   8 -17   11.50    1.70
   9   8 -17   52.59    2.50
   8   8 -17   34.80    2.10
   7   8 -17   21.90    1.80
   6   8 -17  139.79    4.80
   5   8 -17  104.89    3.90
   4   8 -17  247.98    7.80
   3   8 -17   78.39    3.30
   2   8 -17   93.69    3.80
   1   8 -17    5.80    1.00
   0   8 -17    0.50    0.80
  -1   8 -17    3.00    0.90
  -2   8 -17   42.30    2.80
  -3   8 -17   57.49    4.60
  14   7 -17  327.87   10.60
  13   7 -17   75.19    3.20
  12   7 -17    0.80    0.70
  11   7 -17  162.28    5.40
  10   7 -17  240.48    7.50
   9   7 -17   18.90    1.70
   8   7 -17  166.28    5.40
   7   7 -17  961.00   27.50
   6   7 -17  801.52   23.10
   5   7 -17    3.00    0.80
   4   7 -17   10.60    1.70
   3   7 -17  239.48    7.60
   2   7 -17  460.95   13.80
   1   7 -17    8.90    1.10
   0   7 -17   -0.20    0.80
  -1   7 -17  342.47   10.60
  -2   7 -17   19.60    2.40
  -3   7 -17    0.20    0.90
   3  -7  17   -1.30    1.70
  14   6 -17    2.90    0.80
  13   6 -17   12.40    1.70
  12   6 -17  229.28    7.30
  11   6 -17   -0.70    0.60
  10   6 -17  281.67    8.60
   9   6 -17  117.49    4.10
   8   6 -17    4.00    0.70
   7   6 -17   -0.70    0.60
   6   6 -17   13.30    1.70
   5   6 -17  116.69    4.10
   4   6 -17   25.50    2.00
   3   6 -17    1.10    0.70
   2   6 -17   48.20    2.60
   1   6 -17   93.79    3.80
   0   6 -17   54.29    2.90
  -1   6 -17   54.49    3.10
   1  -6  17   60.29    3.00
  -2   6 -17   30.10    2.60
   2  -6  17   31.30    3.10
  -3   6 -17    9.20    1.30
   3  -6  17    8.60    1.20
  15   5 -17    1.80    0.70
  14   5 -17    0.60    0.60
  13   5 -17  225.38    7.20
  12   5 -17    1.50    0.70
  11   5 -17   92.69    3.50
  10   5 -17  337.47   10.20
   9   5 -17   20.90    1.80
   8   5 -17    7.10    0.80
   7   5 -17    1.10    0.60
   6   5 -17   16.00    1.70
   5   5 -17  169.98    5.60
   4   5 -17   22.00    1.90
   3   5 -17   -0.20    0.70
   2   5 -17    0.20    0.70
   1   5 -17   81.19    3.50
   0   5 -17    3.20    0.90
   0  -5  17    3.80    0.90
  -1   5 -17    2.60    0.90
   1  -5  17    3.50    0.90
  -2   5 -17  132.89    5.10
   2  -5  17  135.99    5.40
  -3   5 -17  393.46   11.70
   3  -5  17  348.77   11.40
  15   4 -17   99.89    3.90
  14   4 -17   39.80    2.30
  13   4 -17   24.70    1.90
  12   4 -17   18.30    1.80
  11   4 -17  229.58    7.20
  10   4 -17   37.60    2.10
   9   4 -17   59.89    2.60
   8   4 -17   25.50    1.80
   7   4 -17  161.28    5.20
   6   4 -17   -0.30    0.60
   5   4 -17    3.40    0.80
   4   4 -17   16.50    1.80
   3   4 -17  150.28    5.20
   2   4 -17   -0.10    0.70
  -2  -4  17   -0.50    0.80
   1   4 -17    7.20    1.00
  -1  -4  17    6.70    1.00
   0   4 -17   30.80    2.40
   0  -4  17   37.20    2.40
  -1   4 -17   67.59    3.30
   1  -4  17   65.19    3.30
  -2   4 -17    5.00    1.10
   2  -4  17    6.50    1.10
  -3   4 -17  242.78    8.10
  16   3 -17   -0.20    0.70
  15   3 -17   15.80    1.90
  14   3 -17   88.89    3.50
  13   3 -17   -0.30    0.60
  12   3 -17  148.79    5.00
  11   3 -17  171.08    5.50
  10   3 -17   -0.10    0.60
   9   3 -17   48.90    2.30
   8   3 -17   -0.60    0.50
   7   3 -17  131.99    4.40
   6   3 -17   46.80    2.30
   5   3 -17    6.60    0.90
  -5  -3  17    5.20    0.90
   4   3 -17   -1.00    0.70
  -4  -3  17   -0.60    0.70
   3   3 -17   71.89    3.10
  -3  -3  17   64.19    3.10
   2   3 -17   72.19    3.10
  -2  -3  17   68.89    3.20
   1   3 -17    1.70    0.80
  -1  -3  17   -0.50    0.80
   0   3 -17   29.80    2.40
   0  -3  17   30.00    2.30
  -1   3 -17  220.88    7.30
   1  -3  17  218.18    7.60
  -2   3 -17   27.10    2.70
   2  -3  17   33.10    2.80
  -3   3 -17   22.70    2.80
  16   2 -17   15.30    2.10
 -16  -2  17   13.00    2.50
  15   2 -17    1.50    0.70
 -15  -2  17    0.80    1.10
  14   2 -17   69.69    3.10
 -14  -2  17   76.99    3.70
  13   2 -17  303.67    9.40
 -13  -2  17  312.27    9.90
  12   2 -17    3.30    0.80
  11   2 -17    2.40    0.60
  10   2 -17   53.09    2.40
   9   2 -17  121.49    4.10
  -9  -2  17  122.09    4.70
  -8  -2  17    4.60    0.90
  -8  -2  17    4.20    1.00
   7   2 -17   25.80    1.70
  -7  -2  17   19.00    2.10
  -7  -2  17   21.30    2.20
   6   2 -17    1.40    0.70
  -6  -2  17    1.00    0.90
  -6  -2  17    2.50    0.90
   5   2 -17  151.68    5.10
  -5  -2  17  160.18    6.90
  -5  -2  17  146.59    5.30
   4   2 -17  148.59    5.00
  -4  -2  17  145.89    5.10
   3   2 -17   44.00    2.40
  -3  -2  17   41.40    2.50
   2   2 -17    2.00    0.80
  -2  -2  17   -0.20    0.80
   1   2 -17    2.10    0.80
  -1  -2  17    1.60    0.90
   0   2 -17    4.90    1.00
   0  -2  17    5.30    1.00
  -1   2 -17   24.20    2.40
   1  -2  17   24.50    2.80
  -2   2 -17   39.90    2.90
   2  -2  17   38.20    3.30
  16   1 -17    1.40    0.80
 -16  -1  17    0.90    1.10
  15   1 -17  163.18    5.70
 -15  -1  17  174.58    6.20
  14   1 -17    1.10    0.70
 -14  -1  17    0.00    1.00
  13   1 -17  168.18    5.60
 -13  -1  17  171.38    6.10
  12   1 -17   45.30    2.30
 -12  -1  17   46.10    2.80
  11   1 -17    8.60    1.50
 -11  -1  17    6.20    1.10
  10   1 -17   20.40    1.60
 -10  -1  17   15.00    2.20
 -10  -1  17   23.70    3.20
   9   1 -17   80.39    2.90
  -9  -1  17   70.29    3.50
  -9  -1  17   72.39    3.30
   8   1 -17   80.79    3.00
  -8  -1  17   70.99    3.30
  -8  -1  17   74.29    3.40
  -7  -1  17    7.70    1.00
  -7  -1  17    7.20    1.10
   6   1 -17   11.80    1.60
  -6  -1  17    8.40    1.10
  -6  -1  17   12.80    1.90
   5   1 -17    5.70    0.80
  -5  -1  17    4.60    1.00
  -5  -1  17    5.60    1.00
   4   1 -17    1.80    0.70
  -4  -1  17    2.00    0.80
   3   1 -17  103.79    3.80
  -3  -1  17   93.29    3.90
   2   1 -17  508.95   14.80
  -2  -1  17  491.35   14.90
   1   1 -17   61.49    3.10
  -1  -1  17   59.69    3.10
   0   1 -17   18.20    2.30
   0  -1  17   16.40    2.50
  -1   1 -17   43.00    3.00
   1  -1  17   42.90    3.20
   2  -1  17    3.10    2.40
  16   0 -17    3.40    0.90
 -16   0  17    3.40    1.10
  15   0 -17   37.80    2.30
 -15   0  17   34.10    2.90
  14   0 -17  196.18    6.40
 -14   0  17  204.18    7.00
  13   0 -17   55.19    2.60
 -13   0  17   58.29    3.30
  12   0 -17   84.19    3.20
 -12   0  17   80.69    3.80
  11   0 -17   49.00    2.30
 -11   0  17   44.50    2.90
 -11   0  17   54.49    3.90
  10   0 -17    5.30    0.70
 -10   0  17    3.90    1.00
   9   0 -17  201.68    6.00
  -9   0  17  180.48    6.30
  -9   0  17  185.68    6.50
   8   0 -17   58.89    2.50
  -8   0  17   54.09    3.00
  -8   0  17   56.09    3.00
   7   0 -17  373.06   10.60
  -7   0  17  338.27   10.80
  -7   0  17  355.56   11.00
   6   0 -17    5.30    0.80
  -6   0  17    5.30    1.10
  -6   0  17    4.20    0.90
   5   0 -17   72.19    3.00
  -5   0  17   72.69    3.30
  -5   0  17   67.79    3.40
   4   0 -17    1.40    0.80
  -4   0  17    2.20    0.90
  -4   0  17    2.10    1.00
   3   0 -17   95.19    3.60
  -3   0  17   86.49    3.80
   2   0 -17   84.99    3.50
  -2   0  17   79.49    3.70
   1   0 -17    7.70    1.10
  -1   0  17    7.70    1.20
   0   0 -17   14.80    2.30
   0   0  17   18.70    2.80
  -1   0 -17  144.19    5.50
   1   0  17  154.88    5.80
  -2   0 -17   -1.60    1.10
   2   0  17    0.00    1.60
  16  -1 -17    0.20    0.80
 -16   1  17   -1.10    1.10
  15  -1 -17   26.70    2.20
 -15   1  17   26.10    2.80
  14  -1 -17   45.90    2.50
 -14   1  17   47.60    3.20
  13  -1 -17   47.20    2.30
 -13   1  17   46.20    3.10
  12  -1 -17  176.38    5.60
 -12   1  17  173.18    6.20
  11  -1 -17  124.79    4.10
 -11   1  17  111.69    4.40
 -11   1  17  118.39    4.70
  10  -1 -17   70.09    2.70
 -10   1  17   68.49    3.40
 -10   1  17   64.39    3.20
   9  -1 -17  323.37    9.40
  -9   1  17  314.87    9.90
  -9   1  17  304.77    9.70
   8  -1 -17   39.80    2.10
  -8   1  17   45.30    2.80
  -8   1  17   39.00    2.70
   7  -1 -17  315.87    9.30
  -7   1  17  297.77    9.60
  -7   1  17  313.57    9.70
   6  -1 -17    5.60    0.80
  -6   1  17    5.00    1.00
  -6   1  17    4.40    1.00
   5  -1 -17   90.99    3.40
  -5   1  17   85.19    3.90
  -5   1  17   90.59    3.80
   4  -1 -17    0.90    0.80
  -4   1  17    1.40    0.90
  -4   1  17    2.50    1.00
   3  -1 -17  508.55   14.80
  -3   1  17  496.85   15.10
   2  -1 -17   69.89    3.20
  -2   1  17   69.29    3.60
   1  -1 -17    1.20    0.90
  -1   1  17    0.10    1.10
   0  -1 -17   52.09    3.20
   0   1  17   49.80    3.60
  -1  -1 -17  153.78    5.60
   1   1  17  148.59    6.10
  16  -2 -17   27.60    2.40
 -16   2  17   24.00    3.00
  15  -2 -17    1.70    0.80
 -15   2  17    2.00    1.00
  14  -2 -17   22.70    2.00
 -14   2  17   21.20    2.60
  13  -2 -17   70.79    2.90
 -13   2  17   71.19    3.60
  12  -2 -17   12.00    1.70
 -12   2  17    7.70    1.30
 -12   2  17    7.40    1.10
  11  -2 -17   73.39    2.80
 -11   2  17   63.89    3.30
 -11   2  17   68.49    3.50
  10  -2 -17   89.49    3.40
 -10   2  17   91.19    3.90
 -10   2  17   95.29    4.10
   9  -2 -17  641.64   18.50
  -9   2  17  640.54   18.80
  -9   2  17  650.73   19.10
   8  -2 -17  102.19    3.60
  -8   2  17   97.79    4.10
  -8   2  17  101.79    4.20
   7  -2 -17   26.90    1.90
  -7   2  17   30.90    2.40
  -7   2  17   24.20    2.60
   6  -2 -17  239.88    7.40
  -6   2  17  233.48    7.80
  -6   2  17  247.98    7.90
   5  -2 -17   13.40    1.80
  -5   2  17   15.90    2.30
  -5   2  17   14.90    2.50
   4  -2 -17   45.00    2.50
  -4   2  17   46.70    3.10
  -4   2  17   44.70    3.00
   3  -2 -17  229.88    7.30
  -3   2  17  220.58    7.70
  -3   2  17  239.48    8.90
   2  -2 -17  351.56   10.60
  -2   2  17  343.97   11.10
   1  -2 -17  577.64   16.50
  -1   2  17  540.15   16.90
   0  -2 -17   -1.10    1.10
   0   2  17   -1.60    1.40
  16  -3 -17   35.00    2.50
 -16   3  17   22.20    3.10
  15  -3 -17   32.40    2.40
 -15   3  17   33.10    3.00
  14  -3 -17    0.10    0.70
 -14   3  17   -1.10    1.00
  13  -3 -17   82.59    3.20
 -13   3  17   84.49    3.90
 -13   3  17   75.79    3.70
  12  -3 -17    1.00    0.70
 -12   3  17    1.20    0.90
 -12   3  17    1.30    1.00
  11  -3 -17   41.30    2.10
 -11   3  17   38.20    2.90
 -11   3  17   37.40    2.80
  10  -3 -17  235.78    7.10
 -10   3  17  233.08    7.60
 -10   3  17  233.38    7.90
   9  -3 -17   -0.70    0.60
   8  -3 -17   41.10    2.10
  -8   3  17   39.50    2.90
  -8   3  17   39.50    2.90
   7  -3 -17    4.00    0.80
  -7   3  17    5.70    1.10
  -7   3  17    5.40    1.10
   6  -3 -17   78.49    3.10
  -6   3  17   77.29    3.70
  -6   3  17   75.79    3.70
   5  -3 -17    4.60    0.80
  -5   3  17    4.60    1.20
   4  -3 -17    3.40    0.90
  -4   3  17    2.10    1.20
   3  -3 -17    5.30    0.90
  -3   3  17    4.50    1.30
   2  -3 -17  215.38    6.80
  -2   3  17  194.98    7.40
   1  -3 -17   96.59    4.10
  -1   3  17   88.49    4.80
   0  -3 -17    4.80    1.30
   0   3  17    6.60    1.60
 -16   4  17   36.80    3.50
  15  -4 -17    2.90    0.90
 -15   4  17    1.80    1.30
  14  -4 -17  140.19    4.70
 -14   4  17  130.09    5.50
 -14   4  17  135.39    5.40
  13  -4 -17    1.70    0.80
 -13   4  17    0.60    1.10
 -13   4  17    0.60    1.10
  12  -4 -17  432.76   12.40
 -12   4  17  418.96   13.20
 -12   4  17  415.86   12.70
  11  -4 -17  273.77    8.00
 -11   4  17  269.57    8.80
 -11   4  17  248.98    8.40
  10  -4 -17   -0.50    0.60
 -10   4  17   -0.40    0.90
 -10   4  17   -0.20    1.00
   9  -4 -17   -0.30    0.60
  -9   4  17    0.20    1.00
  -9   4  17   -0.40    0.90
   8  -4 -17  112.79    4.00
  -8   4  17  123.59    4.60
  -8   4  17  116.39    4.80
   7  -4 -17   27.40    1.90
  -7   4  17   28.20    2.90
  -7   4  17   22.80    2.70
   6  -4 -17   25.00    1.90
  -6   4  17   21.60    2.70
  -6   4  17   28.30    3.00
   5  -4 -17    1.50    0.80
  -5   4  17    1.40    1.10
  -5   4  17    2.90    1.20
   4  -4 -17  388.16   11.20
  -4   4  17  372.16   11.90
  -4   4  17  359.96   11.60
   3  -4 -17  122.19    4.40
  -3   4  17  114.29    5.30
  -3   4  17  111.69    5.10
   2  -4 -17   14.30    2.40
  -2   4  17    9.30    1.60
   1  -4 -17   21.70    2.70
  -1   4  17   23.00    3.70
  15  -5 -17    2.50    1.00
 -15   5  17    3.60    1.40
  14  -5 -17  165.48    5.20
 -14   5  17  149.69    6.10
 -14   5  17  141.89    5.60
  13  -5 -17   18.30    2.00
 -13   5  17   12.40    1.40
 -13   5  17   19.20    2.80
  12  -5 -17    0.60    0.70
 -12   5  17   -1.10    1.00
 -12   5  17   -0.30    1.10
  11  -5 -17   48.90    2.60
 -11   5  17   38.90    3.10
 -11   5  17   42.70    3.20
 -10   5  17   37.40    3.00
 -10   5  17   39.20    3.10
   9  -5 -17    2.60    0.70
  -9   5  17    1.40    1.00
  -9   5  17    3.10    1.20
   8  -5 -17    2.20    0.80
  -8   5  17    5.30    1.20
  -8   5  17    0.90    1.00
  -7   5  17    0.00    1.00
  -7   5  17    1.50    1.20
   6  -5 -17    0.70    0.70
  -6   5  17    0.70    1.00
  -6   5  17    2.50    1.20
   5  -5 -17    3.00    0.80
  -5   5  17    5.00    1.40
  -5   5  17    2.40    1.30
   4  -5 -17   98.89    3.80
  -4   5  17   94.29    4.70
  -4   5  17   92.69    4.80
   3  -5 -17  100.19    3.90
  -3   5  17   88.89    4.80
  -3   5  17   86.09    4.80
   2  -5 -17    1.30    1.10
  -2   5  17   -0.40    1.60
  14  -6 -17  117.49    4.30
 -14   6  17  110.79    5.20
  13  -6 -17   31.30    2.20
 -13   6  17   24.90    3.10
 -12   6  17    0.30    1.00
 -12   6  17   -0.10    1.40
  11  -6 -17   24.40    1.90
 -11   6  17   16.90    3.10
 -11   6  17   22.30    2.90
  10  -6 -17  295.97    8.60
 -10   6  17  293.17    9.70
 -10   6  17  276.37    9.20
   9  -6 -17  219.78    6.60
  -9   6  17  216.48    7.70
  -9   6  17  205.28    7.30
   8  -6 -17   28.50    1.90
  -8   6  17   27.70    3.00
  -8   6  17   21.30    3.30
   7  -6 -17   19.50    1.90
  -7   6  17   21.50    3.30
  -7   6  17   20.60    3.00
   6  -6 -17  135.29    5.50
  -6   6  17  140.89    7.00
  -6   6  17  143.49    5.90
   5  -6 -17   91.89    3.50
  -5   6  17   86.69    4.70
   4  -6 -17    6.50    1.10
  -4   6  17    6.70    1.70
   3  -6 -17  102.99    4.00
  -3   6  17   89.19    5.20
  13  -7 -17   -0.50    0.90
 -13   7  17    2.40    1.20
  12  -7 -17   78.79    3.20
 -12   7  17   78.89    4.30
  11  -7 -17  303.47    9.00
 -11   7  17  300.27   10.20
  10  -7 -17    4.40    0.80
 -10   7  17    6.20    1.40
   9  -7 -17    1.90    0.70
  -9   7  17    0.70    1.20
   8  -7 -17    4.40    0.80
  -8   7  17    3.50    1.20
   7  -7 -17    4.30    0.80
  -7   7  17    5.60    1.60
   6  -7 -17   86.89    3.30
  -6   7  17   85.39    4.70
  -5   7  17    3.70    1.50
 -11   8  17   39.20    4.40
 -10   8  17    0.80    1.10
  -9   8  17   78.19    4.50
  -8   8  17  238.38    8.60
  -7   8  17    1.90    1.30
   7  12 -18  199.78    6.70
   6  12 -18    0.30    0.70
   5  12 -18   66.09    3.10
   4  12 -18    3.80    0.90
   3  12 -18  105.09    4.10
   2  12 -18   77.09    3.60
   9  11 -18  251.47    8.10
   8  11 -18   53.29    2.70
   7  11 -18    4.50    0.80
   6  11 -18   52.79    2.70
   5  11 -18  132.89    4.70
   4  11 -18  172.58    5.80
   3  11 -18    1.60    0.80
   2  11 -18    1.80    0.90
   1  11 -18  132.69    5.00
  10  10 -18   33.20    2.20
   9  10 -18   38.90    2.30
   8  10 -18    1.90    0.70
   7  10 -18   31.80    2.10
   6  10 -18    3.60    0.80
   5  10 -18  298.47    9.20
   4  10 -18   49.40    2.60
   3  10 -18   17.90    2.00
   2  10 -18  174.88    6.00
   1  10 -18   56.79    3.00
   0  10 -18   39.60    2.70
  11   9 -18   89.39    3.60
  10   9 -18  118.29    4.30
   9   9 -18    5.30    0.80
   8   9 -18   80.89    3.30
   7   9 -18  398.06   11.90
   6   9 -18   69.19    3.00
   5   9 -18    0.80    0.80
   4   9 -18    0.50    0.70
   3   9 -18  166.88    5.70
   2   9 -18  262.07    8.40
   1   9 -18  102.19    4.10
   0   9 -18   27.80    2.40
  12   8 -18   46.10    2.50
  11   8 -18   37.40    2.30
  10   8 -18  187.38    6.10
   9   8 -18  295.27    9.10
   8   8 -18  148.29    5.10
   7   8 -18  471.55   14.00
   6   8 -18   74.99    3.20
   5   8 -18  217.78    7.00
   4   8 -18   -1.10    0.70
   3   8 -18    6.00    1.00
   1   8 -18    4.70    1.00
   0   8 -18   39.10    2.60
  -1   8 -18  113.49    4.60
  13   7 -18   61.79    2.90
  12   7 -18   24.70    2.00
  11   7 -18  414.36   12.40
  10   7 -18  261.67    8.20
   9   7 -18  397.86   11.90
   8   7 -18  357.36   10.80
   7   7 -18    4.70    0.80
   6   7 -18    0.70    0.80
   5   7 -18  233.08    7.40
   4   7 -18  251.67    7.90
   3   7 -18    1.80    0.80
   2   7 -18   80.49    3.50
   1   7 -18  224.38    7.30
   0   7 -18   97.29    4.00
  -1   7 -18   20.40    2.30
   2  -7  18   29.50    2.90
  14   6 -18    0.80    0.80
  13   6 -18   19.90    1.90
  12   6 -18   21.70    2.00
  11   6 -18   55.99    2.70
  10   6 -18    1.60    0.70
   9   6 -18   78.29    3.20
   8   6 -18   32.90    2.10
   7   6 -18  154.68    5.20
   6   6 -18    2.80    0.80
   5   6 -18  255.57    8.00
   3   6 -18   40.90    2.50
   2   6 -18   21.70    2.10
   1   6 -18    6.40    1.00
   0   6 -18   34.00    2.60
   0  -6  18   31.60    2.60
  -1   6 -18    7.70    1.20
   1  -6  18    8.20    1.20
   2  -6  18  195.18    6.60
  14   5 -18   42.50    2.50
  13   5 -18  212.68    6.90
  12   5 -18   43.80    2.40
  11   5 -18   43.20    2.30
  10   5 -18   25.50    1.90
   9   5 -18   51.89    2.50
   8   5 -18   18.10    1.90
   7   5 -18  647.04   18.80
   6   5 -18  390.76   11.70
   5   5 -18   -1.00    0.70
   4   5 -18   -1.40    0.70
   3   5 -18  188.78    6.30
   2   5 -18    0.00    0.80
   1   5 -18    6.60    1.10
  -1  -5  18    6.50    1.00
   0   5 -18  166.18    5.90
   0  -5  18  168.38    5.80
  -1   5 -18  287.17    9.40
   1  -5  18  302.67    9.30
   2  -5  18   39.70    3.10
  15   4 -18   26.90    2.20
  14   4 -18   94.29    3.70
  13   4 -18    5.60    0.90
  12   4 -18   39.30    2.30
  11   4 -18    1.00    0.60
  10   4 -18  115.49    4.10
   9   4 -18  549.85   16.00
   8   4 -18   26.50    1.90
   7   4 -18    1.80    0.70
   6   4 -18   62.79    2.80
   5   4 -18   11.10    1.80
   4   4 -18    3.00    0.80
  -4  -4  18    3.70    0.80
   3   4 -18   35.10    2.40
  -3  -4  18   32.60    2.40
   2   4 -18   84.99    3.70
  -2  -4  18   87.99    3.70
   1   4 -18   84.49    3.70
  -1  -4  18   89.79    3.70
   0   4 -18   14.30    2.30
   0  -4  18   20.10    2.50
  -1   4 -18  134.49    5.20
   1  -4  18  140.19    5.10
  15   3 -18    1.30    0.70
  14   3 -18  202.68    6.60
  13   3 -18  122.89    4.40
  12   3 -18    3.20    0.80
  11   3 -18    9.70    1.60
  10   3 -18   13.90    1.70
   9   3 -18   65.69    2.80
   8   3 -18    3.50    0.70
   7   3 -18  250.87    7.70
  -7  -3  18  246.68    8.10
   6   3 -18  448.96   13.40
  -6  -3  18  463.65   13.80
   5   3 -18    7.80    1.00
  -5  -3  18   12.00    2.00
   4   3 -18    0.40    0.80
  -4  -3  18    0.80    0.90
   3   3 -18   31.00    2.30
  -3  -3  18   27.80    2.30
   2   3 -18  190.58    6.30
  -2  -3  18  183.58    6.30
   1   3 -18  115.79    4.50
  -1  -3  18  119.69    4.50
   0   3 -18    1.80    0.90
   0  -3  18    2.50    1.10
  -1   3 -18    9.30    1.30
   1  -3  18    9.60    1.30
  15   2 -18   66.19    3.00
 -15  -2  18   63.39    3.60
  14   2 -18    0.60    0.70
 -14  -2  18   -1.00    1.00
 -13  -2  18    8.40    1.20
  12   2 -18  219.88    6.90
 -12  -2  18  213.98    7.40
  11   2 -18  116.99    4.10
 -11  -2  18  116.29    4.60
  10   2 -18  108.09    3.90
 -10  -2  18  111.39    4.50
   9   2 -18   24.40    1.80
  -9  -2  18   21.30    2.30
   8   2 -18   35.70    2.10
  -8  -2  18   35.90    2.60
   7   2 -18  212.68    6.60
  -7  -2  18  209.18    7.00
   6   2 -18    1.90    0.70
  -6  -2  18    2.50    0.80
   5   2 -18    8.30    1.00
   4   2 -18   -0.80    0.70
  -4  -2  18   -1.40    0.80
   3   2 -18    6.30    0.90
  -3  -2  18    3.90    1.00
  -2  -2  18   12.50    2.20
   1   2 -18   28.90    2.50
  -1  -2  18   28.80    2.70
   0   2 -18   44.30    2.90
   0  -2  18   45.70    3.20
  -1   2 -18   19.30    2.60
   1  -2  18   16.50    3.00
  15   1 -18   61.89    3.00
 -15  -1  18   60.09    3.60
  14   1 -18    7.20    0.90
 -14  -1  18    5.00    1.10
  13   1 -18    3.30    0.80
 -13  -1  18    2.60    1.20
  12   1 -18  192.58    6.20
 -12  -1  18  192.08    6.70
  11   1 -18   42.50    2.20
 -11  -1  18   35.60    2.80
  10   1 -18   19.70    1.80
 -10  -1  18   15.10    2.30
   9   1 -18    6.50    0.80
  -9  -1  18    5.80    1.10
   8   1 -18   44.80    2.30
  -8  -1  18   47.00    2.80
   7   1 -18  219.18    6.80
  -7  -1  18  217.08    7.20
   6   1 -18   -0.50    0.70
  -6  -1  18    0.10    0.90
   5   1 -18    8.20    1.00
  -5  -1  18   10.70    2.10
   4   1 -18    1.90    0.80
  -4  -1  18    1.50    0.90
   3   1 -18   70.59    3.10
  -3  -1  18   62.69    3.40
  -2  -1  18    8.00    1.20
   1   1 -18  129.59    4.80
  -1  -1  18  129.39    5.10
   0   1 -18   79.89    3.80
   0  -1  18   83.19    4.10
  16   0 -18   24.40    2.30
 -16   0  18   17.20    3.00
  15   0 -18  110.39    4.20
 -15   0  18  108.89    4.80
  14   0 -18  182.98    6.20
 -14   0  18  196.38    6.80
  13   0 -18  298.67    9.20
 -13   0  18  303.07    9.80
  12   0 -18    6.50    0.90
 -12   0  18    7.60    1.30
  11   0 -18   63.09    2.70
 -11   0  18   59.89    3.40
  10   0 -18   36.40    2.10
 -10   0  18   35.80    2.80
   9   0 -18   15.90    1.70
  -9   0  18   15.20    2.30
   8   0 -18   50.89    2.40
  -8   0  18   49.30    2.90
   7   0 -18    7.30    0.90
  -7   0  18    6.70    1.00
   6   0 -18    7.00    0.90
  -6   0  18    7.20    1.00
   5   0 -18    5.90    0.90
  -5   0  18    4.60    1.00
   4   0 -18   68.99    3.00
  -4   0  18   64.89    3.40
   3   0 -18   51.99    2.70
  -3   0  18   40.00    3.00
   2   0 -18   77.29    3.40
  -2   0  18   65.79    3.80
   1   0 -18  170.88    5.90
  -1   0  18  170.48    6.30
   0   0 -18   12.00    1.40
   0   0  18   18.00    3.30
 -16   1  18   12.60    1.70
  15  -1 -18   24.20    2.20
 -15   1  18   15.70    2.80
  14  -1 -18    1.60    0.80
 -14   1  18   -0.50    1.10
  13  -1 -18  219.48    6.90
 -13   1  18  213.48    7.50
  12  -1 -18    4.10    0.80
 -12   1  18    2.40    1.20
 -11   1  18    5.10    1.10
  10  -1 -18   -0.20    0.60
 -10   1  18    1.70    1.10
   9  -1 -18   84.69    3.10
  -9   1  18   81.59    3.70
  -9   1  18   74.89    4.10
   8  -1 -18   53.29    2.50
  -8   1  18   52.89    3.00
  -8   1  18   54.49    3.30
  -7   1  18   -1.00    1.20
  -7   1  18   -0.60    0.80
   6  -1 -18   23.20    2.00
  -6   1  18   27.10    2.50
   5  -1 -18    2.00    0.80
  -5   1  18    0.00    1.00
   4  -1 -18    7.00    1.00
   3  -1 -18   11.40    2.10
  -3   1  18    6.60    1.40
   2  -1 -18   37.70    2.60
  -2   1  18   25.50    3.20
   1  -1 -18    2.00    1.00
  -1   1  18    1.40    1.40
  15  -2 -18  235.58    7.30
 -15   2  18  223.28    8.00
  14  -2 -18   56.59    2.70
 -14   2  18   50.89    3.50
  13  -2 -18    2.00    0.80
 -13   2  18    0.50    1.00
  12  -2 -18   87.79    3.40
 -12   2  18   82.99    4.10
  11  -2 -18  270.77    8.40
 -11   2  18  288.47    9.20
  10  -2 -18   28.80    1.90
 -10   2  18   20.80    2.80
 -10   2  18   37.20    2.80
  -9   2  18   -1.20    1.10
  -9   2  18   -0.50    0.80
   8  -2 -18   20.40    1.90
  -8   2  18   24.30    2.80
  -8   2  18   25.90    2.50
   7  -2 -18    0.90    0.80
  -7   2  18    3.40    1.20
  -7   2  18    2.50    1.00
   6  -2 -18    1.60    0.80
  -6   2  18    2.40    1.20
  -6   2  18    1.60    1.00
   5  -2 -18    4.10    0.90
  -5   2  18    1.80    1.00
  -4   2  18    9.10    1.30
   3  -2 -18  215.18    6.90
  -3   2  18  207.78    7.50
   2  -2 -18   64.79    3.40
  -2   2  18   61.59    4.00
   1  -2 -18   25.90    2.70
  -1   2  18   23.20    3.60
  15  -3 -18    1.90    0.90
 -15   3  18   -0.60    1.10
 -14   3  18   10.20    1.40
  13  -3 -18   -0.50    0.70
 -13   3  18    0.60    1.00
  12  -3 -18  565.24   16.30
 -12   3  18  561.04   17.00
 -12   3  18  551.44   17.20
  11  -3 -18   97.69    3.50
 -11   3  18   84.69    4.20
 -11   3  18   97.69    4.30
  10  -3 -18    1.10    0.70
 -10   3  18    1.80    1.10
 -10   3  18    2.70    1.20
   9  -3 -18   17.70    1.70
  -9   3  18   15.90    2.90
  -9   3  18   16.80    2.50
  -8   3  18    5.00    1.20
  -8   3  18    5.20    1.30
   7  -3 -18   12.70    1.80
  -7   3  18   16.10    2.40
  -7   3  18   17.90    3.00
   6  -3 -18    1.90    0.80
  -6   3  18    4.90    1.30
  -6   3  18    0.60    1.00
   5  -3 -18    4.60    0.90
  -5   3  18    4.00    1.90
  -5   3  18    3.50    1.30
   4  -3 -18  325.57    9.70
  -4   3  18  310.07   10.50
   3  -3 -18  236.18    7.40
  -3   3  18  224.38    8.20
   2  -3 -18    6.00    1.20
  -2   3  18    6.30    1.70
  15  -4 -18    0.30    0.90
  14  -4 -18  401.86   11.90
 -14   4  18  394.36   12.80
  13  -4 -18  167.08    5.60
 -13   4  18  172.08    7.60
 -13   4  18  168.18    6.50
  12  -4 -18    5.30    0.90
 -12   4  18    5.50    1.30
 -12   4  18    5.70    1.30
  11  -4 -18    1.50    0.70
 -11   4  18    2.00    1.30
 -11   4  18    3.60    1.30
  10  -4 -18   13.50    1.70
 -10   4  18    9.60    1.40
 -10   4  18    7.90    1.30
   9  -4 -18   -0.10    0.70
  -9   4  18    1.00    1.20
   8  -4 -18    1.90    0.80
  -8   4  18    5.10    1.30
  -8   4  18    1.20    1.00
   7  -4 -18   54.89    2.60
  -7   4  18   61.89    3.70
  -7   4  18   49.90    3.40
   6  -4 -18  154.88    5.10
  -6   4  18  149.79    6.10
  -6   4  18  148.39    5.90
   5  -4 -18   53.49    2.80
  -5   4  18   53.59    4.00
  -5   4  18   49.10    3.70
   4  -4 -18   -0.70    0.90
  -4   4  18   -1.10    1.30
   3  -4 -18    8.70    1.20
  -3   4  18    9.00    1.80
  14  -5 -18   48.40    2.80
  13  -5 -18   13.20    2.10
 -13   5  18   15.00    2.90
  12  -5 -18   36.50    2.30
 -12   5  18   28.80    3.10
 -12   5  18   28.40    3.60
  11  -5 -18  130.59    4.40
 -11   5  18  121.59    5.20
 -11   5  18  123.99    5.30
  10  -5 -18   12.20    1.80
 -10   5  18   12.10    1.70
 -10   5  18   15.10    2.70
   9  -5 -18   73.29    2.90
  -9   5  18   67.19    4.10
  -9   5  18   65.79    3.90
   8  -5 -18   99.69    3.60
  -8   5  18   86.39    4.70
  -8   5  18  102.99    4.80
   7  -5 -18    5.50    0.90
  -7   5  18    5.50    1.40
  -7   5  18    6.60    1.60
   6  -5 -18   61.99    2.80
  -6   5  18   57.59    5.30
  -6   5  18   61.09    4.10
   5  -5 -18   29.30    2.50
  -5   5  18   28.90    3.60
  -4   5  18   13.80    1.90
  13  -6 -18  101.89    3.90
  12  -6 -18   97.39    3.70
 -12   6  18   96.39    5.50
  11  -6 -18    7.40    0.90
 -11   6  18    6.30    1.30
  10  -6 -18   -1.20    0.70
 -10   6  18   -1.90    1.00
   9  -6 -18   24.10    2.00
  -9   6  18   19.00    3.00
   8  -6 -18  137.89    4.50
  -8   6  18  131.79    5.80
  -7   6  18    9.60    1.60
   6  -6 -18   -0.80    0.90
  -6   6  18    0.60    1.30
  -9   7  18    0.60    1.30
   8  10 -19   63.99    3.10
   7  10 -19  195.88    6.40
   6  10 -19   86.19    3.60
   5  10 -19  222.08    7.20
   4  10 -19   -0.30    0.80
   3  10 -19   26.40    2.70
   9   9 -19  298.67    9.20
   8   9 -19   -1.00    0.70
   7   9 -19    1.00    0.80
   6   9 -19    7.90    1.00
   5   9 -19   74.69    3.30
   4   9 -19  162.88    5.60
   3   9 -19  129.39    4.80
   2   9 -19   75.39    3.50
  11   8 -19  232.08    7.80
  10   8 -19  205.28    6.70
   9   8 -19  491.05   14.50
   8   8 -19   -1.20    0.70
   7   8 -19   33.10    2.30
   6   8 -19   55.49    2.80
   5   8 -19   60.59    2.90
   4   8 -19   -0.80    0.80
   3   8 -19    7.20    1.00
   2   8 -19   37.40    2.60
   1   8 -19  127.09    5.50
  12   7 -19  166.18    6.10
  11   7 -19  167.08    5.60
  10   7 -19  300.37    9.30
   9   7 -19    2.50    0.80
   8   7 -19   46.40    2.50
   7   7 -19  180.58    6.00
   6   7 -19   52.49    2.70
   5   7 -19    0.00    0.80
   4   7 -19  215.28    7.00
   3   7 -19  168.38    5.80
   2   7 -19   18.60    2.30
   1   7 -19    1.20    0.90
  13   6 -19   19.30    2.20
  12   6 -19   30.20    2.20
  11   6 -19    0.70    0.70
  10   6 -19  123.89    4.40
   9   6 -19   96.49    3.70
   8   6 -19   49.00    2.60
   7   6 -19  297.67    9.20
   5   6 -19   -1.10    0.70
   4   6 -19    2.70    0.80
   3   6 -19    6.50    1.00
   2   6 -19   51.89    2.90
   1   6 -19    5.40    1.10
  -1  -6  19    3.10    1.20
   0   6 -19  117.59    5.70
   0  -6  19  104.89    4.50
  13   5 -19   67.69    3.10
  12   5 -19   49.70    2.50
  11   5 -19   15.30    1.80
  10   5 -19  166.88    5.60
   9   5 -19  801.62   23.10
   8   5 -19  268.57    8.30
   7   5 -19    9.70    1.10
   6   5 -19  265.37    8.30
   5   5 -19   41.40    2.50
   4   5 -19    8.60    1.10
   3   5 -19   74.09    3.40
  -3  -5  19   75.69    3.60
   2   5 -19  459.75   14.00
  -2  -5  19  476.65   14.10
   1   5 -19  215.68    7.20
  -1  -5  19  221.08    7.30
   0   5 -19   15.30    2.40
   0  -5  19   11.60    1.40
  14   4 -19   33.30    2.30
  13   4 -19   12.40    1.80
  12   4 -19   87.19    3.50
  11   4 -19  705.53   20.50
  10   4 -19   76.69    3.20
   9   4 -19    1.10    0.70
   8   4 -19   14.30    1.90
   7   4 -19   66.19    3.00
   6   4 -19   44.10    2.50
   5   4 -19    7.40    1.00
  -5  -4  19    6.30    1.00
   4   4 -19  486.85   14.40
  -4  -4  19  478.15   14.50
   3   4 -19  173.78    6.00
  -3  -4  19  174.58    6.10
   2   4 -19    6.20    1.10
  -2  -4  19    6.50    1.10
   1   4 -19    6.30    1.10
  -1  -4  19    5.40    1.20
   0   4 -19   31.30    2.70
   0  -4  19   29.00    2.90
  14   3 -19    0.20    0.70
 -14  -3  19   -0.70    1.10
  13   3 -19    0.50    0.70
 -13  -3  19   -0.50    0.90
  12   3 -19   42.50    2.40
  11   3 -19  115.79    4.10
 -11  -3  19  113.69    4.70
  10   3 -19   40.80    2.30
 -10  -3  19   45.30    2.90
   9   3 -19  122.79    4.40
  -9  -3  19  131.59    5.00
   8   3 -19  127.69    4.40
  -8  -3  19  122.29    4.80
   7   3 -19  294.37    9.00
  -7  -3  19  290.87    9.30
   6   3 -19    3.20    0.80
  -6  -3  19    3.20    0.90
   5   3 -19    3.70    0.90
  -5  -3  19    3.90    0.90
   4   3 -19  179.48    6.00
  -4  -3  19  182.08    6.30
   3   3 -19   83.29    3.60
  -3  -3  19   79.59    3.70
   2   3 -19    9.10    1.20
  -2  -3  19    8.60    1.20
   1   3 -19   31.20    2.60
  -1  -3  19   28.40    2.90
  14   2 -19   40.70    2.50
 -14  -2  19   37.30    3.00
  13   2 -19   42.20    2.40
 -13  -2  19   39.30    3.00
  12   2 -19    1.90    0.80
 -12  -2  19    1.40    1.00
  11   2 -19   46.80    2.40
 -11  -2  19   42.70    3.00
  10   2 -19  264.47    8.30
 -10  -2  19  275.37    8.80
   9   2 -19    0.20    0.70
  -9  -2  19    1.80    0.80
  -8  -2  19    0.50    0.90
   7   2 -19   49.70    2.60
  -7  -2  19   52.99    3.00
   6   2 -19   11.40    1.90
  -6  -2  19   16.70    2.30
   5   2 -19    4.20    0.90
  -5  -2  19    4.10    1.00
   4   2 -19    6.40    1.00
  -4  -2  19    3.60    1.10
   3   2 -19    2.70    0.90
  -3  -2  19    0.50    1.00
   2   2 -19  213.68    7.00
  -2  -2  19  206.98    7.20
   1   2 -19   76.99    3.70
  -1  -2  19   74.69    3.90
  14   1 -19  134.29    4.70
 -14  -1  19  128.59    5.30
  13   1 -19  100.59    3.90
 -13  -1  19  101.69    4.40
  12   1 -19    1.10    0.80
 -12  -1  19    2.30    1.10
  11   1 -19    0.40    0.70
 -11  -1  19   -0.10    0.90
  10   1 -19    0.50    0.70
 -10  -1  19    0.50    0.80
   9   1 -19    8.30    1.00
   8   1 -19   -0.60    0.70
  -8  -1  19   -0.20    0.90
   7   1 -19   55.79    2.70
  -7  -1  19   58.99    3.20
   6   1 -19  366.86   11.00
  -6  -1  19  365.86   11.40
  -5  -1  19   -0.50    1.00
   4   1 -19  240.48    7.50
  -4  -1  19  228.38    7.80
   3   1 -19    0.40    0.90
  -3  -1  19   -1.00    1.00
   2   1 -19  163.88    5.70
  -2  -1  19  159.38    6.00
  -1  -1  19   51.99    3.70
  14   0 -19   18.80    2.00
 -14   0  19   15.70    2.80
  13   0 -19    7.90    1.00
 -13   0  19    8.00    1.20
  12   0 -19   30.20    2.10
 -12   0  19   24.90    2.80
  11   0 -19  137.29    4.60
 -11   0  19  132.59    5.30
  10   0 -19   44.60    2.40
 -10   0  19   45.10    3.10
   9   0 -19    7.50    0.90
  -9   0  19    5.90    1.10
   8   0 -19    7.00    0.90
  -8   0  19   12.70    2.30
   7   0 -19   20.50    2.00
  -7   0  19   21.10    2.40
   6   0 -19   43.90    2.40
  -6   0  19   42.10    3.00
   5   0 -19    0.80    0.80
  -5   0  19    0.80    0.90
   4   0 -19    7.30    1.10
  -4   0  19    5.70    1.30
   3   0 -19  105.39    4.10
  -3   0  19   97.99    4.70
   2   0 -19    0.70    1.00
  -2   0  19    0.40    1.30
  14  -1 -19    7.70    1.00
 -14   1  19    4.90    1.40
  13  -1 -19    2.70    0.80
 -13   1  19    0.70    1.10
  12  -1 -19   18.50    1.90
 -12   1  19   14.00    2.70
  11  -1 -19    5.90    0.90
 -11   1  19    4.60    1.10
  10  -1 -19   10.00    1.70
 -10   1  19    9.20    1.50
   9  -1 -19    0.90    0.70
  -9   1  19    1.70    1.00
   8  -1 -19   69.79    3.00
  -8   1  19   72.39    3.60
   7  -1 -19   14.00    1.90
  -7   1  19   15.80    2.40
   6  -1 -19   -1.50    0.80
   5  -1 -19   45.20    2.70
  -5   1  19   41.70    3.20
   4  -1 -19   94.79    3.80
  -4   1  19   82.79    4.30
   3  -1 -19  140.19    5.00
  -3   1  19  129.09    5.50
  14  -2 -19  127.79    4.60
 -14   2  19  131.19    7.20
  13  -2 -19   65.79    3.00
 -13   2  19   60.59    3.70
  12  -2 -19    4.30    0.90
 -12   2  19    3.70    1.20
  11  -2 -19    0.70    0.70
 -11   2  19    0.80    1.00
  10  -2 -19  217.48    6.90
 -10   2  19  224.88    7.60
   9  -2 -19    1.50    0.80
  -9   2  19    2.50    1.00
   8  -2 -19    2.80    0.80
  -8   2  19    3.70    1.30
   7  -2 -19   21.30    2.10
  -7   2  19   23.90    2.80
   6  -2 -19   30.20    2.30
  -6   2  19   25.30    3.00
   5  -2 -19   -0.30    0.90
  -5   2  19   -1.90    1.20
   4  -2 -19   39.00    2.70
  -4   2  19   33.60    3.50
  13  -3 -19   62.59    3.00
 -13   3  19   59.79    4.30
  12  -3 -19   44.90    2.60
 -12   3  19   40.00    3.20
  11  -3 -19   -0.40    0.80
 -11   3  19    0.20    1.10
  10  -3 -19   63.09    2.80
 -10   3  19   65.49    3.80
   9  -3 -19   -0.90    0.80
  -9   3  19    1.60    1.20
   8  -3 -19    8.90    1.00
  -8   3  19    7.80    1.30
   7  -3 -19   -1.50    0.80
  -7   3  19   -1.90    1.20
   6  -3 -19  104.59    3.90
  -6   3  19   98.59    4.80
   5  -3 -19   53.59    2.90
  -5   3  19   43.60    3.80
  13  -4 -19   18.50    2.20
  12  -4 -19    0.20    0.80
 -12   4  19   -0.80    1.20
  11  -4 -19   18.60    2.10
 -11   4  19   17.30    2.80
  10  -4 -19    6.70    0.90
 -10   4  19    7.20    1.90
 -10   4  19    6.60    1.50
   9  -4 -19   29.50    2.20
  -9   4  19   29.90    3.10
  -9   4  19   29.70    4.00
   8  -4 -19  176.38    5.60
  -8   4  19  171.38    7.50
  -8   4  19  167.68    6.60
   7  -4 -19   33.70    2.50
  -7   4  19   32.20    3.40
  -6   4  19    7.00    1.50
  11  -5 -19   20.80    2.10
  10  -5 -19   66.89    2.90
 -10   5  19   59.49    4.10
   9  -5 -19    9.60    1.10
  -9   5  19    9.30    1.50
  -8   5  19    8.30    1.50
   8   8 -20    1.20    0.80
   7   8 -20   55.29    2.90
   6   8 -20    0.30    0.80
   5   8 -20    3.40    1.00
  10   7 -20  347.77   10.70
   9   7 -20  258.67    8.10
   8   7 -20   -0.60    0.80
   6   7 -20   49.90    2.80
   5   7 -20   42.90    2.60
   4   7 -20    0.70    0.90
   3   7 -20   53.79    4.10
  11   6 -20  222.88    7.20
  10   6 -20   22.90    2.10
   9   6 -20   90.79    3.60
   7   6 -20    3.20    0.90
   6   6 -20   -0.80    0.80
   5   6 -20    0.50    0.80
   4   6 -20  195.58    6.60
   3   6 -20   59.39    3.20
  12   5 -20   16.40    1.90
  11   5 -20  142.09    5.00
  10   5 -20    1.40    0.80
   9   5 -20    0.20    0.70
   8   5 -20  159.58    5.40
   7   5 -20   -0.40    0.80
   5   5 -20    3.70    1.00
  -5  -5  20    4.50    1.00
   4   5 -20  247.58    8.00
  -4  -5  20  247.18    8.20
   3   5 -20  139.79    5.20
  -3  -5  20  140.59    5.40
  12   4 -20    0.70    0.70
  11   4 -20   18.90    2.00
  10   4 -20  129.69    4.60
   9   4 -20    7.40    0.90
   8   4 -20   83.39    3.40
  -8  -4  20   78.19    3.80
   7   4 -20   -0.30    0.80
  -7  -4  20    0.30    1.00
   6   4 -20  254.57    7.90
  -6  -4  20  241.88    8.20
   5   4 -20    0.30    0.80
  -5  -4  20    1.20    1.00
   4   4 -20    4.80    1.00
  -4  -4  20    4.60    1.10
   3   4 -20   28.30    2.50
  -3  -4  20   31.60    2.90
  13   3 -20   53.59    2.80
  12   3 -20    0.10    0.70
 -12  -3  20   -0.90    0.80
  11   3 -20    0.40    0.70
 -11  -3  20   -0.90    0.90
  10   3 -20  165.58    5.50
   9   3 -20  181.98    6.00
  -9  -3  20  181.48    6.50
   8   3 -20   39.00    2.50
  -8  -3  20   41.30    3.00
   7   3 -20    0.60    0.80
  -7  -3  20    2.10    0.90
   6   3 -20  397.86   11.80
  -6  -3  20  387.96   12.20
   5   3 -20   27.70    2.30
  -5  -3  20   31.00    2.70
   4   3 -20    9.80    1.20
  -4  -3  20    7.10    1.20
   3   3 -20    0.30    0.90
  -3  -3  20   -1.50    1.00
  13   2 -20    0.40    0.80
  12   2 -20   87.89    3.50
 -12  -2  20   83.49    4.00
  11   2 -20  202.88    6.50
 -11  -2  20  200.38    7.10
  10   2 -20  129.29    4.50
 -10  -2  20  125.99    5.10
   9   2 -20   66.09    3.00
  -9  -2  20   72.09    3.60
   8   2 -20   35.20    2.30
  -8  -2  20   39.10    2.90
   7   2 -20    0.60    0.90
  -7  -2  20    3.40    1.10
   6   2 -20  108.19    4.10
  -6  -2  20  104.49    4.50
  -5  -2  20    6.80    1.20
   4   2 -20  448.86   13.30
  -4  -2  20  435.36   13.50
   3   2 -20    4.70    1.10
  -3  -2  20    4.40    1.30
  13   1 -20    0.50    0.80
  12   1 -20    1.00    0.80
 -12  -1  20   -1.60    1.00
  11   1 -20   -0.20    0.70
 -11  -1  20   -1.60    1.00
  10   1 -20   41.90    2.40
 -10  -1  20   42.90    3.10
   9   1 -20  287.77    8.80
  -9  -1  20  287.47    9.40
   8   1 -20  480.85   14.10
  -8  -1  20  475.05   14.60
   7   1 -20   28.90    2.30
  -7  -1  20   29.20    2.70
   6   1 -20   11.80    2.10
  -6  -1  20   13.10    2.60
   5   1 -20   -0.40    0.90
   4   1 -20  104.79    4.20
  -4  -1  20   94.29    4.50
  13   0 -20    2.70    0.90
  12   0 -20  145.89    4.90
 -12   0  20  137.79    5.80
  11   0 -20  322.57    9.70
 -11   0  20  317.37   10.30
  10   0 -20  241.88    7.50
 -10   0  20  236.98    8.10
   9   0 -20   22.60    2.10
  -9   0  20   29.50    2.80
  -8   0  20   -0.60    1.00
   7   0 -20   40.90    2.60
  -7   0  20   40.10    3.10
   6   0 -20   79.09    3.40
  -6   0  20   75.49    3.90
   5   0 -20   47.00    2.80
  -5   0  20   42.40    3.30
  12  -1 -20    0.10    0.80
  11  -1 -20    1.20    0.80
 -11   1  20   -1.10    1.00
  10  -1 -20    6.60    1.00
 -10   1  20    5.40    1.40
   9  -1 -20   13.90    2.00
  -9   1  20   14.00    2.60
   8  -1 -20    5.50    1.00
  -8   1  20    5.10    1.20
   7  -1 -20  101.29    3.80
  -7   1  20   84.99    4.30
   6  -1 -20  132.69    4.60
  -6   1  20  115.59    5.20
  -5   1  20   -0.90    1.20
  11  -2 -20   27.10    2.30
 -11   2  20   27.60    3.30
  10  -2 -20    9.00    1.10
 -10   2  20    8.40    1.30
   9  -2 -20  120.29    4.30
  -9   2  20  115.39    5.10
   8  -2 -20  162.08    5.50
  -8   2  20  162.78    6.30
   7  -2 -20   12.90    2.20
  -7   2  20    8.50    1.40
   9   5 -21    0.00    0.80
   7   5 -21    6.80    1.00
  -7  -5  21    6.10    1.10
  -6  -5  21  398.06   12.40
  -9  -4  21   -1.00    0.90
   8   4 -21    0.10    0.80
  -8  -4  21   -0.10    1.20
   7   4 -21   -0.70    0.80
  -7  -4  21   -0.90    1.00
  -6  -4  21    1.70    1.20
  10   3 -21   19.90    2.20
 -10  -3  21   14.20    2.20
   9   3 -21  134.69    4.80
  -9  -3  21  130.89    5.30
   8   3 -21  144.09    5.00
  -8  -3  21  137.59    5.50
   7   3 -21   39.20    2.60
  -7  -3  21   39.10    3.10
 -10  -2  21  144.99    6.40
   9   2 -21  124.29    4.50
  -9  -2  21  119.09    5.10
   8   2 -21  171.98    5.70
  -8  -2  21  162.28    6.20
  -7  -2  21   71.69    3.90
  -9  -1  21    9.20    1.30

_computing_structure_solution     'SHELXT 2014/4 (Sheldrick, 2014)'
;
_shelx_hkl_checksum              59935
loop_
_space_group_symop_operation_xyz
'x, y, z'
'-x, -y, -z'
loop_
_atom_site_label
_atom_site_type_symbol
_atom_site_fract_x
_atom_site_fract_y
_atom_site_fract_z
_atom_site_U_iso_or_equiv
_atom_site_adp_type
_atom_site_occupancy
_atom_site_site_symmetry_order
_atom_site_calc_flag
_atom_site_refinement_flags_posn
_atom_site_refinement_flags_adp
_atom_site_refinement_flags_occupancy
_atom_site_disorder_assembly
_atom_site_disorder_group
C1 C 0.49684(19) 0.83856(16) 0.35087(15) 0.0173(5) Uani 1 1 d . . . . .
C2 C 0.5623(2) 0.88226(17) 0.32566(17) 0.0217(6) Uani 1 1 d . . . . .
H1 H 0.5460 0.9036 0.2762 0.026 Uiso 1 1 calc R U . . .
C3 C 0.6530(2) 0.88734(17) 0.38673(17) 0.0211(5) Uani 1 1 d . . . . .
H2 H 0.7123 0.9142 0.3884 0.025 Uiso 1 1 calc R U . . .
C4 C 0.64305(18) 0.84524(16) 0.44767(16) 0.0176(5) Uani 1 1 d . . . . .
C5 C 0.71934(19) 0.83203(17) 0.51700(16) 0.0196(5) Uani 1 1 d . . . . .
C6 C 0.70360(19) 0.78654(17) 0.57158(17) 0.0206(5) Uani 1 1 d . . . . .
C7 C 0.7709(2) 0.7655(2) 0.64423(19) 0.0275(6) Uani 1 1 d . . . . .
H3 H 0.8386 0.7768 0.6641 0.033 Uiso 1 1 calc R U . . .
C8 C 0.7192(2) 0.7258(2) 0.68010(19) 0.0279(6) Uani 1 1 d . . . . .
H4 H 0.7442 0.7046 0.7294 0.034 Uiso 1 1 calc R U . . .
C9 C 0.6215(2) 0.72289(17) 0.62916(17) 0.0212(5) Uani 1 1 d . . . . .
C10 C 0.53261(19) 0.70173(17) 0.63229(17) 0.0197(5) Uani 1 1 d . . . . .
C11 C 0.4992(2) 0.67446(18) 0.68852(18) 0.0235(6) Uani 1 1 d . . . . .
H5 H 0.5343 0.6561 0.7378 0.028 Uiso 1 1 calc R U . . .
C12 C 0.4065(2) 0.67969(18) 0.65806(17) 0.0217(5) Uani 1 1 d . . . . .
H6 H 0.3650 0.6656 0.6824 0.026 Uiso 1 1 calc R U . . .
C13 C 0.38349(19) 0.71015(17) 0.58298(16) 0.0184(5) Uani 1 1 d . . . . .
C14 C 0.30101(19) 0.73012(17) 0.52998(16) 0.0198(5) Uani 1 1 d . . . . .
C15 C 0.29201(19) 0.75890(17) 0.45789(17) 0.0203(5) Uani 1 1 d . . . . .
C16 C 0.2078(2) 0.77473(19) 0.39799(19) 0.0269(6) Uani 1 1 d . . . . .
H7 H 0.1500 0.7714 0.4020 0.032 Uiso 1 1 calc R U . . .
C17 C 0.2247(2) 0.7956(2) 0.33341(18) 0.0270(6) Uani 1 1 d . . . . .
H8 H 0.1808 0.8083 0.2836 0.032 Uiso 1 1 calc R U . . .
C18 C 0.32063(19) 0.79461(17) 0.35558(16) 0.0203(5) Uani 1 1 d . . . . .
N1 N 0.54441(15) 0.81633(13) 0.42427(13) 0.0164(4) Uani 1 1 d . . . . .
N2 N 0.61314(15) 0.75825(14) 0.56353(13) 0.0181(4) Uani 1 1 d . . . . .
N3 N 0.46156(16) 0.72142(14) 0.56825(13) 0.0183(4) Uani 1 1 d . . . . .
N4 N 0.36251(15) 0.77255(14) 0.43039(13) 0.0174(4) Uani 1 1 d . . . . .
Ni1 Ni 0.49218(2) 0.76738(2) 0.49109(2) 0.01440(9) Uani 1 1 d . . . . .
P1 P 0.36903(5) 0.80085(4) 0.28324(4) 0.01801(15) Uani 1 1 d . . . . .
C19 C 0.82147(19) 0.86866(17) 0.53504(17) 0.0196(5) Uani 1 1 d . . . . .
C20 C 0.8583(2) 0.82442(17) 0.48737(18) 0.0229(6) Uani 1 1 d . . . . .
C21 C 0.9550(2) 0.85987(19) 0.5081(2) 0.0266(6) Uani 1 1 d . . . . .
H9 H 0.9802 0.8300 0.4758 0.032 Uiso 1 1 calc R U . . .
C22 C 1.0150(2) 0.93717(19) 0.57443(19) 0.0258(6) Uani 1 1 d . . . . .
C23 C 0.9767(2) 0.97942(18) 0.62128(19) 0.0267(6) Uani 1 1 d . . . . .
H10 H 1.0176 1.0321 0.6677 0.032 Uiso 1 1 calc R U . . .
C24 C 0.8814(2) 0.94745(19) 0.60267(17) 0.0246(6) Uani 1 1 d . . . . .
C25 C 0.7960(2) 0.7395(2) 0.4151(2) 0.0376(7) Uani 1 1 d . . . . .
H11 H 0.7738 0.7513 0.3584 0.056 Uiso 1 1 calc R U . . .
H12 H 0.7397 0.7136 0.4214 0.056 Uiso 1 1 calc R U . . .
H13 H 0.8342 0.6983 0.4183 0.056 Uiso 1 1 calc R U . . .
C26 C 1.1183(2) 0.9762(2) 0.5945(2) 0.0345(7) Uani 1 1 d . . . . .
H14 H 1.1364 0.9335 0.5626 0.052 Uiso 1 1 calc R U . . .
H15 H 1.1617 0.9906 0.6574 0.052 Uiso 1 1 calc R U . . .
H16 H 1.1239 1.0299 0.5764 0.052 Uiso 1 1 calc R U . . .
C27 C 0.8415(2) 0.9972(2) 0.6531(2) 0.0371(7) Uani 1 1 d . . . . .
H17 H 0.8923 1.0511 0.6960 0.056 Uiso 1 1 calc R U . . .
H18 H 0.8201 0.9601 0.6833 0.056 Uiso 1 1 calc R U . . .
H19 H 0.7862 1.0124 0.6125 0.056 Uiso 1 1 calc R U . . .
C28 C 0.22118(19) 0.72390(18) 0.55362(17) 0.0210(5) Uani 1 1 d . . . . .
C29 C 0.23068(19) 0.79419(18) 0.61856(17) 0.0214(5) Uani 1 1 d . . . . .
C30 C 0.1585(2) 0.78816(19) 0.64296(17) 0.0236(6) Uani 1 1 d . . . . .
H20 H 0.1653 0.8355 0.6875 0.028 Uiso 1 1 calc R U . . .
C31 C 0.0767(2) 0.71473(19) 0.60399(18) 0.0239(6) Uani 1 1 d . . . . .
C32 C 0.06801(19) 0.64692(19) 0.53842(17) 0.0232(6) Uani 1 1 d . . . . .
H21 H 0.0118 0.5969 0.5103 0.028 Uiso 1 1 calc R U . . .
C33 C 0.1389(2) 0.64943(18) 0.51227(17) 0.0231(6) Uani 1 1 d . . . . .
C34 C 0.3172(2) 0.87617(19) 0.66024(18) 0.0256(6) Uani 1 1 d . . . . .
H22 H 0.3765 0.8617 0.6941 0.038 Uiso 1 1 calc R U . . .
H23 H 0.3085 0.9208 0.6991 0.038 Uiso 1 1 calc R U . . .
H24 H 0.3228 0.8991 0.6146 0.038 Uiso 1 1 calc R U . . .
C35 C 0.0005(2) 0.7086(2) 0.6331(2) 0.0323(7) Uani 1 1 d . . . . .
H25 H 0.0148 0.6778 0.6777 0.048 Uiso 1 1 calc R U . . .
H26 H -0.0636 0.6761 0.5829 0.048 Uiso 1 1 calc R U . . .
H27 H 0.0008 0.7680 0.6575 0.048 Uiso 1 1 calc R U . . .
C36 C 0.1237(2) 0.5745(2) 0.4392(2) 0.0341(7) Uani 1 1 d . . . . .
H28 H 0.0886 0.5191 0.4413 0.051 Uiso 1 1 calc R U . . .
H29 H 0.1869 0.5714 0.4456 0.051 Uiso 1 1 calc R U . . .
H30 H 0.0858 0.5843 0.3830 0.051 Uiso 1 1 calc R U . . .
C37 C 0.33672(18) 0.89054(17) 0.23966(16) 0.0188(5) Uani 1 1 d . . . . .
C38 C 0.3698(2) 0.97824(18) 0.29295(17) 0.0231(6) Uani 1 1 d . . . . .
C39 C 0.3420(2) 1.04259(18) 0.25389(19) 0.0258(6) Uani 1 1 d . . . . .
H31 H 0.3644 1.1018 0.2894 0.031 Uiso 1 1 calc R U . . .
C40 C 0.2823(2) 1.02234(19) 0.16395(19) 0.0262(6) Uani 1 1 d . . . . .
C41 C 0.2503(2) 0.9364(2) 0.11334(18) 0.0254(6) Uani 1 1 d . . . . .
H32 H 0.2096 0.9224 0.0521 0.030 Uiso 1 1 calc R U . . .
C42 C 0.27538(19) 0.86885(18) 0.14875(16) 0.0210(5) Uani 1 1 d . . . . .
C43 C 0.4328(2) 1.00506(19) 0.39067(18) 0.0307(7) Uani 1 1 d . . . . .
H33 H 0.5003 1.0107 0.4048 0.046 Uiso 1 1 calc R U . . .
H34 H 0.4104 0.9602 0.4139 0.046 Uiso 1 1 calc R U . . .
H35 H 0.4286 1.0617 0.4169 0.046 Uiso 1 1 calc R U . . .
C44 C 0.2523(2) 1.0941(2) 0.1246(2) 0.0363(7) Uani 1 1 d . . . . .
H36 H 0.2327 1.0759 0.0622 0.054 Uiso 1 1 calc R U . . .
H37 H 0.3071 1.1484 0.1541 0.054 Uiso 1 1 calc R U . . .
H38 H 0.1975 1.1045 0.1319 0.054 Uiso 1 1 calc R U . . .
C45 C 0.2347(2) 0.7756(2) 0.08970(17) 0.0284(6) Uani 1 1 d . . . . .
H39 H 0.1820 0.7722 0.0329 0.043 Uiso 1 1 calc R U . . .
H40 H 0.2094 0.7363 0.1161 0.043 Uiso 1 1 calc R U . . .
H41 H 0.2862 0.7578 0.0817 0.043 Uiso 1 1 calc R U . . .
C46 C 0.70266(19) 0.55963(17) 0.91082(17) 0.0209(5) Uani 1 1 d . . . . .
C47 C 0.7151(2) 0.63044(18) 0.87583(18) 0.0243(6) Uani 1 1 d . . . . .
H42 H 0.6910 0.6269 0.8158 0.029 Uiso 1 1 calc R U . . .
C48 C 0.76801(19) 0.70412(18) 0.94484(18) 0.0238(6) Uani 1 1 d . . . . .
H43 H 0.7870 0.7622 0.9419 0.029 Uiso 1 1 calc R U . . .
C49 C 0.79017(19) 0.67904(17) 1.02247(17) 0.0210(5) Uani 1 1 d . . . . .
C50 C 0.84921(19) 0.73541(17) 1.10754(17) 0.0207(5) Uani 1 1 d . . . . .
C51 C 0.87529(19) 0.70470(17) 1.18022(17) 0.0210(5) Uani 1 1 d . . . . .
C52 C 0.94009(19) 0.74831(18) 1.27108(17) 0.0230(6) Uani 1 1 d . . . . .
H44 H 0.9769 0.8089 1.2963 0.028 Uiso 1 1 calc R U . . .
C53 C 0.9396(2) 0.68709(18) 1.31513(17) 0.0234(6) Uani 1 1 d . . . . .
H45 H 0.9765 0.6967 1.3763 0.028 Uiso 1 1 calc R U . . .
C54 C 0.87364(19) 0.60692(17) 1.25191(16) 0.0201(5) Uani 1 1 d . . . . .
C55 C 0.83253(19) 0.51961(17) 1.24895(16) 0.0207(5) Uani 1 1 d . . . . .
C56 C 0.8382(2) 0.46967(19) 1.30812(17) 0.0253(6) Uani 1 1 d . . . . .
H46 H 0.8784 0.4896 1.3698 0.030 Uiso 1 1 calc R U . . .
C57 C 0.7743(2) 0.38693(18) 1.25887(17) 0.0227(6) Uani 1 1 d . . . . .
H47 H 0.7622 0.3386 1.2801 0.027 Uiso 1 1 calc R U . . .
C58 C 0.72970(19) 0.38725(17) 1.17000(17) 0.0196(5) Uani 1 1 d . . . . .
C59 C 0.65812(19) 0.32093(17) 1.09442(16) 0.0179(5) Uani 1 1 d . . . . .
C60 C 0.62560(18) 0.33312(16) 1.01169(16) 0.0174(5) Uani 1 1 d . . . . .
C61 C 0.55366(19) 0.26877(17) 0.93190(16) 0.0192(5) Uani 1 1 d . . . . .
H48 H 0.5167 0.2123 0.9261 0.023 Uiso 1 1 calc R U . . .
C62 C 0.54726(19) 0.30250(17) 0.86539(16) 0.0191(5) Uani 1 1 d . . . . .
H49 H 0.5058 0.2742 0.8046 0.023 Uiso 1 1 calc R U . . .
C63 C 0.61471(19) 0.38826(17) 0.90467(16) 0.0183(5) Uani 1 1 d . . . . .
N5 N 0.74781(15) 0.58760(14) 0.99914(13) 0.0185(4) Uani 1 1 d . . . . .
N6 N 0.83684(16) 0.61774(14) 1.17114(14) 0.0199(5) Uani 1 1 d . . . . .
N7 N 0.76792(16) 0.46858(14) 1.16641(14) 0.0191(4) Uani 1 1 d . . . . .
N8 N 0.66188(15) 0.40856(14) 0.99277(13) 0.0169(4) Uani 1 1 d . . . . .
Ni2 Ni 0.75041(2) 0.51914(2) 1.07657(2) 0.01641(9) Uani 1 1 d . . . . .
P2 P 0.65314(5) 0.44866(4) 0.84552(4) 0.02161(16) Uani 1 1 d . . . . .
C64 C 0.8870(2) 0.83143(17) 1.11847(17) 0.0232(6) Uani 1 1 d . . . . .
C65 C 0.9663(2) 0.86133(18) 1.10597(19) 0.0274(6) Uani 1 1 d . . . . .
C66 C 0.9983(2) 0.9505(2) 1.1127(2) 0.0324(7) Uani 1 1 d . . . . .
H50 H 1.0522 0.9709 1.1038 0.039 Uiso 1 1 calc R U . . .
C67 C 0.9530(2) 1.00966(19) 1.13196(19) 0.0311(7) Uani 1 1 d . . . . .
C68 C 0.8748(2) 0.97841(19) 1.14501(19) 0.0301(6) Uani 1 1 d . . . . .
H51 H 0.8439 1.0187 1.1591 0.036 Uiso 1 1 calc R U . . .
C69 C 0.8396(2) 0.89014(19) 1.13816(18) 0.0270(6) Uani 1 1 d . . . . .
C70 C 1.0181(2) 0.7998(2) 1.0856(3) 0.0406(8) Uani 1 1 d . . . . .
H52 H 1.0184 0.7555 1.1167 0.061 Uiso 1 1 calc R U . . .
H53 H 1.0852 0.8332 1.1043 0.061 Uiso 1 1 calc R U . . .
H54 H 0.9846 0.7704 1.0225 0.061 Uiso 1 1 calc R U . . .
C71 C 0.9898(2) 1.1054(2) 1.1387(2) 0.0421(8) Uani 1 1 d . . . . .
H55 H 0.9735 1.1111 1.0804 0.063 Uiso 1 1 calc R U . . .
H56 H 1.0605 1.1271 1.1762 0.063 Uiso 1 1 calc R U . . .
H57 H 0.9592 1.1401 1.1640 0.063 Uiso 1 1 calc R U . . .
C72 C 0.7539(3) 0.8592(2) 1.1522(2) 0.0386(7) Uani 1 1 d . . . . .
H58 H 0.7759 0.8445 1.2074 0.058 Uiso 1 1 calc R U . . .
H59 H 0.7065 0.8069 1.1039 0.058 Uiso 1 1 calc R U . . .
H60 H 0.7237 0.9061 1.1543 0.058 Uiso 1 1 calc R U . . .
C73 C 0.61668(19) 0.23343(16) 1.10165(16) 0.0190(5) Uani 1 1 d . . . . .
C74 C 0.6695(2) 0.17302(17) 1.11178(16) 0.0212(5) Uani 1 1 d . . . . .
C75 C 0.6293(2) 0.09131(18) 1.11727(17) 0.0247(6) Uani 1 1 d . . . . .
H61 H 0.6650 0.0501 1.1241 0.030 Uiso 1 1 calc R U . . .
C76 C 0.5395(2) 0.06851(18) 1.11312(17) 0.0265(6) Uani 1 1 d . . . . .
C77 C 0.4884(2) 0.12962(19) 1.10321(17) 0.0261(6) Uani 1 1 d . . . . .
H62 H 0.4266 0.1150 1.1005 0.031 Uiso 1 1 calc R U . . .
C78 C 0.5257(2) 0.21204(17) 1.09719(17) 0.0216(5) Uani 1 1 d . . . . .
C79 C 0.7683(2) 0.1941(2) 1.1175(2) 0.0287(6) Uani 1 1 d . . . . .
H63 H 0.7708 0.2315 1.0804 0.043 Uiso 1 1 calc R U . . .
H64 H 0.7804 0.1393 1.0977 0.043 Uiso 1 1 calc R U . . .
H65 H 0.8181 0.2252 1.1782 0.043 Uiso 1 1 calc R U . . .
C80 C 0.4978(2) -0.02014(19) 1.1201(2) 0.0354(7) Uani 1 1 d . . . . .
H66 H 0.4495 -0.0593 1.0616 0.053 Uiso 1 1 calc R U . . .
H67 H 0.4667 -0.0126 1.1568 0.053 Uiso 1 1 calc R U . . .
H68 H 0.5501 -0.0459 1.1463 0.053 Uiso 1 1 calc R U . . .
C81 C 0.4684(2) 0.2768(2) 1.0884(2) 0.0288(6) Uani 1 1 d . . . . .
H69 H 0.5070 0.3309 1.1373 0.043 Uiso 1 1 calc R U . . .
H70 H 0.4080 0.2511 1.0889 0.043 Uiso 1 1 calc R U . . .
H71 H 0.4529 0.2906 1.0332 0.043 Uiso 1 1 calc R U . . .
C82 C 0.5527(7) 0.4457(7) 0.7465(7) 0.0220(18) Uani 0.682(9) 1 d . U P A 1
C83 C 0.4648(6) 0.4558(5) 0.7421(4) 0.0249(16) Uani 0.682(9) 1 d . U P A 1
C84 C 0.3917(4) 0.4570(3) 0.6635(5) 0.0322(14) Uani 0.682(9) 1 d . U P A 1
H72 H 0.3321 0.4622 0.6601 0.039 Uiso 0.682(9) 1 calc R U P A 1
C85 C 0.4034(6) 0.4506(4) 0.5901(4) 0.0359(17) Uani 0.682(9) 1 d . U P A 1
C86 C 0.4919(6) 0.4417(3) 0.5954(3) 0.0301(14) Uani 0.682(9) 1 d . U P A 1
H73 H 0.5005 0.4366 0.5452 0.036 Uiso 0.682(9) 1 calc R U P A 1
C87 C 0.5662(6) 0.4401(4) 0.6729(4) 0.0249(14) Uani 0.682(9) 1 d . U P A 1
C88 C 0.4465(9) 0.4675(8) 0.8191(6) 0.031(2) Uani 0.682(9) 1 d . U P A 1
H74 H 0.3937 0.4938 0.8081 0.047 Uiso 0.682(9) 1 calc R U P A 1
H75 H 0.5057 0.5062 0.8716 0.047 Uiso 0.682(9) 1 calc R U P A 1
H76 H 0.4283 0.4100 0.8277 0.047 Uiso 0.682(9) 1 calc R U P A 1
C89 C 0.3265(6) 0.4554(4) 0.5058(4) 0.0523(19) Uani 0.682(9) 1 d . U P A 1
H77 H 0.2622 0.4246 0.4965 0.078 Uiso 0.682(9) 1 calc R U P A 1
H78 H 0.3357 0.4274 0.4574 0.078 Uiso 0.682(9) 1 calc R U P A 1
H79 H 0.3313 0.5172 0.5084 0.078 Uiso 0.682(9) 1 calc R U P A 1
C90 C 0.6616(6) 0.4373(4) 0.6760(4) 0.0285(14) Uani 0.682(9) 1 d . U P A 1
H80 H 0.6528 0.4231 0.6165 0.043 Uiso 0.682(9) 1 calc R U P A 1
H81 H 0.6832 0.3922 0.7028 0.043 Uiso 0.682(9) 1 calc R U P A 1
H82 H 0.7107 0.4949 0.7107 0.043 Uiso 0.682(9) 1 calc R U P A 1
C91 C 1.0014(4) 0.4790(3) 1.1217(4) 0.0502(12) Uani 0.756(3) 1 d . . P B 1
H83 H 0.9404 0.4835 1.0750 0.060 Uiso 0.756(3) 1 calc R U P B 1
Cl1 Cl 1.07111(10) 0.58439(8) 1.19330(9) 0.0534(4) Uani 0.756(3) 1 d . . P B 1
Cl2 Cl 1.06401(13) 0.43532(11) 1.07158(11) 0.0728(5) Uani 0.756(3) 1 d . . P B
1
Cl3 Cl 0.9693(2) 0.41059(15) 1.17666(17) 0.0809(7) Uani 0.756(3) 1 d . U P B 1
C92 C 1.0529(14) 0.4036(13) 1.1847(15) 0.081(6) Uani 0.244(3) 1 d D . P B 3
H84 H 1.0914 0.4404 1.1641 0.098 Uiso 0.244(3) 1 calc R U P B 3
Cl4 Cl 0.9390(10) 0.4174(10) 1.1143(17) 0.303(12) Uani 0.244(3) 1 d D U P B 3
Cl5 Cl 1.1402(7) 0.4259(8) 1.2806(7) 0.146(4) Uani 0.244(3) 1 d . . P B 3
Cl6 Cl 1.0517(9) 0.3049(7) 1.1289(8) 0.178(5) Uani 0.244(3) 1 d . . P B 3
C93 C 0.6144(14) 0.4319(9) 0.6591(10) 0.035(4) Uani 0.318(9) 1 d . U P A 2
H85 H 0.5931 0.4116 0.5965 0.052 Uiso 0.318(9) 1 calc R U P A 2
H86 H 0.6389 0.3882 0.6867 0.052 Uiso 0.318(9) 1 calc R U P A 2
H87 H 0.6662 0.4883 0.6858 0.052 Uiso 0.318(9) 1 calc R U P A 2
C94 C 0.2797(12) 0.4583(8) 0.5331(9) 0.058(4) Uani 0.318(9) 1 d . U P A 2
H88 H 0.2290 0.4624 0.5492 0.088 Uiso 0.318(9) 1 calc R U P A 2
H89 H 0.2557 0.4046 0.4848 0.088 Uiso 0.318(9) 1 calc R U P A 2
H90 H 0.2967 0.5097 0.5147 0.088 Uiso 0.318(9) 1 calc R U P A 2
C95 C 0.4584(17) 0.4798(16) 0.8523(12) 0.028(4) Uani 0.318(9) 1 d . . P A 2
H91 H 0.4418 0.4227 0.8621 0.041 Uiso 0.318(9) 1 calc R U P A 2
H92 H 0.4107 0.5099 0.8519 0.041 Uiso 0.318(9) 1 calc R U P A 2
H93 H 0.5233 0.5159 0.8992 0.041 Uiso 0.318(9) 1 calc R U P A 2
C96 C 0.5316(11) 0.4432(10) 0.6717(10) 0.030(3) Uani 0.318(9) 1 d . U P A 2
C97 C 0.4462(14) 0.4420(8) 0.6005(9) 0.033(3) Uani 0.318(9) 1 d . U P A 2
H94 H 0.4404 0.4317 0.5438 0.039 Uiso 0.318(9) 1 calc R U P A 2
C98 C 0.3717(12) 0.4556(8) 0.6135(13) 0.041(3) Uani 0.318(9) 1 d . U P A 2
C99 C 0.3752(10) 0.4683(8) 0.6953(10) 0.039(3) Uani 0.318(9) 1 d . U P A 2
H95 H 0.3218 0.4782 0.7018 0.046 Uiso 0.318(9) 1 calc R U P A 2
C100 C 0.4576(13) 0.4661(11) 0.7670(11) 0.025(3) Uani 0.318(9) 1 d . U P A 2
C101 C 0.5343(16) 0.4529(17) 0.7545(15) 0.023(3) Uani 0.318(9) 1 d . U P A 2
loop_
_atom_site_aniso_label
_atom_site_aniso_U_11
_atom_site_aniso_U_22
_atom_site_aniso_U_33
_atom_site_aniso_U_23
_atom_site_aniso_U_13
_atom_site_aniso_U_12
C1 0.0197(13) 0.0159(12) 0.0120(11) 0.0023(9) 0.0068(10) 0.0000(10)
C2 0.0251(14) 0.0219(13) 0.0174(12) 0.0082(10) 0.0110(11) 0.0013(11)
C3 0.0192(13) 0.0238(14) 0.0204(13) 0.0085(11) 0.0112(11) 0.0009(11)
C4 0.0168(13) 0.0176(12) 0.0176(12) 0.0043(10) 0.0099(10) 0.0006(10)
C5 0.0176(13) 0.0211(13) 0.0189(12) 0.0045(10) 0.0101(11) 0.0011(11)
C6 0.0160(13) 0.0231(14) 0.0213(13) 0.0085(11) 0.0081(11) 0.0035(11)
C7 0.0200(14) 0.0349(16) 0.0310(15) 0.0174(13) 0.0116(12) 0.0101(12)
C8 0.0222(15) 0.0375(17) 0.0309(15) 0.0234(13) 0.0123(12) 0.0122(13)
C9 0.0217(14) 0.0225(14) 0.0219(13) 0.0109(11) 0.0114(11) 0.0058(11)
C10 0.0189(13) 0.0208(13) 0.0197(12) 0.0092(10) 0.0088(11) 0.0047(11)
C11 0.0252(15) 0.0261(14) 0.0240(13) 0.0163(11) 0.0127(12) 0.0078(12)
C12 0.0225(14) 0.0248(14) 0.0210(13) 0.0098(11) 0.0134(11) 0.0039(11)
C13 0.0176(13) 0.0207(13) 0.0169(12) 0.0069(10) 0.0097(10) 0.0013(10)
C14 0.0178(13) 0.0213(13) 0.0193(12) 0.0066(10) 0.0099(11) 0.0007(11)
C15 0.0154(13) 0.0233(14) 0.0222(13) 0.0096(11) 0.0094(11) 0.0019(11)
C16 0.0201(14) 0.0343(16) 0.0296(15) 0.0157(12) 0.0128(12) 0.0079(12)
C17 0.0188(14) 0.0387(17) 0.0260(14) 0.0192(12) 0.0095(11) 0.0081(12)
C18 0.0199(13) 0.0217(13) 0.0187(12) 0.0088(10) 0.0094(11) 0.0024(11)
N1 0.0152(11) 0.0171(11) 0.0144(10) 0.0042(8) 0.0066(8) 0.0013(8)
N2 0.0161(11) 0.0230(11) 0.0164(10) 0.0089(9) 0.0084(9) 0.0040(9)
N3 0.0179(11) 0.0204(11) 0.0171(10) 0.0084(9) 0.0084(9) 0.0041(9)
N4 0.0160(11) 0.0206(11) 0.0158(10) 0.0076(8) 0.0084(9) 0.0019(9)
Ni1 0.01327(17) 0.01675(17) 0.01282(16) 0.00644(12) 0.00642(13) 0.00156(13)
P1 0.0169(3) 0.0205(3) 0.0129(3) 0.0069(2) 0.0053(3) 0.0006(3)
C19 0.0152(13) 0.0232(14) 0.0215(13) 0.0125(11) 0.0085(10) 0.0034(11)
C20 0.0208(14) 0.0193(13) 0.0292(14) 0.0093(11) 0.0128(12) 0.0033(11)
C21 0.0235(15) 0.0276(15) 0.0392(16) 0.0166(13) 0.0210(13) 0.0088(12)
C22 0.0162(14) 0.0280(15) 0.0354(15) 0.0200(12) 0.0109(12) 0.0052(11)
C23 0.0197(14) 0.0218(14) 0.0291(14) 0.0094(11) 0.0053(12) -0.0001(11)
C24 0.0218(14) 0.0275(15) 0.0219(13) 0.0094(11) 0.0090(11) 0.0041(12)
C25 0.0295(17) 0.0290(16) 0.050(2) -0.0010(14) 0.0239(15) 0.0005(13)
C26 0.0191(15) 0.0298(16) 0.056(2) 0.0243(15) 0.0155(14) 0.0053(12)
C27 0.0289(17) 0.0394(18) 0.0324(16) -0.0022(14) 0.0140(14) 0.0017(14)
C28 0.0184(13) 0.0288(14) 0.0208(13) 0.0146(11) 0.0111(11) 0.0065(11)
C29 0.0180(13) 0.0286(14) 0.0198(13) 0.0145(11) 0.0082(11) 0.0070(11)
C30 0.0266(15) 0.0302(15) 0.0228(13) 0.0156(11) 0.0151(12) 0.0122(12)
C31 0.0209(14) 0.0346(16) 0.0250(14) 0.0198(12) 0.0135(12) 0.0110(12)
C32 0.0166(13) 0.0297(15) 0.0229(13) 0.0136(11) 0.0089(11) 0.0018(11)
C33 0.0195(14) 0.0279(15) 0.0218(13) 0.0128(11) 0.0093(11) 0.0036(11)
C34 0.0240(15) 0.0275(15) 0.0250(14) 0.0085(11) 0.0125(12) 0.0048(12)
C35 0.0268(16) 0.0466(19) 0.0324(16) 0.0180(14) 0.0200(13) 0.0101(14)
C36 0.0277(16) 0.0349(17) 0.0357(16) 0.0053(13) 0.0181(14) -0.0005(13)
C37 0.0171(13) 0.0241(13) 0.0173(12) 0.0102(10) 0.0094(10) 0.0040(11)
C38 0.0223(14) 0.0262(14) 0.0210(13) 0.0090(11) 0.0115(11) 0.0035(11)
C39 0.0277(15) 0.0209(14) 0.0296(15) 0.0111(11) 0.0145(12) 0.0041(12)
C40 0.0227(14) 0.0318(16) 0.0322(15) 0.0201(13) 0.0160(12) 0.0087(12)
C41 0.0197(14) 0.0395(17) 0.0193(13) 0.0153(12) 0.0092(11) 0.0080(12)
C42 0.0150(13) 0.0312(15) 0.0172(12) 0.0088(11) 0.0089(10) 0.0039(11)
C43 0.0391(18) 0.0248(15) 0.0198(14) 0.0042(11) 0.0094(13) 0.0058(13)
C44 0.0342(17) 0.0429(19) 0.0426(18) 0.0292(15) 0.0191(15) 0.0171(15)
C45 0.0268(15) 0.0350(16) 0.0163(13) 0.0033(11) 0.0055(11) 0.0106(13)
C46 0.0192(13) 0.0205(13) 0.0203(13) 0.0091(10) 0.0072(11) 0.0032(11)
C47 0.0201(14) 0.0270(15) 0.0206(13) 0.0125(11) 0.0052(11) 0.0024(11)
C48 0.0194(14) 0.0229(14) 0.0282(14) 0.0150(11) 0.0090(11) 0.0033(11)
C49 0.0163(13) 0.0203(13) 0.0238(13) 0.0102(11) 0.0070(11) 0.0035(11)
C50 0.0158(13) 0.0161(13) 0.0252(13) 0.0068(10) 0.0065(11) 0.0018(10)
C51 0.0192(13) 0.0165(13) 0.0240(13) 0.0051(10) 0.0090(11) 0.0029(11)
C52 0.0186(13) 0.0190(13) 0.0235(13) 0.0026(10) 0.0069(11) 0.0007(11)
C53 0.0238(14) 0.0229(14) 0.0175(12) 0.0037(10) 0.0076(11) 0.0029(11)
C54 0.0201(13) 0.0203(13) 0.0188(12) 0.0069(10) 0.0088(11) 0.0041(11)
C55 0.0196(13) 0.0211(13) 0.0158(12) 0.0044(10) 0.0060(10) 0.0012(11)
C56 0.0260(15) 0.0288(15) 0.0137(12) 0.0083(11) 0.0054(11) 0.0008(12)
C57 0.0239(14) 0.0256(14) 0.0181(13) 0.0113(11) 0.0098(11) 0.0028(11)
C58 0.0217(14) 0.0177(13) 0.0210(13) 0.0084(10) 0.0112(11) 0.0044(11)
C59 0.0187(13) 0.0180(13) 0.0198(12) 0.0082(10) 0.0110(10) 0.0050(10)
C60 0.0190(13) 0.0140(12) 0.0208(12) 0.0070(10) 0.0098(11) 0.0062(10)
C61 0.0193(13) 0.0148(12) 0.0215(13) 0.0055(10) 0.0088(11) 0.0033(10)
C62 0.0207(13) 0.0168(13) 0.0171(12) 0.0040(10) 0.0072(10) 0.0057(10)
C63 0.0209(13) 0.0186(13) 0.0179(12) 0.0085(10) 0.0095(10) 0.0079(11)
N5 0.0163(11) 0.0174(11) 0.0168(10) 0.0068(8) 0.0045(9) 0.0017(9)
N6 0.0184(11) 0.0180(11) 0.0180(11) 0.0057(9) 0.0060(9) 0.0008(9)
N7 0.0193(11) 0.0173(11) 0.0167(10) 0.0061(8) 0.0064(9) 0.0017(9)
N8 0.0184(11) 0.0157(10) 0.0168(10) 0.0067(8) 0.0086(9) 0.0038(9)
Ni2 0.01644(18) 0.01477(17) 0.01414(16) 0.00563(12) 0.00523(13) 0.00058(13)
P2 0.0255(4) 0.0203(3) 0.0156(3) 0.0074(3) 0.0082(3) 0.0017(3)
C64 0.0199(14) 0.0186(13) 0.0221(13) 0.0071(10) 0.0037(11) 0.0018(11)
C65 0.0210(14) 0.0210(14) 0.0320(15) 0.0080(12) 0.0071(12) 0.0024(11)
C66 0.0216(15) 0.0260(15) 0.0405(17) 0.0129(13) 0.0090(13) -0.0001(12)
C67 0.0272(16) 0.0196(14) 0.0299(15) 0.0089(12) 0.0016(12) 0.0004(12)
C68 0.0314(16) 0.0221(15) 0.0284(15) 0.0069(12) 0.0075(13) 0.0077(12)
C69 0.0261(15) 0.0243(15) 0.0244(14) 0.0088(11) 0.0071(12) 0.0052(12)
C70 0.0252(16) 0.0266(16) 0.069(2) 0.0156(16) 0.0228(16) 0.0043(13)
C71 0.0333(18) 0.0252(17) 0.050(2) 0.0138(14) 0.0068(15) 0.0012(14)
C72 0.0433(19) 0.0305(17) 0.0489(19) 0.0113(14) 0.0280(16) 0.0118(15)
C73 0.0248(14) 0.0163(13) 0.0129(11) 0.0039(9) 0.0087(10) 0.0011(11)
C74 0.0261(14) 0.0229(14) 0.0148(12) 0.0068(10) 0.0104(11) 0.0056(11)
C75 0.0366(16) 0.0191(13) 0.0198(13) 0.0089(11) 0.0132(12) 0.0096(12)
C76 0.0363(17) 0.0199(14) 0.0175(13) 0.0062(10) 0.0118(12) -0.0013(12)
C77 0.0254(15) 0.0276(15) 0.0214(13) 0.0077(11) 0.0116(12) -0.0011(12)
C78 0.0224(14) 0.0215(14) 0.0187(12) 0.0063(10) 0.0099(11) 0.0019(11)
C79 0.0311(16) 0.0319(16) 0.0349(16) 0.0187(13) 0.0213(13) 0.0130(13)
C80 0.0433(19) 0.0222(15) 0.0278(15) 0.0097(12) 0.0117(14) -0.0058(13)
C81 0.0252(15) 0.0331(16) 0.0330(15) 0.0131(13) 0.0174(13) 0.0079(13)
C82 0.026(3) 0.011(2) 0.020(2) 0.0042(18) 0.005(2) 0.001(2)
C83 0.028(2) 0.012(2) 0.024(3) 0.006(2) 0.006(2) 0.0013(18)
C84 0.033(3) 0.017(2) 0.026(3) 0.006(2) 0.000(2) 0.0013(17)
C85 0.040(4) 0.018(2) 0.027(3) 0.0041(18) -0.001(3) 0.004(2)
C86 0.045(3) 0.0143(19) 0.0169(19) 0.0060(14) 0.005(2) 0.004(2)
C87 0.032(3) 0.017(2) 0.020(2) 0.0053(15) 0.008(2) 0.007(3)
C88 0.024(3) 0.023(3) 0.040(6) 0.011(4) 0.010(4) 0.006(3)
C89 0.058(4) 0.038(3) 0.025(3) 0.007(2) -0.008(3) 0.009(3)
C90 0.044(4) 0.022(2) 0.020(3) 0.008(2) 0.016(3) 0.009(3)
C91 0.045(3) 0.037(3) 0.059(3) 0.003(2) 0.023(2) 0.006(2)
Cl1 0.0611(8) 0.0401(7) 0.0536(7) 0.0026(5) 0.0294(6) 0.0100(6)
Cl2 0.0786(11) 0.0643(9) 0.0855(11) 0.0037(8) 0.0536(9) 0.0259(8)
Cl3 0.0958(18) 0.0570(10) 0.1275(17) 0.0342(11) 0.0857(16) 0.0179(11)
C92 0.065(13) 0.052(11) 0.093(16) 0.006(10) 0.017(12) 0.012(10)
Cl4 0.099(8) 0.130(10) 0.54(3) -0.085(16) 0.115(15) 0.000(7)
Cl5 0.126(7) 0.192(10) 0.186(9) 0.110(8) 0.105(7) 0.061(7)
Cl6 0.164(10) 0.117(7) 0.184(11) 0.018(7) 0.034(8) 0.041(7)
C93 0.046(8) 0.024(5) 0.018(5) 0.009(4) 0.001(6) 0.007(7)
C94 0.053(7) 0.036(6) 0.037(6) 0.003(5) -0.016(6) 0.007(5)
C95 0.022(8) 0.021(8) 0.038(10) 0.016(8) 0.009(9) 0.011(6)
C96 0.035(4) 0.017(3) 0.023(3) 0.005(3) 0.004(4) 0.003(4)
C97 0.038(5) 0.020(3) 0.023(3) 0.005(3) 0.002(4) 0.005(4)
C98 0.046(5) 0.016(4) 0.030(5) 0.008(4) -0.006(4) 0.003(4)
C99 0.036(4) 0.020(4) 0.032(5) 0.007(4) -0.003(4) -0.001(3)
C100 0.029(4) 0.013(4) 0.022(5) 0.007(4) 0.003(4) 0.003(3)
C101 0.027(5) 0.016(4) 0.015(4) 0.006(3) 0.001(4) 0.004(4)
loop_
_atom_type_symbol
_atom_type_description
_atom_type_scat_dispersion_real
_atom_type_scat_dispersion_imag
_atom_type_scat_source
C C 0.0033 0.0016 'International Tables Vol C Tables 4.2.6.8 and 6.1.1.4'
H H 0.0000 0.0000 'International Tables Vol C Tables 4.2.6.8 and 6.1.1.4'
N N 0.0061 0.0033 'International Tables Vol C Tables 4.2.6.8 and 6.1.1.4'
P P 0.1023 0.0942 'International Tables Vol C Tables 4.2.6.8 and 6.1.1.4'
Ni Ni 0.3393 1.1124 'International Tables Vol C Tables 4.2.6.8 and 6.1.1.4'
Cl Cl 0.1484 0.1585 'International Tables Vol C Tables 4.2.6.8 and 6.1.1.4'
loop_
_geom_angle_atom_site_label_1
_geom_angle_atom_site_label_2
_geom_angle_atom_site_label_3
_geom_angle
N1 C1 C2 111.5(2)
N1 C1 P1 124.23(19)
C2 C1 P1 123.28(19)
C3 C2 C1 106.1(2)
C3 C2 H1 126.9
C1 C2 H1 126.9
C2 C3 C4 107.8(2)
C2 C3 H2 126.1
C4 C3 H2 126.1
C5 C4 N1 126.0(2)
C5 C4 C3 125.1(2)
N1 C4 C3 108.9(2)
C6 C5 C4 121.9(2)
C6 C5 C19 118.3(2)
C4 C5 C19 119.8(2)
N2 C6 C5 121.2(2)
N2 C6 C7 108.5(2)
C5 C6 C7 130.2(2)
C8 C7 C6 107.1(2)
C8 C7 H3 126.4
C6 C7 H3 126.4
C7 C8 C9 106.6(2)
C7 C8 H4 126.7
C9 C8 H4 126.7
N2 C9 C8 109.9(2)
N2 C9 C10 111.6(2)
C8 C9 C10 138.1(2)
N3 C10 C11 109.8(2)
N3 C10 C9 111.7(2)
C11 C10 C9 138.1(2)
C12 C11 C10 106.6(2)
C12 C11 H5 126.7
C10 C11 H5 126.7
C11 C12 C13 107.4(2)
C11 C12 H6 126.3
C13 C12 H6 126.3
N3 C13 C14 120.7(2)
N3 C13 C12 108.4(2)
C14 C13 C12 130.9(2)
C13 C14 C15 122.3(2)
C13 C14 C28 118.4(2)
C15 C14 C28 119.3(2)
C14 C15 N4 125.9(2)
C14 C15 C16 125.2(2)
N4 C15 C16 108.9(2)
C17 C16 C15 107.8(2)
C17 C16 H7 126.1
C15 C16 H7 126.1
C16 C17 C18 106.3(2)
C16 C17 H8 126.8
C18 C17 H8 126.8
N4 C18 C17 111.5(2)
N4 C18 P1 124.6(2)
C17 C18 P1 122.9(2)
C1 N1 C4 105.6(2)
C1 N1 Ni1 128.02(17)
C4 N1 Ni1 126.03(16)
C9 N2 C6 107.9(2)
C9 N2 Ni1 117.80(18)
C6 N2 Ni1 134.01(17)
C10 N3 C13 107.7(2)
C10 N3 Ni1 117.53(18)
C13 N3 Ni1 134.31(18)
C18 N4 C15 105.5(2)
C18 N4 Ni1 128.09(18)
C15 N4 Ni1 126.29(17)
N2 Ni1 N3 81.31(9)
N2 Ni1 N4 170.83(9)
N3 Ni1 N4 89.66(9)
N2 Ni1 N1 89.75(9)
N3 Ni1 N1 170.96(9)
N4 Ni1 N1 99.25(9)
C18 P1 C1 105.23(12)
C18 P1 C37 105.34(12)
C1 P1 C37 105.97(12)
C20 C19 C24 120.1(2)
C20 C19 C5 120.8(2)
C24 C19 C5 119.0(2)
C21 C20 C19 118.8(3)
C21 C20 C25 119.9(3)
C19 C20 C25 121.3(2)
C22 C21 C20 121.9(3)
C22 C21 H9 119.1
C20 C21 H9 119.1
C21 C22 C23 118.1(3)
C21 C22 C26 121.4(3)
C23 C22 C26 120.5(3)
C24 C23 C22 122.2(3)
C24 C23 H10 118.9
C22 C23 H10 118.9
C23 C24 C19 118.9(3)
C23 C24 C27 120.6(3)
C19 C24 C27 120.5(3)
C20 C25 H11 109.5
C20 C25 H12 109.5
H11 C25 H12 109.5
C20 C25 H13 109.5
H11 C25 H13 109.5
H12 C25 H13 109.5
C22 C26 H14 109.5
C22 C26 H15 109.5
H14 C26 H15 109.5
C22 C26 H16 109.5
H14 C26 H16 109.5
H15 C26 H16 109.5
C24 C27 H17 109.5
C24 C27 H18 109.5
H17 C27 H18 109.5
C24 C27 H19 109.5
H17 C27 H19 109.5
H18 C27 H19 109.5
C29 C28 C33 120.5(2)
C29 C28 C14 118.4(2)
C33 C28 C14 121.1(2)
C30 C29 C28 119.0(3)
C30 C29 C34 120.5(3)
C28 C29 C34 120.4(2)
C29 C30 C31 121.9(3)
C29 C30 H20 119.1
C31 C30 H20 119.1
C32 C31 C30 117.9(2)
C32 C31 C35 121.1(3)
C30 C31 C35 121.0(3)
C31 C32 C33 122.4(3)
C31 C32 H21 118.8
C33 C32 H21 118.8
C32 C33 C28 118.3(3)
C32 C33 C36 119.6(3)
C28 C33 C36 122.0(2)
C29 C34 H22 109.5
C29 C34 H23 109.5
H22 C34 H23 109.5
C29 C34 H24 109.5
H22 C34 H24 109.5
H23 C34 H24 109.5
C31 C35 H25 109.5
C31 C35 H26 109.5
H25 C35 H26 109.5
C31 C35 H27 109.5
H25 C35 H27 109.5
H26 C35 H27 109.5
C33 C36 H28 109.5
C33 C36 H29 109.5
H28 C36 H29 109.5
C33 C36 H30 109.5
H28 C36 H30 109.5
H29 C36 H30 109.5
C42 C37 C38 120.2(2)
C42 C37 P1 117.1(2)
C38 C37 P1 122.71(19)
C39 C38 C37 118.7(2)
C39 C38 C43 118.5(3)
C37 C38 C43 122.8(2)
C38 C39 C40 121.7(3)
C38 C39 H31 119.2
C40 C39 H31 119.2
C41 C40 C39 118.6(2)
C41 C40 C44 121.5(3)
C39 C40 C44 119.9(3)
C40 C41 C42 122.4(2)
C40 C41 H32 118.8
C42 C41 H32 118.8
C41 C42 C37 118.3(3)
C41 C42 C45 119.4(2)
C37 C42 C45 122.2(2)
C38 C43 H33 109.5
C38 C43 H34 109.5
H33 C43 H34 109.5
C38 C43 H35 109.5
H33 C43 H35 109.5
H34 C43 H35 109.5
C40 C44 H36 109.5
C40 C44 H37 109.5
H36 C44 H37 109.5
C40 C44 H38 109.5
H36 C44 H38 109.5
H37 C44 H38 109.5
C42 C45 H39 109.5
C42 C45 H40 109.5
H39 C45 H40 109.5
C42 C45 H41 109.5
H39 C45 H41 109.5
H40 C45 H41 109.5
N5 C46 C47 111.4(2)
N5 C46 P2 125.60(19)
C47 C46 P2 122.1(2)
C48 C47 C46 106.5(2)
C48 C47 H42 126.7
C46 C47 H42 126.7
C47 C48 C49 107.9(2)
C47 C48 H43 126.0
C49 C48 H43 126.0
C50 C49 N5 125.9(2)
C50 C49 C48 125.3(3)
N5 C49 C48 108.7(2)
C51 C50 C49 122.1(2)
C51 C50 C64 120.3(2)
C49 C50 C64 117.6(2)
N6 C51 C50 120.6(2)
N6 C51 C52 107.8(2)
C50 C51 C52 131.6(3)
C53 C52 C51 107.7(2)
C53 C52 H44 126.2
C51 C52 H44 126.2
C52 C53 C54 106.5(2)
C52 C53 H45 126.7
C54 C53 H45 126.7
N6 C54 C53 110.1(2)
N6 C54 C55 111.5(2)
C53 C54 C55 138.4(2)
N7 C55 C56 109.5(2)
N7 C55 C54 112.1(2)
C56 C55 C54 138.4(2)
C57 C56 C55 106.7(2)
C57 C56 H46 126.7
C55 C56 H46 126.7
C56 C57 C58 107.1(2)
C56 C57 H47 126.4
C58 C57 H47 126.4
N7 C58 C59 121.1(2)
N7 C58 C57 108.5(2)
C59 C58 C57 130.3(2)
C60 C59 C58 121.8(2)
C60 C59 C73 118.8(2)
C58 C59 C73 119.3(2)
C59 C60 N8 126.0(2)
C59 C60 C61 125.1(2)
N8 C60 C61 108.8(2)
C62 C61 C60 107.8(2)
C62 C61 H48 126.1
C60 C61 H48 126.1
C61 C62 C63 106.4(2)
C61 C62 H49 126.8
C63 C62 H49 126.8
N8 C63 C62 111.7(2)
N8 C63 P2 123.6(2)
C62 C63 P2 123.01(19)
C46 N5 C49 105.5(2)
C46 N5 Ni2 127.70(18)
C49 N5 Ni2 126.75(17)
C54 N6 C51 107.8(2)
C54 N6 Ni2 117.59(18)
C51 N6 Ni2 134.57(18)
C55 N7 C58 108.1(2)
C55 N7 Ni2 117.40(18)
C58 N7 Ni2 134.49(18)
C63 N8 C60 105.3(2)
C63 N8 Ni2 128.29(17)
C60 N8 Ni2 126.13(16)
N7 Ni2 N6 81.29(9)
N7 Ni2 N5 170.73(10)
N6 Ni2 N5 89.46(9)
N7 Ni2 N8 89.71(9)
N6 Ni2 N8 170.97(9)
N5 Ni2 N8 99.55(9)
C46 P2 C63 105.87(12)
C46 P2 C82 105.8(3)
C63 P2 C82 111.5(4)
C46 P2 C101 100.2(7)
C63 P2 C101 103.8(8)
C65 C64 C69 120.5(3)
C65 C64 C50 119.8(2)
C69 C64 C50 119.7(3)
C64 C65 C66 119.3(3)
C64 C65 C70 121.2(3)
C66 C65 C70 119.5(3)
C67 C66 C65 121.4(3)
C67 C66 H50 119.3
C65 C66 H50 119.3
C66 C67 C68 118.2(3)
C66 C67 C71 119.8(3)
C68 C67 C71 121.9(3)
C67 C68 C69 122.5(3)
C67 C68 H51 118.8
C69 C68 H51 118.8
C68 C69 C64 118.1(3)
C68 C69 C72 120.5(3)
C64 C69 C72 121.3(3)
C65 C70 H52 109.5
C65 C70 H53 109.5
H52 C70 H53 109.5
C65 C70 H54 109.5
H52 C70 H54 109.5
H53 C70 H54 109.5
C67 C71 H55 109.5
C67 C71 H56 109.5
H55 C71 H56 109.5
C67 C71 H57 109.5
H55 C71 H57 109.5
H56 C71 H57 109.5
C69 C72 H58 109.5
C69 C72 H59 109.5
H58 C72 H59 109.5
C69 C72 H60 109.5
H58 C72 H60 109.5
H59 C72 H60 109.5
C78 C73 C74 120.4(2)
C78 C73 C59 120.2(2)
C74 C73 C59 119.4(2)
C75 C74 C73 118.7(3)
C75 C74 C79 119.5(2)
C73 C74 C79 121.8(2)
C76 C75 C74 122.1(3)
C76 C75 H61 118.9
C74 C75 H61 118.9
C75 C76 C77 118.2(3)
C75 C76 C80 121.2(3)
C77 C76 C80 120.6(3)
C76 C77 C78 121.7(3)
C76 C77 H62 119.2
C78 C77 H62 119.2
C73 C78 C77 119.0(3)
C73 C78 C81 121.3(2)
C77 C78 C81 119.7(3)
C74 C79 H63 109.5
C74 C79 H64 109.5
H63 C79 H64 109.5
C74 C79 H65 109.5
H63 C79 H65 109.5
H64 C79 H65 109.5
C76 C80 H66 109.5
C76 C80 H67 109.5
H66 C80 H67 109.5
C76 C80 H68 109.5
H66 C80 H68 109.5
H67 C80 H68 109.5
C78 C81 H69 109.5
C78 C81 H70 109.5
H69 C81 H70 109.5
C78 C81 H71 109.5
H69 C81 H71 109.5
H70 C81 H71 109.5
C87 C82 C83 120.0(8)
C87 C82 P2 117.2(6)
C83 C82 P2 122.6(7)
C84 C83 C82 119.0(7)
C84 C83 C88 117.4(8)
C82 C83 C88 123.5(8)
C85 C84 C83 121.7(6)
C85 C84 H72 119.2
C83 C84 H72 119.2
C84 C85 C86 118.9(6)
C84 C85 C89 122.1(8)
C86 C85 C89 119.0(7)
C87 C86 C85 120.8(6)
C87 C86 H73 119.6
C85 C86 H73 119.6
C86 C87 C82 119.6(7)
C86 C87 C90 118.1(6)
C82 C87 C90 122.3(6)
C83 C88 H74 109.5
C83 C88 H75 109.5
H74 C88 H75 109.5
C83 C88 H76 109.5
H74 C88 H76 109.5
H75 C88 H76 109.5
C85 C89 H77 109.5
C85 C89 H78 109.5
H77 C89 H78 109.5
C85 C89 H79 109.5
H77 C89 H79 109.5
H78 C89 H79 109.5
C87 C90 H80 109.5
C87 C90 H81 109.5
H80 C90 H81 109.5
C87 C90 H82 109.5
H80 C90 H82 109.5
H81 C90 H82 109.5
Cl3 C91 Cl1 110.3(3)
Cl3 C91 Cl2 111.5(3)
Cl1 C91 Cl2 110.6(3)
Cl3 C91 H83 108.1
Cl1 C91 H83 108.1
Cl2 C91 H83 108.1
Cl5 C92 Cl6 104.9(12)
Cl5 C92 Cl4 148.3(18)
Cl6 C92 Cl4 104.1(12)
Cl5 C92 H84 95.0
Cl6 C92 H84 95.0
Cl4 C92 H84 95.0
C96 C93 H85 109.5
C96 C93 H86 109.5
H85 C93 H86 109.5
C96 C93 H87 109.5
H85 C93 H87 109.5
H86 C93 H87 109.5
C98 C94 H88 109.5
C98 C94 H89 109.5
H88 C94 H89 109.5
C98 C94 H90 109.5
H88 C94 H90 109.5
H89 C94 H90 109.5
C100 C95 H91 109.5
C100 C95 H92 109.5
H91 C95 H92 109.5
C100 C95 H93 109.5
H91 C95 H93 109.5
H92 C95 H93 109.5
C97 C96 C101 118.3(16)
C97 C96 C93 119.7(15)
C101 C96 C93 122.0(14)
C98 C97 C96 119.1(14)
C98 C97 H94 120.5
C96 C97 H94 120.5
C97 C98 C99 122.8(13)
C97 C98 C94 117.3(17)
C99 C98 C94 119.9(15)
C100 C99 C98 119.7(15)
C100 C99 H95 120.2
C98 C99 H95 120.2
C101 C100 C99 118.0(18)
C101 C100 C95 124.0(18)
C99 C100 C95 118.0(17)
C100 C101 C96 122.0(18)
C100 C101 P2 123.7(16)
C96 C101 P2 114.3(13)
loop_
_geom_bond_atom_site_label_1
_geom_bond_atom_site_label_2
_geom_bond_distance
C1 N1 1.351(3)
C1 C2 1.425(4)
C1 P1 1.772(3)
C2 C3 1.362(4)
C2 H1 0.9500
C3 C4 1.425(3)
C3 H2 0.9500
C4 C5 1.397(4)
C4 N1 1.401(3)
C5 C6 1.393(4)
C5 C19 1.495(4)
C6 N2 1.367(3)
C6 C7 1.429(4)
C7 C8 1.378(4)
C7 H3 0.9500
C8 C9 1.415(4)
C8 H4 0.9500
C9 N2 1.356(3)
C9 C10 1.425(4)
C10 N3 1.358(3)
C10 C11 1.415(4)
C11 C12 1.369(4)
C11 H5 0.9500
C12 C13 1.427(4)
C12 H6 0.9500
C13 N3 1.368(3)
C13 C14 1.391(4)
C14 C15 1.398(4)
C14 C28 1.498(4)
C15 N4 1.406(3)
C15 C16 1.417(4)
C16 C17 1.368(4)
C16 H7 0.9500
C17 C18 1.415(4)
C17 H8 0.9500
C18 N4 1.355(3)
C18 P1 1.769(3)
N1 Ni1 1.916(2)
N2 Ni1 1.859(2)
N3 Ni1 1.863(2)
N4 Ni1 1.909(2)
P1 C37 1.823(3)
C19 C20 1.397(4)
C19 C24 1.406(4)
C20 C21 1.396(4)
C20 C25 1.507(4)
C21 C22 1.382(4)
C21 H9 0.9500
C22 C23 1.389(4)
C22 C26 1.507(4)
C23 C24 1.380(4)
C23 H10 0.9500
C24 C27 1.513(4)
C25 H11 0.9800
C25 H12 0.9800
C25 H13 0.9800
C26 H14 0.9800
C26 H15 0.9800
C26 H16 0.9800
C27 H17 0.9800
C27 H18 0.9800
C27 H19 0.9800
C28 C29 1.400(4)
C28 C33 1.402(4)
C29 C30 1.390(4)
C29 C34 1.512(4)
C30 C31 1.391(4)
C30 H20 0.9500
C31 C32 1.387(4)
C31 C35 1.509(4)
C32 C33 1.395(4)
C32 H21 0.9500
C33 C36 1.505(4)
C34 H22 0.9800
C34 H23 0.9800
C34 H24 0.9800
C35 H25 0.9800
C35 H26 0.9800
C35 H27 0.9800
C36 H28 0.9800
C36 H29 0.9800
C36 H30 0.9800
C37 C42 1.411(4)
C37 C38 1.411(4)
C38 C39 1.391(4)
C38 C43 1.506(4)
C39 C40 1.395(4)
C39 H31 0.9500
C40 C41 1.375(4)
C40 C44 1.512(4)
C41 C42 1.397(4)
C41 H32 0.9500
C42 C45 1.506(4)
C43 H33 0.9800
C43 H34 0.9800
C43 H35 0.9800
C44 H36 0.9800
C44 H37 0.9800
C44 H38 0.9800
C45 H39 0.9800
C45 H40 0.9800
C45 H41 0.9800
C46 N5 1.352(3)
C46 C47 1.420(4)
C46 P2 1.765(3)
C47 C48 1.355(4)
C47 H42 0.9500
C48 C49 1.423(4)
C48 H43 0.9500
C49 C50 1.397(4)
C49 N5 1.406(3)
C50 C51 1.390(4)
C50 C64 1.500(4)
C51 N6 1.374(3)
C51 C52 1.430(4)
C52 C53 1.369(4)
C52 H44 0.9500
C53 C54 1.411(4)
C53 H45 0.9500
C54 N6 1.355(3)
C54 C55 1.422(4)
C55 N7 1.353(3)
C55 C56 1.420(4)
C56 C57 1.374(4)
C56 H46 0.9500
C57 C58 1.425(4)
C57 H47 0.9500
C58 N7 1.367(3)
C58 C59 1.397(4)
C59 C60 1.397(4)
C59 C73 1.497(3)
C60 N8 1.409(3)
C60 C61 1.422(4)
C61 C62 1.361(4)
C61 H48 0.9500
C62 C63 1.417(4)
C62 H49 0.9500
C63 N8 1.351(3)
C63 P2 1.769(3)
N5 Ni2 1.906(2)
N6 Ni2 1.863(2)
N7 Ni2 1.861(2)
N8 Ni2 1.919(2)
P2 C82 1.783(11)
P2 C101 1.92(2)
C64 C65 1.393(4)
C64 C69 1.409(4)
C65 C66 1.402(4)
C65 C70 1.504(4)
C66 C67 1.388(5)
C66 H50 0.9500
C67 C68 1.388(5)
C67 C71 1.513(4)
C68 C69 1.395(4)
C68 H51 0.9500
C69 C72 1.505(4)
C70 H52 0.9800
C70 H53 0.9800
C70 H54 0.9800
C71 H55 0.9800
C71 H56 0.9800
C71 H57 0.9800
C72 H58 0.9800
C72 H59 0.9800
C72 H60 0.9800
C73 C78 1.394(4)
C73 C74 1.398(4)
C74 C75 1.396(4)
C74 C79 1.506(4)
C75 C76 1.379(4)
C75 H61 0.9500
C76 C77 1.389(4)
C76 C80 1.513(4)
C77 C78 1.396(4)
C77 H62 0.9500
C78 C81 1.507(4)
C79 H63 0.9800
C79 H64 0.9800
C79 H65 0.9800
C80 H66 0.9800
C80 H67 0.9800
C80 H68 0.9800
C81 H69 0.9800
C81 H70 0.9800
C81 H71 0.9800
C82 C87 1.403(12)
C82 C83 1.418(10)
C83 C84 1.388(9)
C83 C88 1.502(10)
C84 C85 1.384(10)
C84 H72 0.9500
C85 C86 1.416(9)
C85 C89 1.500(9)
C86 C87 1.387(8)
C86 H73 0.9500
C87 C90 1.514(8)
C88 H74 0.9800
C88 H75 0.9800
C88 H76 0.9800
C89 H77 0.9800
C89 H78 0.9800
C89 H79 0.9800
C90 H80 0.9800
C90 H81 0.9800
C90 H82 0.9800
C91 Cl3 1.743(6)
C91 Cl1 1.744(5)
C91 Cl2 1.764(5)
C91 H83 1.0000
C92 Cl5 1.59(2)
C92 Cl6 1.71(2)
C92 Cl4 1.797(17)
C92 H84 1.0000
C93 C96 1.47(2)
C93 H85 0.9800
C93 H86 0.9800
C93 H87 0.9800
C94 C98 1.563(19)
C94 H88 0.9800
C94 H89 0.9800
C94 H90 0.9800
C95 C100 1.485(19)
C95 H91 0.9800
C95 H92 0.9800
C95 H93 0.9800
C96 C97 1.40(2)
C96 C101 1.43(3)
C97 C98 1.36(2)
C97 H94 0.9500
C98 C99 1.40(2)
C99 C100 1.40(2)
C99 H95 0.9500
C100 C101 1.38(3)
