#------------------------------------------------------------------------------
#$Date: 2019-11-03 18:11:36 +0200 (Sun, 03 Nov 2019) $
#$Revision: 222034 $
#$URL: file:///home/coder/svn-repositories/cod/cif/4/12/90/4129027.cif $
#------------------------------------------------------------------------------
#
# This file is available in the Crystallography Open Database (COD),
# http://www.crystallography.net/
#
# All data on this site have been placed in the public domain by the
# contributors.
#
data_4129027
loop_
_publ_author_name
'Omori, Hiroto'
'Hiroto, Satoru'
'Takeda, Youhei'
'Fliegl, Heike'
'Minakata, Satoshi'
'Shinokubo, Hiroshi'
_publ_section_title
;
 Ni(II) 10-Phosphacorrole: A Porphyrin Analogue Containing Phosphorus at
 the Meso Position.
;
_journal_issue                   12
_journal_name_full               'Journal of the American Chemical Society'
_journal_page_first              4800
_journal_page_last               4805
_journal_paper_doi               10.1021/jacs.8b13169
_journal_volume                  141
_journal_year                    2019
_chemical_formula_sum            'C47 H45 Au Cl3 N4 Ni P'
_chemical_formula_weight         1058.86
_space_group_crystal_system      triclinic
_space_group_IT_number           2
_space_group_name_Hall           '-P 1'
_space_group_name_H-M_alt        'P -1'
_atom_sites_solution_hydrogens   geom
_audit_creation_method           SHELXL-2014
_cell_angle_alpha                98.6560(10)
_cell_angle_beta                 107.3330(10)
_cell_angle_gamma                113.7310(10)
_cell_formula_units_Z            2
_cell_length_a                   12.7696(6)
_cell_length_b                   13.2248(6)
_cell_length_c                   15.5398(7)
_cell_measurement_reflns_used    9947
_cell_measurement_temperature    113(2)
_cell_measurement_theta_max      25.05
_cell_measurement_theta_min      2.25
_cell_volume                     2180.75(18)
_computing_cell_refinement       'Bruker SAINT'
_computing_data_collection       'Bruker APEX2'
_computing_data_reduction        'Bruker SAINT'
_computing_molecular_graphics    'Bruker SHELXTL'
_computing_publication_material  'Bruker SHELXTL'
_computing_structure_refinement  'SHELXL-2014 (Sheldrick 2014)'
_computing_structure_solution    'SHELXS-97 (Sheldrick 2008)'
_diffrn_ambient_temperature      113(2)
_diffrn_measured_fraction_theta_full 0.931
_diffrn_measured_fraction_theta_max 0.951
_diffrn_measurement_device_type  'Bruker APEX-II CCD'
_diffrn_measurement_method       '\f and \w scans'
_diffrn_radiation_type           MoK\a
_diffrn_radiation_wavelength     0.71073
_diffrn_reflns_av_R_equivalents  0.0212
_diffrn_reflns_av_unetI/netI     0.0280
_diffrn_reflns_Laue_measured_fraction_full 0.931
_diffrn_reflns_Laue_measured_fraction_max 0.951
_diffrn_reflns_limit_h_max       15
_diffrn_reflns_limit_h_min       -13
_diffrn_reflns_limit_k_max       15
_diffrn_reflns_limit_k_min       -15
_diffrn_reflns_limit_l_max       17
_diffrn_reflns_limit_l_min       -18
_diffrn_reflns_number            15242
_diffrn_reflns_point_group_measured_fraction_full 0.931
_diffrn_reflns_point_group_measured_fraction_max 0.951
_diffrn_reflns_theta_full        25.242
_diffrn_reflns_theta_max         25.069
_diffrn_reflns_theta_min         2.495
_exptl_absorpt_coefficient_mu    4.050
_exptl_absorpt_correction_T_max  0.82
_exptl_absorpt_correction_T_min  0.55
_exptl_absorpt_correction_type   multi-scan
_exptl_absorpt_process_details   'SADABS V2014/5 (Bruker AXS Inc.)'
_exptl_crystal_colour            blue
_exptl_crystal_density_diffrn    1.613
_exptl_crystal_description       block
_exptl_crystal_F_000             1056
_exptl_crystal_size_max          0.460
_exptl_crystal_size_mid          0.170
_exptl_crystal_size_min          0.050
_refine_diff_density_max         0.945
_refine_diff_density_min         -0.591
_refine_diff_density_rms         0.083
_refine_ls_extinction_method     none
_refine_ls_goodness_of_fit_ref   1.048
_refine_ls_hydrogen_treatment    constr
_refine_ls_matrix_type           full
_refine_ls_number_parameters     560
_refine_ls_number_reflns         7349
_refine_ls_number_restraints     0
_refine_ls_restrained_S_all      1.048
_refine_ls_R_factor_all          0.0206
_refine_ls_R_factor_gt           0.0202
_refine_ls_shift/su_max          0.004
_refine_ls_shift/su_mean         0.000
_refine_ls_structure_factor_coef Fsqd
_refine_ls_weighting_details
'w=1/[\s^2^(Fo^2^)+(0.0320P)^2^+1.8074P] where P=(Fo^2^+2Fc^2^)/3'
_refine_ls_weighting_scheme      calc
_refine_ls_wR_factor_gt          0.0556
_refine_ls_wR_factor_ref         0.0559
_reflns_Friedel_coverage         0.000
_reflns_number_gt                7180
_reflns_number_total             7349
_reflns_threshold_expression     'I > 2\s(I)'
_cod_data_source_file            ja8b13169_si_004.cif
_cod_data_source_block           oomori20161215_0m_a_a
_cod_original_cell_volume        2180.75(17)
_cod_database_code               4129027
_shelx_space_group_comment
;
The symmetry employed for this shelxl refinement is uniquely defined
by the following loop, which should always be used as a source of
symmetry information in preference to the above space-group names.
They are only intended as comments.
;
_shelx_estimated_absorpt_t_min   0.257
_shelx_estimated_absorpt_t_max   0.823
_shelxl_version_number           2014-3
_shelx_res_file
;
TITL oomori20161215_0m_a_a.res
REM  Yadorkari-X generated
CELL 0.71073 12.7696 13.2248 15.5398 98.6560 107.3330 113.7310
ZERR 2.0 0.0006 0.0006 0.0007 0.0010 0.0010 0.0010
LATT 1
REM  SPGR P-1 triclinic
SFAC C H N P Cl Ni Au
UNIT 94 90 8 2 6 2 2
SIZE 0.46 0.17 0.05
TEMP -160.0
L.S. 20
FMAP 2
PLAN -20
ACTA
CONF
BOND$H
MERG 2
OMIT -10.000000 55.000000

WGHT    0.032000    1.807400
FVAR       0.43257   0.48334
C1    1    0.058693    0.417089    0.582342    11.00000    0.01381    0.01438 =
         0.01810    0.00507    0.00827    0.00549
C2    1    0.050551    0.411859    0.670848    11.00000    0.02139    0.02025 =
         0.02070    0.00548    0.01519    0.00464
AFIX  43
H1    2   -0.017760    0.358713    0.681049    11.00000   -1.20000
AFIX   0
C3    1    0.161400    0.499167    0.738470    11.00000    0.02230    0.02011 =
         0.01603    0.00383    0.01221    0.00554
AFIX  43
H2    2    0.184660    0.517863    0.805117    11.00000   -1.20000
AFIX   0
C4    1    0.235866    0.557154    0.690876    11.00000    0.01749    0.01278 =
         0.01362    0.00331    0.00776    0.00559
C5    1    0.358013    0.644530    0.726448    11.00000    0.01836    0.01383 =
         0.01563    0.00433    0.00716    0.00999
C6    1    0.414563    0.690822    0.666832    11.00000    0.01330    0.01181 =
         0.01480    0.00374    0.00544    0.00438
C7    1    0.534795    0.788971    0.697772    11.00000    0.01459    0.01727 =
         0.01645    0.00367    0.00307    0.00311
AFIX  43
H3    2    0.592544    0.829684    0.761653    11.00000   -1.20000
AFIX   0
C8    1    0.552109    0.813965    0.619435    11.00000    0.01133    0.01466 =
         0.02246    0.00840    0.00484    0.00027
AFIX  43
H4    2    0.622459    0.875812    0.618002    11.00000   -1.20000
AFIX   0
C9    1    0.444171    0.729156    0.541165    11.00000    0.01475    0.01169 =
         0.01549    0.00620    0.00739    0.00699
C10   1    0.311148    0.582338    0.347453    11.00000    0.01301    0.01095 =
         0.01829    0.00659    0.00658    0.00438
C11   1    0.299701    0.537180    0.254904    11.00000    0.02360    0.01796 =
         0.02092    0.01001    0.01575    0.00906
AFIX  43
H5    2    0.350048    0.575500    0.223711    11.00000   -1.20000
AFIX   0
C12   1    0.201027    0.426580    0.218978    11.00000    0.02216    0.01866 =
         0.01468    0.00464    0.00904    0.00958
AFIX  43
H6    2    0.171395    0.373012    0.158399    11.00000   -1.20000
AFIX   0
C13   1    0.151942    0.407324    0.288596    11.00000    0.01494    0.01410 =
         0.01325    0.00413    0.00460    0.00699
C14   1    0.044506    0.307037    0.276951    11.00000    0.01514    0.01278 =
         0.01387    0.00638    0.00355    0.00614
C15   1   -0.005265    0.297847    0.345030    11.00000    0.01306    0.01358 =
         0.01396    0.00366    0.00278    0.00376
C16   1   -0.111096    0.203371    0.346736    11.00000    0.01560    0.01421 =
         0.01698    0.00399    0.00482    0.00165
AFIX  43
H7    2   -0.168620    0.133212    0.296432    11.00000   -1.20000
AFIX   0
C17   1   -0.114160    0.232701    0.434133    11.00000    0.01472    0.01628 =
         0.02095    0.00608    0.00824    0.00169
AFIX  43
H8    2   -0.174182    0.187765    0.455856    11.00000   -1.20000
AFIX   0
C18   1   -0.008796    0.344498    0.485817    11.00000    0.01305    0.01424 =
         0.01755    0.00455    0.00771    0.00329
C19   1    0.429349    0.689960    0.831910    11.00000    0.01453    0.01468 =
         0.01568    0.00230    0.00739    0.00228
C20   1    0.444869    0.794372    0.884512    11.00000    0.02191    0.01943 =
         0.02012   -0.00151    0.00405    0.00513
C21   1    0.504775    0.829245    0.983213    11.00000    0.03309    0.02490 =
         0.01896   -0.00336    0.00711    0.00954
AFIX  43
H9    2    0.514802    0.899577    1.019479    11.00000   -1.20000
AFIX   0
C22   1    0.549594    0.765521    1.029561    11.00000    0.03038    0.03229 =
         0.01369    0.00165    0.00579    0.00585
C23   1    0.535390    0.663284    0.975969    11.00000    0.03014    0.02874 =
         0.01679    0.00997    0.00686    0.01043
AFIX  43
H10   2    0.567630    0.619347    1.007305    11.00000   -1.20000
AFIX   0
C24   1    0.474991    0.623300    0.877246    11.00000    0.02477    0.01941 =
         0.01659    0.00584    0.00964    0.00646
C25   1    0.400504    0.869684    0.838005    11.00000    0.04481    0.02664 =
         0.02785   -0.00309    0.00363    0.02131
AFIX 137
H11   2    0.360464    0.897716    0.873413    11.00000   -1.50000
H12   2    0.340444    0.824318    0.772712    11.00000   -1.50000
H13   2    0.471698    0.936091    0.837588    11.00000   -1.50000
AFIX   0
C26   1    0.617072    0.808280    1.136894    11.00000    0.05956    0.04778 =
         0.01429   -0.00091    0.00339    0.01761
AFIX 137
H14   2    0.688408    0.885675    1.156537    11.00000   -1.50000
H15   2    0.646434    0.754462    1.157385    11.00000   -1.50000
H16   2    0.559868    0.812265    1.165941    11.00000   -1.50000
AFIX   0
C27   1    0.461629    0.511836    0.821737    11.00000    0.04991    0.03079 =
         0.02290    0.00801    0.01051    0.02694
AFIX 137
H17   2    0.515893    0.488128    0.863010    11.00000   -1.50000
H18   2    0.485442    0.523954    0.768253    11.00000   -1.50000
H19   2    0.374867    0.450977    0.797869    11.00000   -1.50000
AFIX   0
C28   1   -0.016259    0.203858    0.190510    11.00000    0.01243    0.01564 =
         0.01444    0.00278    0.00693    0.00084
C29   1    0.016418    0.115496    0.195718    11.00000    0.02165    0.01646 =
         0.02483    0.00472    0.00665    0.00623
C30   1   -0.044962    0.015583    0.117647    11.00000    0.02588    0.01550 =
         0.03627    0.00001    0.01222    0.00593
AFIX  43
H20   2   -0.022681   -0.044547    0.121261    11.00000   -1.20000
AFIX   0
C31   1   -0.137235    0.001339    0.035153    11.00000    0.01754    0.02503 =
         0.02731   -0.00422    0.01119    0.00025
C32   1   -0.167315    0.090796    0.031961    11.00000    0.01815    0.03516 =
         0.01537   -0.00068    0.00305    0.00661
AFIX  43
H21   2   -0.230206    0.082716   -0.024160    11.00000   -1.20000
AFIX   0
C33   1   -0.108996    0.191678    0.107670    11.00000    0.02031    0.02727 =
         0.01603    0.00366    0.00718    0.00896
C34   1    0.119269    0.128856    0.283284    11.00000    0.04234    0.02579 =
         0.03605    0.00512   -0.00102    0.01990
AFIX 137
H22   2    0.195828    0.199810    0.296790    11.00000   -1.50000
H23   2    0.133785    0.061571    0.272583    11.00000   -1.50000
H24   2    0.094892    0.133852    0.337265    11.00000   -1.50000
AFIX   0
C35   1   -0.201203   -0.107100   -0.048581    11.00000    0.02949    0.03213 =
         0.03755   -0.01400    0.01089    0.00031
AFIX 137
H25   2   -0.155502   -0.151592   -0.038773    11.00000   -1.50000
H26   2   -0.202998   -0.085470   -0.106413    11.00000   -1.50000
H27   2   -0.286635   -0.154631   -0.054913    11.00000   -1.50000
AFIX   0
C36   1   -0.142871    0.287819    0.101712    11.00000    0.04057    0.04545 =
         0.02425    0.00272   -0.00015    0.02878
AFIX 137
H28   2   -0.072498    0.356069    0.102438    11.00000   -1.50000
H29   2   -0.162581    0.308126    0.156019    11.00000   -1.50000
H30   2   -0.215587    0.261844    0.042800    11.00000   -1.50000
AFIX   0
C37   1    0.561436    0.774096    0.408745    11.00000    0.01100    0.01268 =
         0.01595    0.00428    0.00702    0.00271
C38   1    0.616356    0.875331    0.383871    11.00000    0.01435    0.01177 =
         0.01293    0.00307    0.00576    0.00275
C39   1    0.731085    0.904522    0.377457    11.00000    0.01683    0.01200 =
         0.01675    0.00429    0.00848    0.00063
AFIX  43
H31   2    0.769278    0.972745    0.361264    11.00000   -1.20000
AFIX   0
C40   1    0.791415    0.838991    0.393517    11.00000    0.01479    0.02097 =
         0.02237    0.00443    0.00986    0.00530
C41   1    0.736956    0.740711    0.418820    11.00000    0.02055    0.02358 =
         0.02866    0.01145    0.01289    0.01442
AFIX  43
H32   2    0.778236    0.695317    0.430719    11.00000   -1.20000
AFIX   0
C42   1    0.623198    0.706891    0.427223    11.00000    0.01785    0.01535 =
         0.02184    0.00762    0.00918    0.00727
C43   1    0.561138    0.954788    0.363877    11.00000    0.02276    0.01836 =
         0.03728    0.01794    0.01887    0.01069
AFIX 137
H33   2    0.615297    1.016896    0.345771    11.00000   -1.50000
H34   2    0.553649    0.988802    0.420845    11.00000   -1.50000
H35   2    0.478489    0.910439    0.311988    11.00000   -1.50000
AFIX   0
C44   1    0.913982    0.872358    0.383205    11.00000    0.02203    0.03262 =
         0.05272    0.01825    0.02423    0.01255
AFIX 137
H36   2    0.971797    0.865694    0.437099    11.00000   -1.50000
H37   2    0.949538    0.952647    0.381648    11.00000   -1.50000
H38   2    0.900075    0.820367    0.324182    11.00000   -1.50000
AFIX   0
C45   1    0.572973    0.600008    0.456933    11.00000    0.02703    0.02498 =
         0.04507    0.02413    0.02124    0.01874
AFIX 137
H39   2    0.489394    0.544149    0.409547    11.00000   -1.50000
H40   2    0.568700    0.621469    0.518489    11.00000   -1.50000
H41   2    0.628125    0.564816    0.462104    11.00000   -1.50000
AFIX   0
N1    3    0.167597    0.504798    0.594865    11.00000    0.01229    0.01041 =
         0.01436    0.00274    0.00675    0.00247
N2    3    0.359814    0.654042    0.567340    11.00000    0.01398    0.01279 =
         0.01361    0.00625    0.00715    0.00661
N3    3    0.223126    0.505655    0.369566    11.00000    0.01275    0.01069 =
         0.01358    0.00539    0.00573    0.00454
N4    3    0.052637    0.383010    0.430840    11.00000    0.01275    0.01378 =
         0.01342    0.00471    0.00586    0.00430
NI1   6    0.205038    0.518369    0.488695    11.00000    0.00978    0.00928 =
         0.01059    0.00342    0.00486    0.00222
P1    4    0.413605    0.729548    0.421187    11.00000    0.01247    0.01119 =
         0.01520    0.00676    0.00742    0.00477
AU1   7    0.304508    0.824624    0.388688    11.00000    0.01460    0.01453 =
         0.02659    0.01133    0.01227    0.00819
CL1   5    0.179377    0.909366    0.358521    11.00000    0.02181    0.02729 =
         0.06948    0.02783    0.02553    0.01796
PART 1
CL2   5    0.777435    0.541993    0.019416    21.00000    0.04475    0.05795 =
         0.03821    0.01832    0.01281    0.02052
C46   1    0.889567    0.680263    0.108423    21.00000    0.05856    0.03631 =
         0.03551    0.02161    0.02875    0.02112
AFIX  23
H42   2    0.860612    0.738080    0.097368    21.00000   -1.20000
H43   2    0.893278    0.672638    0.171532    21.00000   -1.20000
AFIX   0
C47   1    1.019677    0.725223    0.109328    21.00000    0.06264    0.04814 =
         0.04129    0.02204    0.01524    0.02434
AFIX  23
H44   2    1.075172    0.802239    0.158054    21.00000   -1.20000
H45   2    1.017058    0.735156    0.046965    21.00000   -1.20000
AFIX   0
CL3   5    1.080745    0.630512    0.133371    21.00000    0.05504    0.06413 =
         0.04223    0.01879    0.01719    0.03633
PART 2
CL4   5    0.882823    0.624941    0.063462   -21.00000    0.07192    0.14968 =
         0.07682    0.07744    0.04452    0.04812
C48   1    1.043304    0.721313    0.102153   -21.00000    0.13617    0.08204 =
         0.05261    0.04554    0.06660    0.05886
AFIX  23
H46   2    1.057316    0.761830    0.054818   -21.00000   -1.20000
H47   2    1.071662    0.780550    0.162844   -21.00000   -1.20000
AFIX   0
C49   1    1.117861    0.656701    0.115505   -21.00000    0.08048    0.06617 =
         0.04089    0.02973    0.02788    0.03844
AFIX  23
H48   2    1.086754    0.594805    0.055736   -21.00000   -1.20000
H49   2    1.107475    0.619587    0.165291   -21.00000   -1.20000
AFIX   0
CL5   5    1.276832    0.752462    0.148391   -21.00000    0.06243    0.05964 =
         0.02806    0.01866    0.00810    0.01977
PART 0

HKLF 4

REM  oomori20161215_0m_a_a.res
REM R1 =  0.0202 for    7180 Fo > 4sig(Fo)  and  0.0206 for all    7349 data
REM    560 parameters refined using      0 restraints

END

WGHT      0.0320      1.8077

REM Highest difference peak  0.945,  deepest hole -0.591,  1-sigma level  0.083
Q1    1   0.2833  0.7990  0.3278  11.00000  0.05    0.95
Q2    1   0.1637  0.8852  0.2998  11.00000  0.05    0.73
Q3    1   0.3287  0.8963  0.4393  11.00000  0.05    0.58
Q4    1   0.2268  0.5731  0.5374  11.00000  0.05    0.47
Q5    1   0.5060  0.5809  0.4664  11.00000  0.05    0.45
Q6    1   0.4799  0.7280  0.6837  11.00000  0.05    0.42
Q7    1   0.9421  0.8160  0.3779  11.00000  0.05    0.41
Q8    1   0.4782  0.7440  0.4089  11.00000  0.05    0.40
Q9    1  -0.0742  0.2939  0.4604  11.00000  0.05    0.40
Q10   1  -0.0891  0.1870  0.1549  11.00000  0.05    0.39
Q11   1   0.6331  0.5960  0.5040  11.00000  0.05    0.36
Q12   1   0.3871  0.6618  0.6095  11.00000  0.05    0.36
Q13   1   0.1734  0.4493  0.4419  11.00000  0.05    0.35
Q14   1   0.2059  0.5805  0.4834  11.00000  0.05    0.35
Q15   1   0.6601  0.8765  0.3682  11.00000  0.05    0.35
Q16   1  -0.1085  0.0040  0.0836  11.00000  0.05    0.34
Q17   1   0.2442  0.5505  0.3523  11.00000  0.05    0.34
Q18   1   0.4620  0.7322  0.4934  11.00000  0.05    0.34
Q19   1   0.0154  0.3372  0.3880  11.00000  0.05    0.33
Q20   1   0.0627  0.4054  0.6278  11.00000  0.05    0.33
;
_shelx_res_checksum              52928
_shelx_hkl_file
;
  -2   0   0  885.11   29.60
  -2   0   0  851.31   29.50
   2   0   0  897.71   29.50
   2   0   0  850.91   29.70
  -3   0   0   46.00    2.00
  -3   0   0   46.30    1.90
   3   0   0   48.00    2.00
   3   0   0   51.19    1.80
  -4   0   0  130.39    4.80
   4   0   0  134.99    4.80
   4   0   0  129.29    4.90
  -5   0   0   92.49    3.60
   5   0   0   92.69    3.50
   5   0   0   92.79    3.70
  -6   0   0  251.57    8.80
   6   0   0  246.08    8.60
   6   0   0  246.98    8.90
  -7   0   0  847.42   28.50
   7   0   0  842.02   28.60
   7   0   0  833.42   28.40
  -8   0   0 2622.24   90.59
   8   0   0 2869.21   91.49
   8   0   0 2631.94   90.69
  -9   0   0   47.00    3.00
   9   0   0   47.20    2.60
   9   0   0   43.50    3.30
 -10   0   0 1560.94   51.59
  10   0   0 1388.26   52.19
  10   0   0 1637.44   51.79
 -11   0   0  182.48    7.40
  11   0   0  182.08    7.00
  11   0   0  186.58    7.70
 -12   0   0  553.74   19.80
  12   0   0  576.74   20.10
  13  -1   0   48.30    4.60
  12  -1   0  279.27   10.50
  12  -1   0  262.37    9.90
 -12   1   0  267.97   10.40
  11  -1   0  427.86   15.00
  11  -1   0  414.26   14.60
 -11   1   0  407.36   14.90
  10  -1   0   37.80    2.50
  10  -1   0   35.30    3.30
 -10   1   0   39.20    3.20
   9  -1   0 1020.20   34.50
   9  -1   0 1020.10   34.30
  -9   1   0 1008.90   34.50
   8  -1   0  866.81   29.10
   8  -1   0  855.81   29.30
  -8   1   0  858.71   29.30
   7  -1   0  122.89    4.90
   7  -1   0  128.39    4.70
  -7   1   0  124.39    4.90
   6  -1   0 2999.80  102.79
   6  -1   0 3057.69  102.59
  -6   1   0 3046.50  102.99
   5  -1   0  295.27   10.10
   5  -1   0  289.07   10.10
  -5   1   0  291.77   10.20
   4  -1   0 3515.95  119.79
   4  -1   0 3620.44  119.69
  -4   1   0 3524.45  120.09
   3  -1   0 2945.41  101.39
  -3   1   0 3074.09  101.59
   2  -1   0 1453.75   48.10
  -2   1   0 1378.96   48.10
  -1  -1   0 2442.56   81.39
   1   1   0 2392.56   81.29
  -2  -1   0 1418.46   48.40
  -2  -1   0 1437.56   48.00
   2   1   0 1399.96   48.30
  -3  -1   0  107.99    3.80
  -3  -1   0  105.69    3.90
   3   1   0  105.19    3.90
   3   1   0  103.19    3.80
  -4  -1   0 1200.18   40.10
  -4  -1   0 1114.19   39.80
   4   1   0 1232.18   40.50
   4   1   0 1189.78   40.30
  -5  -1   0 2720.53   94.79
  -5  -1   0 2889.21   95.69
   5   1   0 2849.01   95.69
   5   1   0 2882.41   96.29
  -6  -1   0  776.52   25.90
  -6  -1   0  745.03   25.50
   6   1   0  763.62   25.70
   6   1   0  735.93   25.50
  -7  -1   0 2902.21   96.49
   7   1   0 2952.10   96.69
   7   1   0 2745.23   95.89
  -8  -1   0  233.38    8.30
   8   1   0  223.98    8.10
   8   1   0  227.58    8.60
  -9  -1   0 2285.37   76.79
   9   1   0 2251.07   76.69
   9   1   0 2339.27   76.99
 -10  -1   0  477.65   17.10
  10   1   0  501.15   17.40
 -11  -1   0  412.16   14.90
  11   1   0  427.36   15.30
  12   1   0  141.19    7.00
  13  -2   0   85.29    5.20
  12  -2   0  431.36   15.50
  12  -2   0  437.46   15.10
 -12   2   0  419.16   15.60
  11  -2   0   89.49    5.60
  11  -2   0   98.09    4.30
 -11   2   0   97.09    5.00
  10  -2   0  345.07   12.00
  10  -2   0  338.97   12.30
 -10   2   0  336.17   12.30
   9  -2   0  833.52   26.80
   9  -2   0  694.13   27.20
  -9   2   0  817.02   26.80
   8  -2   0  406.96   14.40
   8  -2   0  419.56   14.30
  -8   2   0  410.66   14.50
   7  -2   0 7810.02  263.67
   7  -2   0 7825.62  263.67
  -7   2   0 7905.71  264.07
   6  -2   0 1903.61   64.29
   6  -2   0 1871.11   64.09
  -6   2   0 1920.41   64.99
   5  -2   0 4496.25  153.28
  -5   2   0 4602.64  153.48
   4  -2   0  821.52   27.30
   4  -2   0  814.22   27.30
  -4   2   0  798.62   27.40
   3  -2   0 1928.61   62.79
   3  -2   0 1799.82   62.69
  -3   2   0 1798.82   62.69
   2  -2   0 2382.66   77.89
   2  -2   0 2409.56   77.59
  -2   2   0 2220.58   77.79
  -2   2   0 2124.09   78.09
   1  -2   0  208.98    7.00
  -1   2   0  196.98    7.00
   0  -2   0 2485.45   83.69
   0   2   0 2487.05   83.69
  -1  -2   0 6340.57  212.38
  -2  -2   0  943.61   31.40
  -2  -2   0  925.41   31.50
   2   2   0  904.41   31.70
  -3  -2   0 6645.74  212.28
  -3  -2   0 5887.61  211.08
   3   2   0 6389.06  211.98
  -4  -2   0 2290.87   79.69
  -4  -2   0 2390.66   79.19
   4   2   0 2358.26   79.99
  -5  -2   0  961.60   32.90
  -5  -2   0  978.40   32.60
   5   2   0  967.30   32.80
  -6  -2   0  530.45   18.10
  -6  -2   0  499.35   17.60
   6   2   0  521.15   17.90
  -7  -2   0  169.68    6.90
  -7  -2   0  171.38    6.20
   7   2   0  166.38    6.60
  -8  -2   0  682.73   23.30
  -9  -2   0  641.74   22.40
   9   2   0  666.13   22.70
 -10  -2   0   82.69    4.20
  10   2   0   81.89    4.90
  11   2   0  297.57   11.50
  13  -3   0  852.41   32.10
  13  -3   0  935.21   31.30
  13  -3   0  958.20   31.60
  12  -3   0  544.25   18.90
  12  -3   0  515.95   19.50
  12  -3   0  575.14   19.20
 -12   3   0  528.35   19.20
  11  -3   0  356.06   12.50
  11  -3   0  346.37   13.10
  11  -3   0  350.16   12.70
 -11   3   0  347.57   12.90
  10  -3   0 1137.79   38.00
  10  -3   0 1118.79   38.10
 -10   3   0 1110.59   38.20
   9  -3   0  191.18    7.20
   9  -3   0  188.08    7.20
  -9   3   0  188.78    7.40
   8  -3   0 4537.65  152.18
   8  -3   0 4491.55  151.68
   8  -3   0 4682.83  152.78
  -8   3   0 4286.67  151.78
   7  -3   0  597.24   20.30
   7  -3   0  588.44   20.20
  -7   3   0  589.14   20.40
   6  -3   0 1840.32   64.19
   6  -3   0 1951.70   65.39
  -6   3   0 1955.40   65.49
   5  -3   0 2740.53   94.39
   5  -3   0 2909.41   94.79
  -5   3   0 2735.03   94.99
   4  -3   0  122.49    4.60
   4  -3   0  126.49    4.50
  -4   3   0  122.89    4.60
  -4   3   0  120.29    4.50
   3  -3   0  961.60   32.40
   3  -3   0  981.70   32.30
  -3   3   0  959.10   32.30
  -3   3   0  876.71   31.80
   1  -3   0 1848.22   62.39
  -1   3   0 1841.12   62.69
  -1  -3   0   34.30    1.60
  -2  -3   0 6481.65  211.98
   2   3   0 6109.79  211.58
  -3  -3   0  733.03   24.80
  -3  -3   0  745.13   25.00
   3   3   0  733.63   25.00
  -4  -3   0 1586.54   53.09
  -4  -3   0 1535.05   52.59
   4   3   0 1565.04   52.49
  -5  -3   0  349.17   12.50
  -5  -3   0  350.86   12.10
   5   3   0  355.46   12.40
  -6  -3   0  164.68    6.00
  -6  -3   0  166.48    6.70
   6   3   0  165.48    6.40
  -7  -3   0   18.10    3.00
  -7  -3   0   17.70    1.90
   7   3   0   15.50    2.70
  -8  -3   0  644.04   23.00
  -8  -3   0  650.33   22.20
   8   3   0  655.13   22.60
  -9  -3   0    2.40    1.50
   9   3   0    0.90    1.80
 -10  -3   0 1411.06   47.50
  11   3   0   92.39    5.80
  14  -4   0 1021.30   35.10
  13  -4   0  430.76   15.30
  13  -4   0  443.46   15.40
  13  -4   0  404.16   15.90
  12  -4   0  710.03   24.20
  12  -4   0  701.83   24.70
 -12   4   0  683.83   24.60
  11  -4   0 1363.86   45.80
  11  -4   0 1338.27   45.80
  11  -4   0 1400.16   46.20
 -11   4   0 1309.67   46.00
  10  -4   0   52.09    3.40
  10  -4   0   58.89    3.60
  10  -4   0   53.09    3.20
 -10   4   0   55.59    3.80
   9  -4   0  456.55   16.10
   9  -4   0  463.45   16.10
   9  -4   0  469.85   16.30
  -9   4   0  453.95   16.30
   8  -4   0   73.19    3.30
   8  -4   0   67.49    3.40
  -8   4   0   66.69    3.60
   7  -4   0  612.24   21.30
   7  -4   0  644.94   21.30
  -7   4   0  607.34   21.40
   6  -4   0 4936.51  168.08
   6  -4   0 4936.41  167.98
  -6   4   0 5042.10  168.98
   5  -4   0  939.41   31.30
   5  -4   0  944.01   31.20
  -5   4   0  905.81   31.10
  -5   4   0  898.21   31.30
   4  -4   0 9889.11  329.97
   4  -4   0 9651.33  329.17
  -4   4   0 9947.91  329.47
   3  -4   0 8281.17  273.17
   3  -4   0 8190.58  272.27
  -3   4   0 7903.91  272.77
   2  -4   0 1308.17   43.90
  -2   4   0 1256.27   43.60
   1  -4   0 1091.29   37.20
  -1   4   0 1070.69   37.00
   0  -4   0   26.80    1.40
   0   4   0   26.20    1.40
  -1  -4   0 2667.63   89.79
   1   4   0 2637.14   89.89
  -2  -4   0  389.66   13.20
   2   4   0  369.16   13.10
  -3  -4   0  147.69    5.80
  -3  -4   0  157.68    5.50
   3   4   0  144.49    5.70
  -4  -4   0 2004.60   66.39
  -4  -4   0 2013.00   66.09
   4   4   0 1880.41   65.89
  -5  -4   0 1002.30   33.00
  -5  -4   0  929.51   32.50
   5   4   0  959.10   32.70
  -6  -4   0  504.45   17.80
  -6  -4   0  505.95   17.20
   6   4   0  493.95   17.60
  -7  -4   0  433.36   14.80
  -7  -4   0  421.06   15.60
   7   4   0  425.86   15.20
  -8  -4   0    5.60    1.40
  -8  -4   0    4.40    2.40
   8   4   0    3.50    1.80
  -9  -4   0 1266.17   43.20
   9   4   0 1297.07   43.70
  10   4   0  141.79    7.00
  14  -5   0  367.16   13.20
  14  -5   0  344.07   13.00
  14  -5   0  343.47   13.80
  13  -5   0  306.07   12.10
  13  -5   0  319.87   11.60
  13  -5   0  299.97   11.50
  12  -5   0 1075.79   37.30
  12  -5   0 1074.59   37.10
  12  -5   0 1105.29   37.00
  11  -5   0  144.59    6.30
  11  -5   0  143.49    6.10
  11  -5   0  143.19    6.10
 -11   5   0  141.59    6.60
  10  -5   0  113.19    4.90
  10  -5   0  108.19    5.00
 -10   5   0  107.29    5.30
   9  -5   0  145.19    6.50
   9  -5   0  157.78    6.10
  -9   5   0  151.78    6.40
   8  -5   0  163.28    6.40
   8  -5   0  168.68    6.30
  -8   5   0  158.58    6.60
   7  -5   0 2107.69   70.39
   7  -5   0 2106.89   70.29
  -7   5   0 2070.89   70.39
   6  -5   0  703.83   24.10
   6  -5   0  713.83   24.30
  -6   5   0  708.73   24.10
   5  -5   0 8639.34  295.07
   5  -5   0 8692.43  295.77
  -5   5   0 9030.90  295.17
   4  -5   0 2334.67   78.29
   4  -5   0 2323.67   78.79
  -4   5   0 2295.37   78.49
   3  -5   0 1709.93   56.09
   3  -5   0 1623.14   55.39
  -3   5   0 1586.64   56.19
   2  -5   0 1208.78   41.00
  -2   5   0 1182.08   41.00
   1  -5   0   15.80    1.20
  -1   5   0   17.30    1.30
   0  -5   0  124.09    4.60
   0   5   0  121.19    4.60
  -1  -5   0  790.92   26.10
   1   5   0  747.93   26.00
  -2  -5   0 1350.76   43.50
   2   5   0 1215.28   43.10
  -3  -5   0 2644.74   91.39
   3   5   0 2813.22   92.89
  -4  -5   0 1147.89   38.60
  -4  -5   0 1189.48   39.00
   4   5   0 1105.79   38.80
  -5  -5   0 2377.06   83.89
  -5  -5   0 2631.64   83.89
   5   5   0 2466.85   85.89
  -6  -5   0  893.31   30.50
  -6  -5   0  867.21   29.80
   6   5   0  879.11   30.10
  -7  -5   0   18.00    2.70
  -7  -5   0   21.10    2.40
   7   5   0   20.00    3.20
  -8  -5   0  396.46   13.80
   8   5   0  394.76   14.50
   9   5   0  104.99    5.90
  14  -6   0   51.39    4.40
  14  -6   0   49.80    5.30
  13  -6   0  724.93   26.00
  13  -6   0  781.02   25.90
  13  -6   0  733.83   26.30
  12  -6   0  571.04   20.50
  12  -6   0  567.14   20.60
  12  -6   0  604.74   20.40
  11  -6   0 1212.38   41.60
  11  -6   0 1229.48   41.70
  10  -6   0 2073.59   71.19
  10  -6   0 2154.68   71.19
   9  -6   0  129.59    5.50
   8  -6   0  604.04   20.90
   8  -6   0  598.04   20.70
   7  -6   0  146.59    5.60
   7  -6   0  145.99    5.90
  -7   6   0  146.29    5.70
   6  -6   0 1648.04   56.09
   6  -6   0 1602.14   56.19
  -6   6   0 1761.32   57.19
   5  -6   0  607.14   21.00
  -5   6   0  627.94   21.20
   4  -6   0 2463.65   77.79
   4  -6   0 2203.58   76.69
  -4   6   0 2189.38   77.39
   3  -6   0 1716.93   56.39
   3  -6   0 1571.64   55.59
  -3   6   0 1669.63   56.69
   2  -6   0 1500.05   48.80
  -2   6   0 1356.86   48.00
   1  -6   0  347.17   12.10
  -1   6   0  350.76   12.10
   0   6   0 2739.13   92.99
  -1  -6   0   52.69    2.70
   1   6   0   48.40    2.70
  -2  -6   0 1009.30   33.40
   2   6   0  956.30   33.30
  -3  -6   0  407.96   14.20
   3   6   0  389.46   14.00
  -4  -6   0 2238.88   71.99
  -4  -6   0 2024.90   71.79
  -5  -6   0 1212.68   41.30
  -5  -6   0 1204.58   40.70
   5   6   0 1205.98   41.00
  -6  -6   0  127.19    5.30
  -6  -6   0  129.29    6.60
   6   6   0  134.29    5.90
  -7  -6   0   34.60    2.90
   7   6   0   33.90    3.80
   8   6   0  314.77   12.10
   9   6   0  116.99    6.50
  14  -7   0  509.25   19.80
  14  -7   0  474.25   17.60
  13  -7   0  490.35   17.70
  12  -7   0  661.73   23.50
  12  -7   0  675.43   23.50
  11  -7   0 3060.39  103.69
  11  -7   0 3109.99  103.59
  10  -7   0  239.78    9.10
  10  -7   0  230.38    8.90
   9  -7   0  766.12   26.50
   9  -7   0  782.02   26.80
   8  -7   0  105.19    4.50
   8  -7   0  103.99    4.80
  -8   7   0  108.39    4.60
   7  -7   0  215.08    7.80
   7  -7   0  210.48    8.10
  -7   7   0  208.48    7.90
   6  -7   0  396.86   13.40
   6  -7   0  378.56   13.70
  -6   7   0  380.06   13.60
   5  -7   0   35.00    2.60
   5  -7   0   42.10    2.10
  -5   7   0   34.20    2.60
   4  -7   0 3511.45  114.49
   4  -7   0 3502.15  114.99
  -4   7   0 3132.89  113.89
   3  -7   0 3730.63  127.09
  -3   7   0 3777.92  127.99
  -2   7   0  577.24   19.90
   1  -7   0 3717.33  125.29
  -1   7   0 3709.23  126.39
   0  -7   0   74.09    3.30
   0   7   0   71.29    3.40
  -1  -7   0 1959.20   64.19
   1   7   0 1856.41   63.99
  -2  -7   0  170.78    6.80
   2   7   0  174.58    6.70
  -3  -7   0   10.50    1.70
   3   7   0    6.60    1.30
  -4  -7   0 1010.00   33.70
  -4  -7   0  996.90   34.30
   4   7   0  985.30   34.00
  -5  -7   0   63.69    3.50
   5   7   0   55.99    4.00
  -6  -7   0  617.84   21.90
   6   7   0  655.03   22.40
  -7  -7   0  452.55   15.80
   8   7   0   42.30    5.00
  14  -8   0  120.59    6.20
  13  -8   0  705.03   24.70
  12  -8   0 1290.57   45.40
  12  -8   0 1378.06   46.20
  11  -8   0   77.09    4.30
  11  -8   0   80.69    4.80
  10  -8   0 1392.36   47.30
  10  -8   0 1400.16   47.60
   9  -8   0  209.88    8.00
   9  -8   0  215.08    8.50
  -9   8   0  208.38    8.10
   8  -8   0  104.89    4.50
   8  -8   0  103.29    5.00
  -8   8   0  108.49    4.70
   7  -8   0 1197.18   39.80
  -7   8   0 1135.89   39.60
   6  -8   0  469.65   17.20
   6  -8   0  509.25   17.40
  -6   8   0  496.95   17.30
   5  -8   0 1154.78   37.40
  -5   8   0 1036.50   37.30
   4  -8   0 1842.72   63.19
   4  -8   0 1987.80   63.49
  -4   8   0 1791.12   63.09
   3  -8   0 1260.97   41.60
   3  -8   0 1196.98   41.30
  -3   8   0 1220.78   41.50
   2  -8   0 3459.25  116.69
  -2   8   0 3451.45  116.79
   1  -8   0  336.87   12.00
  -1   8   0  340.37   12.00
   0  -8   0  258.07    9.40
   0   8   0  255.77    9.40
  -1  -8   0  261.77    9.80
   1   8   0  271.77    9.80
  -2  -8   0  270.57   10.00
   2   8   0  258.97    9.80
  -3  -8   0 1148.39   38.80
   3   8   0 1117.89   38.60
  -4  -8   0  245.08    8.90
   4   8   0  237.28    9.30
  -5  -8   0 1213.18   39.70
   5   8   0 1125.89   39.90
  -6  -8   0 1332.37   45.90
   6   8   0 1385.46   46.40
   7   8   0  163.38    7.70
  14  -9   0  238.98    9.70
  13  -9   0  122.59    6.00
  12  -9   0   42.50    3.70
  11  -9   0  899.11   32.20
  11  -9   0  954.70   31.80
  10  -9   0  750.92   25.50
  10  -9   0  725.73   25.90
   9  -9   0  112.09    5.60
   9  -9   0  111.59    4.80
  -9   9   0  111.69    5.20
   8  -9   0 3008.10  100.39
   8  -9   0 2975.30   99.89
  -8   9   0 2972.20  100.09
   7  -9   0  132.29    5.20
   7  -9   0  128.19    5.90
  -7   9   0  129.69    5.70
   6  -9   0 2231.38   72.69
   6  -9   0 2129.49   72.09
  -6   9   0 2096.99   72.49
   5  -9   0  222.48    7.90
   5  -9   0  222.48    8.50
  -5   9   0  201.78    8.40
   4  -9   0  133.79    5.20
   4  -9   0  131.09    5.80
  -4   9   0  135.19    5.80
   3  -9   0  919.21   30.70
   3  -9   0  890.01   30.30
  -3   9   0  865.51   30.50
   2  -9   0  349.17   12.50
  -2   9   0  354.56   12.70
   1  -9   0  494.45   17.30
  -1   9   0  497.35   17.40
   0  -9   0 1425.96   47.10
   0   9   0 1353.56   47.10
  -1  -9   0   86.89    4.40
   1   9   0   83.69    4.30
  -2  -9   0  991.80   34.50
   2   9   0 1016.40   34.40
   3   9   0  130.69    6.00
  -4  -9   0  510.95   17.30
   4   9   0  480.05   17.80
  -5  -9   0  570.84   19.00
   5   9   0  511.45   19.40
   6   9   0  174.08    8.10
  13 -10   0  106.89    5.50
  12 -10   0  524.75   18.60
  11 -10   0 1082.99   36.90
  10 -10   0   87.59    6.30
  10 -10   0   86.89    4.20
 -10  10   0   90.79    4.90
   9 -10   0 2714.83   91.09
   9 -10   0 2758.62   90.49
  -9  10   0 2623.04   90.69
   8 -10   0   47.00    4.10
   8 -10   0   49.30    2.90
  -8  10   0   46.50    3.80
   7 -10   0 1819.12   62.59
   7 -10   0 1907.31   63.29
  -7  10   0 1867.31   63.09
   6 -10   0  231.08    9.10
   6 -10   0  233.18    8.30
  -6  10   0  214.48    9.00
   5 -10   0  178.58    6.70
   5 -10   0  181.98    7.40
  -5  10   0  168.28    7.40
   4 -10   0  264.37   10.20
   4 -10   0  259.77    9.60
  -4  10   0  266.77   10.10
   3 -10   0  855.31   29.60
   3 -10   0  880.81   30.00
  -3  10   0  867.61   29.90
   2 -10   0  249.88    9.50
   2 -10   0  234.88    9.00
   1 -10   0 3834.12  133.39
  -1  10   0 4138.49  134.69
   0 -10   0  430.16   15.60
   0  10   0  443.66   15.60
  -1 -10   0 1548.25   49.10
   1  10   0 1274.07   47.80
   2  10   0  200.98    8.20
   3  10   0   13.20    2.30
  -4 -10   0  132.09    5.80
   4  10   0  121.99    6.60
   5  10   0   45.40    5.00
  13 -11   0  441.96   16.20
  12 -11   0  319.37   11.80
  11 -11   0   83.79    4.30
 -11  11   0   89.39    5.30
  10 -11   0  944.51   32.40
 -10  11   0  956.70   32.80
   9 -11   0  157.38    6.40
  -9  11   0  162.78    7.20
   8 -11   0  115.29    6.40
   8 -11   0  128.99    5.20
  -8  11   0  122.99    6.10
   7 -11   0  643.04   23.40
   7 -11   0  655.83   22.70
  -7  11   0  675.53   23.30
   6 -11   0    2.90    2.00
   6 -11   0    3.90    1.20
  -6  11   0    4.00    2.00
   5 -11   0 1562.24   51.49
   5 -11   0 1472.15   50.89
  -5  11   0 1489.95   51.49
   4 -11   0 1329.27   46.30
   4 -11   0 1411.56   46.80
  -4  11   0 1365.26   46.80
   3 -11   0  822.12   28.90
   3 -11   0  815.82   28.50
  -3  11   0  852.41   28.90
   2 -11   0 2126.59   74.99
   2 -11   0 2328.07   75.39
  -2  11   0 2236.08   75.19
   1 -11   0   63.89    4.00
   1 -11   0   65.79    4.40
  -1  11   0   61.09    4.30
   0  11   0  902.21   31.20
   1  11   0  289.97   11.20
   2  11   0   24.00    4.00
   3  11   0  444.86   16.40
  12 -12   0    8.90    1.80
  11 -12   0  156.18    6.50
 -11  12   0  157.38    7.40
  10 -12   0  236.78    9.00
 -10  12   0  240.28    9.80
   9 -12   0   25.60    2.70
  -9  12   0   24.70    4.20
   8 -12   0 2497.35   85.19
  -8  12   0 2584.44   85.89
   7 -12   0    3.90    1.30
  -7  12   0    2.80    2.40
   6 -12   0 2071.89   68.89
   6 -12   0 2119.89   69.69
  -6  12   0 1953.90   69.49
   5 -12   0  380.56   14.50
   5 -12   0  375.56   13.70
  -5  12   0  393.26   14.60
   4 -12   0  350.26   13.30
   4 -12   0  325.37   12.50
  -4  12   0  359.86   13.30
   3 -12   0   35.70    4.20
   3 -12   0   34.30    3.30
  -3  12   0   37.70    4.10
   2 -12   0  207.08    9.20
  -2  12   0  232.38    9.20
   1 -12   0  369.16   14.20
  -1  12   0  386.46   14.20
   0 -12   0  691.83   24.80
   0  12   0  712.83   24.80
  -1 -12   0   72.69    5.20
   1  12   0   73.59    5.20
   2  12   0 1531.05   52.29
  12 -13   0  313.47   11.70
 -12  13   0  312.57   12.40
  11 -13   0  898.81   31.60
 -11  13   0  950.00   32.30
  10 -13   0  120.89    5.50
 -10  13   0  124.69    6.90
   9 -13   0 1348.77   46.30
  -9  13   0 1386.56   47.10
   8 -13   0    3.20    1.50
  -8  13   0    1.90    2.60
   7 -13   0 1369.96   46.40
  -7  13   0 1365.76   47.20
   6 -13   0  194.28    7.80
  -6  13   0  197.78    9.20
   5 -13   0   83.29    5.30
  -5  13   0   68.89    5.80
  -4  13   0  269.47   11.30
   3 -13   0  253.77   11.40
  -3  13   0  261.17   10.80
   2 -13   0  194.18    8.90
  -2  13   0  205.28    9.00
   1 -13   0  828.02   29.50
  -1  13   0  853.41   29.60
   0 -13   0  218.98    9.60
   0  13   0  222.48    9.70
 -11  14   0  374.56   14.70
 -10  14   0  328.07   13.30
  -9  14   0   13.90    3.40
  -8  14   0  325.47   13.40
  -7  14   0  708.13   25.80
  -6  14   0   38.70    5.80
  -5  14   0 1324.67   46.00
  -4  14   0  661.83   24.10
  -3  14   0  520.85   19.50
  -2  14   0  431.96   16.50
  -1  14   0   86.99    6.70
  -9  15   0   92.99    7.40
  -8  15   0  856.11   30.90
  -7  15   0    7.40    3.70
  -6  15   0 1916.11   65.89
  -5  15   0  232.48   11.20
  -4  15   0  331.97   13.90
  -3  15  -1  355.56   14.50
  -4  15  -1   19.00    3.60
  -5  15  -1  839.62   30.30
  -6  15  -1 1086.29   38.40
  -7  15  -1  345.67   14.50
  -8  15  -1  689.53   25.30
  -9  15  -1   63.89    6.30
  -1  14  -1   50.99    5.60
  -2  14  -1  391.46   15.20
  -3  14  -1  130.29    7.30
  -4  14  -1 1549.14   53.29
  -5  14  -1  686.53   24.90
  -6  14  -1  940.31   33.30
  -7  14  -1  961.50   34.50
   7 -14   1  996.60   33.70
  -8  14  -1   -0.20    3.00
   8 -14   1    3.20    1.60
  -9  14  -1  224.78    9.70
   9 -14   1  207.68    8.30
 -10  14  -1  107.79    6.70
  10 -14   1   96.29    4.80
 -11  14  -1   77.09    5.80
   1  13  -1  970.80   33.80
   0  13  -1  164.78    7.80
   0 -13   1  160.58    7.70
  -1  13  -1  875.61   30.40
   1 -13   1  859.71   30.30
  -2  13  -1    1.70    2.30
   2 -13   1    2.20    2.50
  -3  13  -1  812.92   27.70
   3 -13   1  755.72   27.60
  -4  13  -1   15.60    2.70
   4 -13   1   17.90    3.40
   4 -13   1   21.20    3.60
  -5  13  -1  161.18    7.80
   5 -13   1  151.28    6.50
  -6  13  -1  784.02   28.60
   6 -13   1  830.72   27.80
  -7  13  -1  217.18    9.70
   7 -13   1  224.28    8.40
  -8  13  -1  188.58    8.50
   8 -13   1  176.28    7.10
  -9  13  -1 1354.46   45.60
   9 -13   1 1304.77   45.00
 -10  13  -1   11.10    2.50
  10 -13   1    8.60    1.60
 -11  13  -1 1139.79   39.40
  11 -13   1 1153.28   38.90
   2  12  -1 1008.30   34.90
   1  12  -1  285.97   11.10
  -1 -12   1  273.57   10.90
   0  12  -1 1322.87   45.60
   0 -12   1 1350.56   45.70
  -1  12  -1   13.90    2.30
   1 -12   1   14.50    2.50
  -2  12  -1  445.26   15.30
   2 -12   1  397.96   14.90
   2 -12   1  397.46   15.20
  -3  12  -1   99.99    5.40
   3 -12   1   89.19    4.60
   3 -12   1   96.69    5.50
  -4  12  -1    2.80    2.10
   4 -12   1    1.00    1.30
   4 -12   1    1.50    2.20
  -5  12  -1  857.91   29.60
   5 -12   1  845.52   28.80
   5 -12   1  822.82   29.50
   6 -12   1  493.45   18.10
   6 -12   1  491.55   17.20
  -7  12  -1  860.01   29.50
   7 -12   1  825.72   28.70
  -8  12  -1 2234.18   75.09
   8 -12   1 2207.18   74.49
  -9  12  -1  220.28    9.10
   9 -12   1  219.58    8.20
 -10  12  -1 1156.98   39.90
  10 -12   1 1170.78   39.40
 -11  12  -1   28.40    4.20
  11 -12   1   24.20    2.70
  12 -12   1   34.10    3.50
   4  11  -1  569.54   20.60
   3  11  -1   30.70    4.30
   2  11  -1  158.48    7.20
  -2 -11   1  164.38    7.00
   1  11  -1 1439.96   49.20
  -1 -11   1 1455.45   49.20
   0  11  -1    7.50    1.90
   0 -11   1    8.40    2.10
  -1  11  -1   47.50    3.70
   1 -11   1   39.50    3.30
   1 -11   1   41.80    3.70
  -2  11  -1 2546.95   85.99
   2 -11   1 2551.34   85.79
   2 -11   1 2568.94   86.09
  -3  11  -1  863.61   29.50
   3 -11   1  866.51   29.60
   3 -11   1  829.52   29.20
  -4  11  -1  941.31   32.60
   4 -11   1  955.90   32.60
   4 -11   1  930.51   32.10
  -5  11  -1  117.09    6.00
   5 -11   1  126.19    6.10
   5 -11   1  122.39    5.10
  -6  11  -1 1291.07   45.50
   6 -11   1 1325.17   45.00
   6 -11   1 1381.36   45.70
  -7  11  -1 1505.15   50.99
   7 -11   1 1486.85   50.49
   7 -11   1 1506.95   51.19
  -8  11  -1  155.48    6.70
   8 -11   1  156.08    6.00
   8 -11   1  141.59    7.10
  -9  11  -1 1322.77   45.80
   9 -11   1 1374.66   45.50
 -10  11  -1  171.28    7.40
  10 -11   1  182.18    6.90
  11 -11   1   56.19    3.40
  12 -11   1  417.36   14.80
   5  10  -1  158.38    7.50
   4  10  -1   32.90    4.20
  -4 -10   1   35.80    3.10
   3  10  -1    3.50    2.00
  -3 -10   1    2.80    1.80
   2  10  -1  697.93   24.20
  -2 -10   1  688.93   24.00
   1  10  -1  987.10   33.80
  -1 -10   1  945.61   33.80
  -1 -10   1 1026.70   33.80
   0  10  -1  602.64   21.00
   0 -10   1  587.54   21.00
   0 -10   1  617.44   21.10
  -1  10  -1 2234.58   75.69
   1 -10   1 2288.37   75.79
   1 -10   1 2224.48   75.59
   2 -10   1    8.90    1.40
   2 -10   1    9.50    1.80
  -3  10  -1 2363.86   78.79
   3 -10   1 2366.26   78.89
   3 -10   1 2296.47   78.49
  -4  10  -1   76.59    4.40
   4 -10   1   76.89    4.40
   4 -10   1   79.39    3.60
  -5  10  -1  300.67   11.60
   5 -10   1  322.17   11.10
   5 -10   1  314.47   11.70
  -6  10  -1  148.99    6.50
   6 -10   1  153.88    6.70
   6 -10   1  153.28    5.80
  -7  10  -1   13.20    2.00
   7 -10   1   14.10    2.10
   7 -10   1   16.40    1.90
  -8  10  -1  318.77   11.50
   8 -10   1  306.47   11.90
   8 -10   1  311.97   11.10
  -9  10  -1 1672.03   56.89
   9 -10   1 1680.83   57.39
   9 -10   1 1706.03   56.69
 -10  10  -1  134.49    6.00
  10 -10   1  133.29    5.50
  11 -10   1 1290.17   43.70
  12 -10   1  107.89    5.00
   6   9  -1   55.29    4.80
   5   9  -1  461.55   17.80
  -5  -9   1  529.35   17.40
   4   9  -1   62.59    4.30
  -4  -9   1   67.59    3.50
   3   9  -1  524.25   18.50
   2   9  -1  723.33   24.70
  -2  -9   1  701.73   24.80
   1   9  -1 1025.30   35.60
  -1  -9   1 1065.49   35.70
   0   9  -1 2146.09   73.99
   0  -9   1 2231.68   74.09
   0  -9   1 2234.98   74.09
  -1   9  -1   22.30    2.40
   1  -9   1   15.10    2.50
   1  -9   1   19.90    2.20
  -2   9  -1 2592.94   81.69
   2  -9   1 2244.98   80.09
   2  -9   1 2335.67   80.29
  -3   9  -1  687.43   24.30
   3  -9   1  693.83   24.00
   3  -9   1  732.23   24.40
  -4   9  -1   31.00    2.80
   4  -9   1   30.60    2.00
   4  -9   1   25.80    2.80
  -5   9  -1  208.58    8.50
   5  -9   1  233.38    8.70
   5  -9   1  225.38    8.00
  -6   9  -1  717.83   25.50
   6  -9   1  754.22   25.70
   6  -9   1  746.73   25.10
  -7   9  -1  265.87    9.70
   7  -9   1  254.37    9.30
   7  -9   1  262.57   10.00
  -8   9  -1 2948.00   95.39
   8  -9   1 2729.83   94.59
   8  -9   1 2756.52   93.99
  -9   9  -1  295.77   10.90
   9  -9   1  304.77   10.70
   9  -9   1  290.57   11.30
  10  -9   1 2297.67   79.29
  10  -9   1 2398.76   78.79
  11  -9   1  232.28    8.80
  12  -9   1  704.13   24.40
  13  -9   1   73.39    4.40
  14  -9   1    0.10    3.80
   7   8  -1   56.39    4.90
   6   8  -1 2372.16   79.99
  -6  -8   1 2375.26   79.49
   5   8  -1   77.09    4.80
  -5  -8   1   89.79    4.20
   4   8  -1 1166.78   39.30
  -4  -8   1 1169.08   38.90
  -4  -8   1 1121.39   39.60
   3   8  -1  417.26   14.70
  -3  -8   1  410.96   15.00
   2   8  -1  897.01   31.10
  -2  -8   1  928.31   31.30
   1   8  -1  207.68    7.90
  -1  -8   1  212.68    8.00
   0   8  -1   12.00    2.10
   0  -8   1   10.80    1.90
  -1   8  -1  422.96   14.60
   1  -8   1  412.66   14.50
  -2   8  -1 3507.15  120.19
   2  -8   1 3561.74  120.19
   2  -8   1 3556.14  120.19
  -3   8  -1   49.50    2.80
   3  -8   1   41.30    2.50
   3  -8   1   43.20    2.90
  -4   8  -1 2586.64   89.59
   4  -8   1 2794.62   89.69
   4  -8   1 2525.05   88.39
  -5   8  -1 1260.27   43.80
   5  -8   1 1304.47   43.50
   5  -8   1 1320.07   44.00
  -6   8  -1 2200.88   73.89
   6  -8   1 2207.78   73.69
   6  -8   1 2198.48   74.09
  -7   8  -1 2204.88   73.89
   7  -8   1 2213.48   74.19
   7  -8   1 2192.28   73.79
  -8   8  -1  305.27   11.20
   8  -8   1  316.17   11.00
   8  -8   1  310.77   11.50
   9  -8   1 1767.42   59.79
  10  -8   1   29.50    3.40
  10  -8   1   31.50    2.70
  11  -8   1  232.68    8.80
  11  -8   1  226.78    9.20
  12  -8   1  864.41   29.80
  13  -8   1  186.38    7.60
  13  -8   1  180.18    7.70
  14  -8   1  525.95   18.70
   8   7  -1  179.98    8.20
  -7  -7   1  527.95   18.00
   6   7  -1   11.30    2.10
  -6  -7   1    9.60    1.50
   5   7  -1  821.52   28.10
  -5  -7   1  837.02   27.60
  -5  -7   1  782.42   28.30
   4   7  -1  564.14   19.90
  -4  -7   1  578.04   20.20
  -4  -7   1  573.24   19.50
   3   7  -1   35.90    3.50
  -3  -7   1   41.70    3.00
   2   7  -1  403.66   14.30
  -2  -7   1  414.26   14.40
   1   7  -1  310.87   11.20
  -1  -7   1  324.47   11.30
   0   7  -1  161.98    6.10
   0  -7   1  162.88    6.10
  -1   7  -1 5056.39  168.98
   1  -7   1 5136.09  169.28
   1  -7   1 4796.22  169.58
  -2   7  -1    1.50    0.90
   2  -7   1    1.60    0.80
   2  -7   1    1.40    1.00
  -3   7  -1 6336.47  208.68
   3  -7   1 6043.70  208.88
   3  -7   1 6150.98  207.68
  -4   7  -1 1034.60   36.90
   4  -7   1 1126.09   36.70
   4  -7   1 1109.79   37.00
  -5   7  -1 3962.30  130.19
   5  -7   1 4071.99  128.99
   5  -7   1 3448.35  127.89
  -6   7  -1   85.19    3.80
   6  -7   1   87.89    4.00
   6  -7   1   87.19    3.50
  -7   7  -1   96.09    4.10
   7  -7   1   95.79    3.90
   7  -7   1   92.19    4.40
  -8   7  -1  472.95   16.80
   8  -7   1  474.25   16.70
   8  -7   1  465.15   16.30
  -9   7  -1  832.72   28.60
   9  -7   1  809.72   28.40
   9  -7   1  829.92   28.10
 -10   7  -1  683.33   24.10
  10  -7   1  683.03   23.80
  10  -7   1  684.73   23.60
  11  -7   1 1732.43   58.09
  11  -7   1 1707.73   58.29
  12  -7   1  197.78    7.70
  12  -7   1  187.78    8.10
  12  -7   1  193.78    7.90
  13  -7   1 1626.24   55.19
  13  -7   1 1624.54   54.89
  14  -7   1  246.38    9.60
   9   6  -1  434.56   16.10
   8   6  -1  468.05   17.00
   7   6  -1    8.00    2.00
  -7  -6   1    8.00    1.30
   6   6  -1  648.54   22.30
  -6  -6   1  652.23   21.70
  -6  -6   1  612.94   22.60
   5   6  -1 1369.86   46.40
  -5  -6   1 1465.95   46.70
  -5  -6   1 1272.27   45.90
   4   6  -1  139.89    5.90
  -4  -6   1  141.49    6.10
  -4  -6   1  154.98    5.40
   3   6  -1 2008.50   65.99
  -3  -6   1 1868.61   65.19
   2   6  -1 1624.54   55.09
  -2  -6   1 1658.13   55.19
   1   6  -1  248.58    9.00
  -1  -6   1  256.27    9.00
   0   6  -1 1567.84   51.29
   0  -6   1 1445.26   50.59
  -1   6  -1  209.58    7.40
   1  -6   1  209.28    7.40
   1  -6   1  204.88    7.50
  -2   6  -1 4672.93  157.88
   2  -6   1 4666.73  157.08
   2  -6   1 4664.13  157.68
  -3   6  -1  373.46   13.30
   3  -6   1  387.16   13.20
   3  -6   1  395.46   13.50
  -4   6  -1  889.61   30.40
   4  -6   1  909.31   30.20
   4  -6   1  889.91   30.50
  -5   6  -1  578.14   19.60
  -5   6  -1  570.64   19.80
   5  -6   1  564.54   19.40
  -6   6  -1  356.66   12.90
  -6   6  -1  359.36   12.60
   6  -6   1  360.96   12.80
   6  -6   1  370.06   12.50
  -7   6  -1 1089.89   37.30
   7  -6   1 1091.39   36.90
   7  -6   1 1101.59   37.20
  -8   6  -1 2018.00   68.19
   8  -6   1 2042.00   68.09
   8  -6   1 2006.30   67.89
  -9   6  -1  153.68    6.60
   9  -6   1  147.49    5.90
   9  -6   1  150.78    6.20
 -10   6  -1 2868.81   97.99
  10  -6   1 2945.91   97.79
  10  -6   1 2919.51   97.59
 -11   6  -1   45.50    4.50
  11  -6   1   54.69    3.60
  11  -6   1   50.59    3.60
  11  -6   1   52.69    3.50
 -12   6  -1 1134.69   39.10
  12  -6   1 1122.49   38.80
  12  -6   1 1123.49   38.80
  12  -6   1 1151.68   38.50
  13  -6   1  239.18    9.70
  13  -6   1  242.08    9.50
  14  -6   1  149.19    6.80
  10   5  -1   17.80    2.70
   9   5  -1  157.58    7.30
   8   5  -1  539.65   19.00
  -8  -5   1  529.65   18.20
   7   5  -1   98.69    4.90
  -7  -5   1   97.69    3.90
  -7  -5   1   95.99    5.50
   6   5  -1 2168.28   74.49
  -6  -5   1 2229.98   74.79
  -6  -5   1 2246.28   73.99
   5   5  -1   22.00    2.50
  -5  -5   1   23.80    2.80
  -5  -5   1   20.10    1.70
   4   5  -1 2877.61   95.99
  -4  -5   1 2644.04   94.29
  -4  -5   1 2917.11   94.79
   3   5  -1 2358.26   82.49
  -3  -5   1 2516.85   82.79
   2   5  -1 3637.04  123.29
  -2  -5   1 3648.54  123.19
   1   5  -1 2496.85   84.19
  -1  -5   1 2444.96   83.89
   0   5  -1   14.80    1.30
   0  -5   1   15.60    1.30
  -1   5  -1  288.37    9.80
   1  -5   1  277.77    9.80
   1  -5   1  283.07    9.90
  -2   5  -1 1958.50   65.49
   2  -5   1 1855.61   65.29
   2  -5   1 1920.01   64.99
   3  -5   1    7.10    1.30
   3  -5   1    9.20    0.90
  -4   5  -1 4493.35  156.58
  -4   5  -1 4661.23  155.98
   4  -5   1 4676.23  155.48
   4  -5   1 4659.73  156.68
  -5   5  -1 1642.84   56.89
  -5   5  -1 1778.02   57.69
   5  -5   1 1743.73   57.49
   5  -5   1 1600.84   56.89
  -6   5  -1 4708.43  158.98
   6  -5   1 4671.83  158.08
  -7   5  -1 3068.79  101.09
   7  -5   1 2778.02   99.19
   7  -5   1 3048.69  100.29
  -8   5  -1  433.96   15.40
   8  -5   1  435.26   15.20
   8  -5   1  428.06   15.10
  -9   5  -1  669.13   23.70
   9  -5   1  693.43   23.50
   9  -5   1  680.23   23.50
 -10   5  -1  289.77   11.00
  10  -5   1  283.07   10.70
  10  -5   1  294.97   10.70
  10  -5   1  291.77   10.50
  11  -5   1   79.09    4.20
  11  -5   1   78.29    4.20
  11  -5   1   78.99    4.40
 -12   5  -1  641.04   22.70
  12  -5   1  628.24   22.30
  12  -5   1  635.94   22.50
  12  -5   1  647.54   22.10
 -13   5  -1   19.00    3.10
  13  -5   1   18.50    2.30
  13  -5   1   18.00    2.50
  13  -5   1   17.60    2.30
  14  -5   1  915.11   31.50
  10   4  -1  206.88    8.80
   9   4  -1  901.91   30.50
  -9  -4   1  865.51   29.70
   8   4  -1  495.15   17.20
  -8  -4   1  465.35   17.60
  -8  -4   1  488.65   16.50
   7   4  -1  716.23   24.70
  -7  -4   1  705.33   24.10
  -7  -4   1  726.83   25.10
   6   4  -1   95.69    4.60
  -6  -4   1  102.69    3.80
  -6  -4   1  103.89    4.90
   5   4  -1 2573.84   87.39
  -5  -4   1 2740.33   87.39
  -5  -4   1 2470.35   87.09
   4   4  -1 1220.38   40.50
  -4  -4   1 1126.89   40.20
  -4  -4   1 1255.97   40.70
   3   4  -1 1864.01   63.79
   2   4  -1 2528.75   85.09
  -2  -4   1 2470.75   84.59
   1   4  -1  620.54   21.40
  -1  -4   1  639.04   21.40
   0   4  -1  440.26   15.20
   0  -4   1  452.85   15.20
  -1   4  -1 2012.70   65.39
   1  -4   1 1894.11   64.89
   1  -4   1 1847.92   64.99
  -2   4  -1  416.46   14.40
   2  -4   1  413.16   14.50
   2  -4   1  434.76   14.40
  -4   4  -1 1111.39   39.60
  -4   4  -1 1217.08   39.90
   4  -4   1 1222.08   39.70
   4  -4   1 1137.29   39.50
  -5   4  -1 3093.49  106.19
   5  -4   1 3151.68  105.99
   5  -4   1 3090.79  105.29
  -6   4  -1 1151.58   39.20
   6  -4   1 1163.98   39.10
   6  -4   1 1159.08   39.00
  -7   4  -1 1008.50   34.10
   7  -4   1  998.00   34.20
   7  -4   1  998.10   33.90
  -8   4  -1  843.42   29.50
   8  -4   1  869.81   29.30
   8  -4   1  874.81   29.30
   8  -4   1  852.71   29.10
  -9   4  -1   52.09    3.50
   9  -4   1   53.59    3.00
   9  -4   1   49.00    3.00
 -10   4  -1   27.80    3.30
  10  -4   1   27.50    2.80
  10  -4   1   27.40    2.60
  10  -4   1   23.60    2.60
 -11   4  -1 1820.52   63.19
  11  -4   1 1893.21   62.89
  11  -4   1 1888.61   63.19
  11  -4   1 1869.21   62.99
 -12   4  -1   53.49    4.80
  12  -4   1   50.59    3.60
  12  -4   1   52.79    4.10
  12  -4   1   52.39    3.80
 -13   4  -1 1376.36   47.00
  13  -4   1 1391.26   46.40
  13  -4   1 1395.16   46.50
  13  -4   1 1313.17   47.00
  11   3  -1 1210.88   41.50
 -10  -3   1  323.67   11.30
   9   3  -1  327.17   11.90
  -9  -3   1  310.97   11.10
   8   3  -1  676.93   23.40
  -8  -3   1  673.03   22.80
   7   3  -1  151.58    6.20
  -7  -3   1  151.68    5.50
  -7  -3   1  149.99    6.50
   6   3  -1  808.82   27.90
  -6  -3   1  805.82   27.50
  -6  -3   1  843.02   28.20
   5   3  -1  417.86   14.60
  -5  -3   1  429.36   14.80
  -5  -3   1  414.16   14.20
   4   3  -1   21.40    1.80
  -4  -3   1   19.00    1.20
   3   3  -1 3694.13  126.29
  -3  -3   1 3672.43  124.99
  -3  -3   1 3809.32  126.59
   2   3  -1 2518.45   89.79
  -2  -3   1 2792.82   90.49
   1   3  -1 1873.61   64.29
  -1  -3   1 1909.91   64.29
   0   3  -1 3972.90  132.79
   0  -3   1 3926.71  132.79
   0  -3   1 3954.70  132.79
  -1   3  -1 2314.57   77.19
  -1   3  -1 2216.88   77.69
   1  -3   1 2295.37   77.09
   1  -3   1 2322.77   77.79
  -2   3  -1 8976.20  303.37
   2  -3   1 9109.49  303.27
  -3   3  -1 3923.41  133.19
  -3   3  -1 4001.80  133.99
   3  -3   1 3866.21  133.19
   3  -3   1 4073.49  134.19
  -4   3  -1  558.54   19.10
   4  -3   1  557.64   19.00
   4  -3   1  560.84   18.90
  -5   3  -1 2729.73   90.89
   5  -3   1 2691.33   90.39
   5  -3   1 2570.74   89.79
  -6   3  -1    0.30    1.00
   6  -3   1    2.00    0.80
   6  -3   1   -0.20    0.80
  -7   3  -1 1611.54   54.69
   7  -3   1 1607.04   54.39
   7  -3   1 1651.73   54.59
  -8   3  -1 1427.66   48.20
   8  -3   1 1411.06   47.90
   8  -3   1 1438.16   48.00
  -9   3  -1  163.98    6.70
   9  -3   1  165.68    6.30
   9  -3   1  163.08    6.30
 -10   3  -1 1627.64   54.99
  10  -3   1 1662.53   54.69
  10  -3   1 1581.94   54.69
 -11   3  -1    5.10    2.10
  11  -3   1    3.00    1.40
  11  -3   1    4.90    1.70
  12  -3   1  873.61   29.40
  12  -3   1  856.11   29.40
  12  -3   1  841.72   30.00
 -13   3  -1   86.19    5.90
  13  -3   1   89.89    5.00
  13  -3   1   80.89    5.70
  13  -3   1   85.49    5.30
  12   2  -1 1049.40   36.20
  11   2  -1  371.76   13.90
  10   2  -1   31.70    3.70
 -10  -2   1   30.80    2.60
   9   2  -1 1115.29   37.40
  -9  -2   1 1079.79   37.00
   8   2  -1   92.99    5.10
  -8  -2   1  102.59    4.00
   7   2  -1  481.35   16.80
  -7  -2   1  482.15   16.40
   6   2  -1  438.06   15.20
  -6  -2   1  427.86   14.80
  -6  -2   1  444.36   15.40
   5   2  -1  509.55   17.40
  -5  -2   1  506.85   17.00
  -5  -2   1  495.45   18.20
   4   2  -1 6065.89  207.68
  -4  -2   1 6183.48  206.18
  -4  -2   1 6254.87  208.08
   3   2  -1 2366.36   82.69
  -3  -2   1 2433.66   81.79
  -3  -2   1 2504.85   83.19
   2   2  -1 4097.29  138.69
  -2  -2   1 4137.09  138.69
   1   2  -1 1008.60   34.10
  -1  -2   1  990.60   33.90
   0   2  -1  783.92   25.10
   0   2  -1  655.43   25.20
   0  -2   1  734.33   24.80
   0  -2   1  749.33   24.90
  -1   2  -1 1316.97   44.50
  -1   2  -1 1343.87   45.10
   1  -2   1 1312.77   44.40
   1  -2   1 1306.97   44.90
  -2   2  -1  409.66   13.40
   2  -2   1  384.26   13.30
   2  -2   1  389.26   13.50
  -3   2  -1   40.50    1.90
   3  -2   1   40.70    1.80
   3  -2   1   41.00    1.60
  -4   2  -1 2479.85   82.79
   4  -2   1 2376.46   82.19
  -5   2  -1  188.08    6.90
   5  -2   1  192.88    6.80
   5  -2   1  184.08    6.70
  -6   2  -1 3717.63  124.89
   6  -2   1 3592.24  124.59
   6  -2   1 3767.32  125.19
  -7   2  -1 4211.38  144.99
   7  -2   1 4280.87  144.29
   7  -2   1 4355.66  144.89
  -8   2  -1 2000.90   67.39
   8  -2   1 2007.80   67.19
  -9   2  -1  774.92   27.00
   9  -2   1  804.12   26.80
   9  -2   1  780.12   26.80
 -10   2  -1   41.70    3.50
  10  -2   1   44.20    2.70
  10  -2   1   40.30    3.20
 -11   2  -1   73.89    4.70
  11  -2   1   71.19    3.70
 -12   2  -1  481.85   17.80
  12  -2   1  506.75   17.50
  12  -2   1  490.45   17.40
 -13   2  -1   11.00    2.90
  13  -2   1    7.40    2.20
  12   1  -1  184.38    8.20
  11   1  -1   66.39    4.60
 -11  -1   1   62.89    3.70
  10   1  -1 1629.54   53.89
 -10  -1   1 1554.04   53.49
   9   1  -1 1331.07   45.30
   9   1  -1 1356.96   45.90
  -9  -1   1 1361.76   45.40
   8   1  -1  742.53   24.90
   8   1  -1  709.63   24.50
  -8  -1   1  722.03   24.60
   7   1  -1 1517.65   51.59
   7   1  -1 1550.74   51.99
  -7  -1   1 1561.34   51.69
   6   1  -1  158.58    5.80
   6   1  -1  163.38    6.20
  -6  -1   1  165.78    5.90
   5   1  -1 7021.80  236.28
   5   1  -1 6916.81  234.78
  -5  -1   1 7117.59  234.88
   4   1  -1  391.66   13.10
   4   1  -1  393.06   13.40
  -4  -1   1  398.36   13.50
  -4  -1   1  375.56   13.20
   3   1  -1 1465.35   50.99
   3   1  -1 1533.65   51.99
  -3  -1   1 1500.45   51.79
  -3  -1   1 1568.24   50.99
  -1  -1   1  178.68    6.10
   1  -1   1 3423.16  114.79
  -2   1  -1  752.22   26.30
   2  -1   1  793.72   26.20
   2  -1   1  773.72   26.30
  -3   1  -1 4878.71  166.18
   3  -1   1 4937.31  165.58
   3  -1   1 4995.60  165.98
  -4   1  -1  342.07   11.90
   4  -1   1  334.67   11.80
   4  -1   1  354.46   11.80
  -5   1  -1 4785.72  160.08
   5  -1   1 4652.23  159.78
   5  -1   1 4810.82  160.08
  -6   1  -1  289.27   10.40
   6  -1   1  296.27   10.20
   6  -1   1  296.87   10.30
  -7   1  -1  816.92   27.70
   7  -1   1  815.92   27.60
   7  -1   1  813.02   27.60
  -8   1  -1 1137.29   38.70
   8  -1   1 1141.49   38.50
   8  -1   1 1148.49   38.60
  -9   1  -1  124.39    5.40
   9  -1   1  125.29    5.30
   9  -1   1  124.99    5.00
 -10   1  -1  136.09    6.00
  10  -1   1  134.19    5.80
  10  -1   1  135.79    5.50
 -11   1  -1  653.93   23.00
  11  -1   1  669.63   22.90
  11  -1   1  653.83   22.70
 -12   1  -1   38.00    4.30
  12  -1   1   36.50    4.00
  13   0  -1  176.98    8.10
  12   0  -1    9.50    2.30
  11   0  -1  950.80   32.80
  11   0  -1 1003.30   33.30
 -11   0   1  952.30   32.90
  10   0  -1  961.50   32.50
  10   0  -1  946.51   32.00
 -10   0   1  934.11   32.20
   9   0  -1 1225.38   40.90
   9   0  -1 1205.98   40.60
  -9   0   1 1187.88   40.70
   8   0  -1 3569.34  117.19
   8   0  -1 3293.47  116.39
  -8   0   1 3585.14  117.49
   7   0  -1  428.26   14.50
   7   0  -1  428.66   14.90
  -7   0   1  424.26   14.70
   6   0  -1 1290.37   40.90
   6   0  -1 1156.78   40.60
  -6   0   1 1171.38   40.50
   5   0  -1  142.49    5.00
   5   0  -1  137.59    5.30
  -5   0   1  145.79    5.10
   4   0  -1 1211.08   40.10
   4   0  -1 1166.78   40.50
  -4   0   1 1170.18   40.00
   2   0  -1 3128.99  104.59
  -1   0  -1   56.79    2.30
  -1   0  -1   57.69    2.20
   1   0   1   69.49    2.30
   1   0   1   56.79    2.20
  -2   0  -1 3943.11  131.99
  -2   0  -1 3905.71  131.89
   2   0   1 3894.31  131.79
   2   0   1 3980.50  131.89
  -3   0  -1   46.30    2.10
  -3   0  -1   51.19    2.10
   3   0   1   51.69    2.10
   3   0   1   50.29    2.10
  -4   0  -1 2461.35   82.19
  -4   0  -1 2425.36   82.69
   4   0   1 2343.37   82.09
   4   0   1 2494.75   82.09
  -5   0  -1   37.80    2.10
  -5   0  -1   39.40    2.20
   5   0   1   40.70    1.90
   5   0   1   40.00    2.10
  -6   0  -1  263.97    9.60
   6   0   1  279.07    9.60
   6   0   1  274.17    9.70
  -7   0  -1 1822.42   61.49
   7   0   1 1845.72   61.39
   7   0   1 1831.32   61.49
  -8   0  -1  913.21   31.30
   8   0   1  907.41   31.20
   8   0   1  944.11   31.30
  -9   0  -1  902.11   30.70
   9   0   1  908.61   30.70
   9   0   1  884.21   30.60
 -10   0  -1 1266.07   42.90
  10   0   1 1242.18   42.70
  10   0   1 1283.17   42.90
 -11   0  -1   45.50    4.10
  11   0   1   40.30    4.00
  11   0   1   49.30    3.00
 -12   0  -1  857.61   30.70
  12   0   1  909.21   30.50
  13  -1  -1   14.70    2.60
  12  -1  -1  668.43   23.10
  12  -1  -1  677.23   23.60
  11  -1  -1  194.28    7.80
  11  -1  -1  188.28    7.10
 -11   1   1  184.48    7.50
  10  -1  -1  888.21   30.30
  10  -1  -1  886.91   30.00
 -10   1   1  881.01   30.20
   9  -1  -1 2136.69   73.59
   9  -1  -1 2322.17   73.99
  -9   1   1 2114.79   73.49
   8  -1  -1   89.79    4.20
   8  -1  -1   97.39    3.70
  -8   1   1   94.99    4.00
   7  -1  -1  902.01   30.60
   7  -1  -1  907.41   30.40
  -7   1   1  893.11   30.50
   6  -1  -1 1450.25   52.79
   6  -1  -1 1651.63   53.49
  -6   1   1 1619.84   53.59
   5  -1  -1  355.86   11.90
   5  -1  -1  350.56   12.00
  -5   1   1  334.47   11.90
   4  -1  -1 1022.00   34.30
  -4   1   1  982.70   34.20
   3  -1  -1   56.99    2.20
   0  -1  -1 1308.47   44.20
  -1  -1  -1 2013.00   66.49
  -1  -1  -1 1984.70   66.59
   1   1   1 1900.71   66.29
  -2  -1  -1  143.19    5.10
  -2  -1  -1  143.59    5.10
   2   1   1  149.49    5.10
   2   1   1  143.69    5.10
  -3  -1  -1 1941.01   64.99
  -3  -1  -1 1922.81   64.59
   3   1   1 1901.71   64.89
   3   1   1 1875.61   64.59
  -4  -1  -1  168.98    6.00
  -4  -1  -1  170.98    6.20
   4   1   1  164.78    6.00
   4   1   1  173.48    6.10
  -5  -1  -1  986.20   32.70
  -5  -1  -1  973.30   32.50
   5   1   1  935.01   32.50
   5   1   1  963.50   32.60
  -6  -1  -1 1456.75   49.30
  -6  -1  -1 1532.15   49.50
   6   1   1 1427.76   49.20
   6   1   1 1452.25   49.30
  -7  -1  -1 1456.75   49.50
  -7  -1  -1 1502.25   49.80
   7   1   1 1448.56   49.40
   7   1   1 1474.35   49.50
  -8  -1  -1 1063.09   36.00
   8   1   1 1044.30   35.90
   8   1   1 1084.99   36.10
  -9  -1  -1  607.34   21.30
   9   1   1  624.04   21.40
 -10  -1  -1   38.40    3.70
  10   1   1   32.20    3.80
 -11  -1  -1  897.61   31.40
  11   1   1  933.51   31.60
  13  -2  -1  557.44   19.90
  12  -2  -1   73.59    3.60
  12  -2  -1   72.89    4.70
  11  -2  -1  114.59    5.60
  11  -2  -1  119.59    4.80
  10  -2  -1  473.25   16.30
  10  -2  -1  474.05   16.60
 -10   2   1  466.85   16.50
   9  -2  -1  753.82   25.20
   9  -2  -1  752.32   25.40
  -9   2   1  718.43   25.40
   8  -2  -1  590.84   20.50
   8  -2  -1  608.34   20.30
  -8   2   1  586.14   20.40
   7  -2  -1 3179.58  107.49
   7  -2  -1 3263.77  107.49
  -7   2   1 3079.79  106.89
   6  -2  -1  189.88    6.80
  -6   2   1  188.58    6.90
   5  -2  -1 3478.25  115.79
   5  -2  -1 3419.26  115.89
  -5   2   1 3356.16  115.79
   4  -2  -1  405.36   13.90
   4  -2  -1  402.56   13.80
   3  -2  -1 2569.24   88.59
   3  -2  -1 2687.13   88.59
  -3   2   1 2593.74   88.79
   2  -2  -1 1314.27   45.60
  -2   2   1 1353.26   45.70
  -1   2   1 1531.25   52.19
   0  -2  -1 2401.36   80.09
   0   2   1 2335.27   80.09
  -1  -2  -1 2963.50   95.79
   1   2   1 2708.53   95.59
  -2  -2  -1 1514.05   52.29
  -2  -2  -1 1631.94   53.09
   2   2   1 1515.75   52.79
  -3  -2  -1 3113.79  115.39
  -3  -2  -1 3660.73  116.19
   3   2   1 3498.55  115.69
  -4  -2  -1  327.57   11.80
  -4  -2  -1  360.36   12.00
   4   2   1  338.77   11.90
  -5  -2  -1  781.72   26.10
  -5  -2  -1  772.62   26.30
   5   2   1  760.02   26.20
  -6  -2  -1  403.96   14.00
  -6  -2  -1  410.06   14.40
   6   2   1  402.56   14.20
  -7  -2  -1  713.93   24.40
  -7  -2  -1  692.63   23.90
   7   2   1  697.33   24.10
  -8  -2  -1  615.24   21.80
  -8  -2  -1  621.24   21.30
   8   2   1  616.74   21.70
  -9  -2  -1    4.80    1.80
   9   2   1    5.50    1.80
 -10  -2  -1  245.38    9.50
  10   2   1  253.67    9.80
  11   2   1  351.46   13.20
  14  -3  -1  364.96   13.80
  13  -3  -1  553.84   19.10
  13  -3  -1  564.14   19.50
  13  -3  -1  520.35   20.10
  12  -3  -1    3.50    1.40
  12  -3  -1    4.10    2.00
  12  -3  -1    4.70    2.00
  11  -3  -1  469.65   17.40
  11  -3  -1  488.55   16.80
  11  -3  -1  485.35   17.10
  10  -3  -1  404.56   14.60
  10  -3  -1  395.06   14.30
  10  -3  -1  405.36   14.10
   9  -3  -1 1398.96   45.40
   9  -3  -1 1390.56   45.60
   9  -3  -1 1236.38   45.50
  -9   3   1 1348.17   45.40
   8  -3  -1 4912.51  160.48
  -8   3   1 4568.04  159.78
   7  -3  -1  167.78    6.30
   7  -3  -1  162.38    6.10
  -7   3   1  160.58    6.20
   6  -3  -1 4697.03  157.08
   6  -3  -1 4566.44  155.98
   5  -3  -1 2625.74   85.99
   5  -3  -1 2449.05   85.69
   4  -3  -1 2090.99   71.79
   4  -3  -1 2206.48   72.39
  -4   3   1 2038.10   71.39
   3  -3  -1  738.73   24.90
  -3   3   1  729.33   25.00
   2  -3  -1  116.19    4.60
  -2   3   1  122.09    4.70
   1  -3  -1   60.89    2.30
  -1   3   1   58.09    2.40
   0  -3  -1 4841.22  163.18
   0   3   1 4865.01  163.18
  -1  -3  -1 2701.53   87.99
   1   3   1 2474.45   87.69
  -2  -3  -1 8294.67  269.97
   2   3   1 7779.22  269.57
  -3  -3  -1   19.50    1.50
  -3  -3  -1   17.20    1.60
   3   3   1   15.00    1.60
  -4  -3  -1 1868.81   62.09
  -4  -3  -1 1720.53   62.59
   4   3   1 1951.60   62.89
  -5  -3  -1  576.14   20.60
  -5  -3  -1  637.14   21.00
   5   3   1  602.84   20.80
  -6  -3  -1  329.57   11.50
  -6  -3  -1  327.67   12.00
   6   3   1  322.97   11.70
  -7  -3  -1  410.66   14.30
  -7  -3  -1  408.36   14.90
  -8  -3  -1  387.86   13.60
  -8  -3  -1  372.46   14.40
   8   3   1  392.96   13.90
  -9  -3  -1  247.78    9.40
   9   3   1  251.17    9.70
 -10  -3  -1  729.73   28.40
  10   3   1  904.01   28.50
  14  -4  -1 1401.56   47.80
  13  -4  -1    9.50    2.30
  13  -4  -1    8.10    2.40
  13  -4  -1    9.10    1.80
  12  -4  -1 1317.47   43.80
  12  -4  -1 1273.97   44.10
  12  -4  -1 1264.67   43.60
  11  -4  -1  106.79    5.30
  11  -4  -1  102.99    5.10
  11  -4  -1  108.69    4.80
  10  -4  -1 1641.54   55.59
  10  -4  -1 1663.23   55.89
  10  -4  -1 1641.24   55.59
   9  -4  -1  784.22   26.90
   9  -4  -1  789.02   27.10
   8  -4  -1  116.19    4.60
   8  -4  -1   90.19    4.80
   7  -4  -1 1628.54   55.29
   7  -4  -1 1659.33   55.29
   6  -4  -1 1466.65   49.90
   6  -4  -1 1500.45   49.90
   5  -4  -1  740.83   24.90
   5  -4  -1  733.33   24.90
  -5   4   1  721.03   24.90
   4  -4  -1 2197.28   73.79
   4  -4  -1 2118.89   73.39
  -4   4   1 2155.78   73.29
   3  -4  -1  865.81   29.10
  -3   4   1  857.71   29.20
   2  -4  -1  458.65   16.00
  -2   4   1  478.45   16.10
   1  -4  -1 1994.70   67.99
  -1   4   1 1999.10   68.19
   0  -4  -1 1237.38   39.70
   0   4   1 1083.19   38.90
  -1  -4  -1 5922.51  195.28
   1   4   1 5670.83  195.08
  -2  -4  -1  596.54   19.80
   2   4   1  560.34   19.70
  -3  -4  -1 1933.21   63.49
  -3  -4  -1 1762.92   62.69
   3   4   1 1906.71   63.69
  -4  -4  -1  761.72   25.30
  -4  -4  -1  731.53   25.00
   4   4   1  718.63   25.10
  -5  -4  -1  131.69    5.40
  -5  -4  -1  147.79    5.90
   5   4   1  141.29    5.60
  -6  -4  -1  870.51   30.40
  -6  -4  -1  916.11   31.00
   6   4   1  904.21   31.60
  -7  -4  -1  603.04   21.60
  -7  -4  -1  611.84   20.90
   7   4   1  606.84   21.20
  -8  -4  -1  728.53   24.90
   8   4   1  725.73   25.20
  -9  -4  -1  773.52   26.80
   9   4   1  787.92   27.20
  10   4   1  138.19    7.00
  14  -5  -1   10.40    2.00
  14  -5  -1   11.60    2.50
  13  -5  -1 1557.44   52.29
  13  -5  -1 1576.74   52.39
  13  -5  -1 1495.35   52.69
  12  -5  -1   81.09    5.30
  12  -5  -1   83.79    4.40
  12  -5  -1   84.59    4.90
  11  -5  -1  533.45   19.10
  11  -5  -1  545.25   19.40
  11  -5  -1  561.54   19.20
  10  -5  -1  489.85   17.40
  10  -5  -1  490.75   17.20
   9  -5  -1  269.57    9.90
   9  -5  -1  267.77    9.90
   8  -5  -1  688.83   24.10
   8  -5  -1  712.33   24.10
   7  -5  -1 1672.03   54.39
   7  -5  -1 1559.24   54.49
   6  -5  -1  300.97   10.90
   6  -5  -1  308.87   10.80
  -6   5   1  302.07   10.80
   5  -5  -1 5525.85  187.08
   5  -5  -1 5399.56  186.48
  -5   5   1 5660.13  186.98
   4  -5  -1 1653.33   58.79
   4  -5  -1 1796.02   59.49
  -4   5   1 1803.92   60.39
   3  -5  -1 2094.09   70.79
  -3   5   1 2058.89   71.09
   2  -5  -1  696.63   23.60
  -2   5   1  696.13   23.60
  -1   5   1  220.68    8.00
   0   5   1   65.49    2.90
   1   5   1   25.70    1.80
  -2  -5  -1  591.34   19.60
   2   5   1  548.95   19.50
  -3  -5  -1 1527.55   49.00
  -3  -5  -1 1406.86   48.50
   3   5   1 1377.86   48.40
  -4  -5  -1  218.28    7.60
  -4  -5  -1  207.38    8.00
   4   5   1  197.78    7.80
  -5  -5  -1 2627.64   87.79
  -5  -5  -1 2632.74   87.49
   5   5   1 2539.05   87.19
  -6  -5  -1  296.67   11.00
  -6  -5  -1  307.67   11.70
   6   5   1  313.97   11.30
  -7  -5  -1  280.17   10.20
   7   5   1  274.27   10.50
  -8  -5  -1  725.43   24.80
   8   5   1  718.73   25.20
   9   5   1   81.29    5.40
  14  -6  -1  581.74   19.80
  14  -6  -1  531.45   20.20
  14  -6  -1  549.35   19.80
  13  -6  -1  746.73   25.40
  13  -6  -1  735.33   25.30
  13  -6  -1  695.03   25.60
  12  -6  -1   23.90    3.50
  12  -6  -1   24.20    3.10
  11  -6  -1  669.33   23.20
  11  -6  -1  657.43   23.10
  10  -6  -1  605.04   21.00
  10  -6  -1  592.24   20.90
   9  -6  -1  434.86   15.40
   9  -6  -1  430.26   15.30
   8  -6  -1 1207.98   39.60
   8  -6  -1 1121.29   39.80
   7  -6  -1  147.79    5.80
   7  -6  -1  159.68    6.10
  -7   6   1  144.39    5.90
   6  -6  -1 6347.96  214.68
   6  -6  -1 6312.67  214.58
  -6   6   1 6444.66  215.18
   5  -6  -1   47.20    2.40
  -5   6   1   45.90    2.70
   4  -6  -1 4242.48  137.69
  -4   6   1 3871.51  137.29
   3  -6  -1 1970.70   62.09
  -3   6   1 1651.33   60.79
   2  -6  -1  193.88    6.90
  -2   6   1  188.98    7.10
   1  -6  -1  190.98    7.10
  -1   6   1  193.28    7.10
   0  -6  -1  722.53   24.20
   0   6   1  700.33   24.20
  -1  -6  -1   40.90    2.40
   1   6   1   39.80    2.40
  -2  -6  -1 4593.04  150.08
   2   6   1 4246.88  148.89
  -3  -6  -1   34.00    2.70
   3   6   1   30.80    2.60
  -4  -6  -1 3831.82  134.79
  -4  -6  -1 4195.68  135.79
   4   6   1 4046.70  136.09
  -5  -6  -1  242.58    8.70
  -5  -6  -1  220.98    9.30
   5   6   1  234.98    8.90
  -6  -6  -1  193.28    7.80
   6   6   1  208.08    8.10
  -7  -6  -1   19.70    2.30
   7   6   1   22.10    3.80
   8   6   1   27.20    4.40
  14  -7  -1  693.03   23.10
  14  -7  -1  612.74   23.30
  13  -7  -1    5.70    2.10
  13  -7  -1    7.40    2.20
  12  -7  -1 1915.11   64.19
  12  -7  -1 1875.51   64.19
  11  -7  -1  318.07   11.70
  11  -7  -1  308.57   11.80
  10  -7  -1 1198.28   41.50
  10  -7  -1 1241.68   41.70
   9  -7  -1  511.65   18.20
   9  -7  -1  530.45   18.40
   8  -7  -1   53.59    3.40
   8  -7  -1   52.59    3.10
  -8   7   1   56.29    3.30
   7  -7  -1  999.60   32.50
   7  -7  -1  879.61   32.50
  -7   7   1  960.10   32.30
   6  -7  -1   55.89    2.80
   6  -7  -1   56.39    3.30
  -6   7   1   57.09    3.20
   5  -7  -1  421.66   14.30
   5  -7  -1  406.16   14.00
  -5   7   1  380.06   14.20
   4  -7  -1 3032.90   99.79
  -4   7   1 2826.92   99.99
  -3   7   1  436.86   15.30
   2  -7  -1 4695.43  158.18
  -2   7   1 4638.54  158.58
   1  -7  -1 3777.92  124.09
  -1   7   1 3517.25  123.59
   0  -7  -1  230.68    8.30
   0   7   1  223.68    8.30
  -1  -7  -1 1444.16   47.50
   1   7   1 1368.46   47.40
  -2  -7  -1  273.87   10.00
   2   7   1  262.07    9.80
  -3  -7  -1  757.22   25.90
   3   7   1  735.63   25.70
  -4  -7  -1  458.85   17.20
  -4  -7  -1  497.55   16.60
   4   7   1  473.25   16.90
  -5  -7  -1   57.99    3.50
   5   7   1   42.50    3.80
  -6  -7  -1 1215.78   42.50
   6   7   1 1292.27   42.80
  14  -8  -1   14.20    2.60
  14  -8  -1    9.50    2.40
  13  -8  -1 1780.32   60.49
  12  -8  -1  312.87   11.60
  12  -8  -1  299.87   11.80
  11  -8  -1 1107.29   38.00
  11  -8  -1 1102.99   37.80
  10  -8  -1 1299.67   43.90
  10  -8  -1 1266.47   43.60
   9  -8  -1   14.60    2.40
   9  -8  -1    9.40    1.80
  -9   8   1    9.60    1.70
   8  -8  -1  365.76   13.20
   8  -8  -1  355.76   12.80
  -8   8   1  359.16   13.00
   7  -8  -1   91.79    4.10
   7  -8  -1   92.09    4.60
  -7   8   1   94.49    4.50
   6  -8  -1   11.40    1.70
   6  -8  -1    7.30    1.50
  -6   8   1    8.90    1.60
   5  -8  -1 2264.87   72.69
   5  -8  -1 2164.78   72.19
  -5   8   1 2036.00   72.49
   4  -8  -1  344.27   11.90
  -4   8   1  331.37   12.30
   3  -8  -1 4666.43  157.98
  -3   8   1 4664.43  157.98
   2  -8  -1  734.83   25.00
  -2   8   1  727.63   25.10
   1  -8  -1 1686.83   56.59
  -1   8   1 1678.53   56.69
   0  -8  -1  883.41   29.60
   0   8   1  850.21   29.60
  -1  -8  -1    4.20    1.50
   1   8   1    3.60    1.50
  -2  -8  -1   20.50    2.90
   2   8   1   19.30    2.80
  -3  -8  -1  826.42   29.30
   3   8   1  861.71   29.10
  -4  -8  -1    4.70    1.60
   4   8   1    3.50    1.70
  -5  -8  -1 1783.32   57.89
   5   8   1 1645.24   58.09
  -6  -8  -1  443.26   15.70
   6   8   1  429.06   16.00
   7   8   1  890.91   31.20
  14  -9  -1  274.97   10.90
  13  -9  -1   35.60    4.10
  12  -9  -1  273.87   10.60
  11  -9  -1 1029.10   36.20
  11  -9  -1 1064.39   35.90
  10  -9  -1  163.38    6.60
  10  -9  -1  156.28    7.10
 -10   9   1  155.88    6.80
   9  -9  -1 2162.18   70.39
   9  -9  -1 2077.99   69.89
  -9   9   1 1992.50   69.99
   8  -9  -1 2397.36   78.39
   8  -9  -1 2312.47   77.99
  -8   9   1 2257.07   78.19
   7  -9  -1   58.39    3.00
   7  -9  -1   51.69    3.80
  -7   9   1   54.89    3.80
   6  -9  -1  828.12   27.80
   6  -9  -1  800.22   27.30
  -6   9   1  772.52   27.70
   5  -9  -1   81.29    3.70
   5  -9  -1   84.89    4.40
  -5   9   1   74.79    4.40
   4  -9  -1 1884.51   63.39
  -4   9   1 1890.41   63.79
   3  -9  -1  270.07   10.00
  -3   9   1  285.37   10.40
   2  -9  -1  323.87   11.70
  -2   9   1  330.17   11.90
   1  -9  -1  888.31   28.00
  -1   9   1  741.63   28.90
   0  -9  -1 1237.08   41.30
   0   9   1 1190.88   41.20
  -1  -9  -1  226.08    9.00
   1   9   1  233.88    8.90
   2   9   1 1170.28   39.90
   3   9   1   71.59    4.50
  -4  -9  -1 1815.02   60.99
   4   9   1 1802.32   61.29
  -5  -9  -1   11.60    2.40
   5   9   1    5.80    2.40
  13 -10  -1   21.40    3.80
  12 -10  -1  792.02   27.50
  11 -10  -1  131.19    5.90
  10 -10  -1 2265.37   75.89
  10 -10  -1 2239.98   75.29
 -10  10   1 2203.58   75.39
   9 -10  -1 2282.17   76.99
   9 -10  -1 2312.47   77.49
  -9  10   1 2275.07   77.19
   8 -10  -1  232.48    9.60
   8 -10  -1  235.18    8.80
  -8  10   1  237.48    9.40
   7 -10  -1  840.02   28.70
   7 -10  -1  859.21   29.40
  -7  10   1  825.12   29.20
   6 -10  -1   86.99    5.00
   6 -10  -1   94.29    4.10
  -6  10   1   83.19    5.10
   5 -10  -1  100.99    5.20
   5 -10  -1  103.49    4.50
  -5  10   1   99.89    5.30
   4 -10  -1  606.14   21.20
   4 -10  -1  585.54   20.60
  -4  10   1  600.44   21.10
   2 -10  -1 2114.89   71.29
  -2  10   1 2123.79   71.49
   1 -10  -1 1042.50   35.70
  -1  10   1 1044.70   35.70
   0 -10  -1 1276.07   44.80
   0  10   1 1353.26   44.80
   1  10   1 1172.78   40.10
   2  10   1   69.69    4.70
   3  10   1  243.68    9.90
  -4 -10  -1   10.00    2.30
   4  10   1    7.30    2.40
  13 -11  -1  442.76   16.10
  12 -11  -1   99.19    5.10
  11 -11  -1  521.85   18.90
 -11  11   1  550.14   19.30
  10 -11  -1  619.14   20.30
 -10  11   1  537.45   21.60
   9 -11  -1  793.12   26.70
  -9  11   1  757.32   27.80
   8 -11  -1 1402.06   47.50
   8 -11  -1 1378.36   46.80
  -8  11   1 1366.66   47.40
   7 -11  -1  840.52   28.80
   7 -11  -1  839.82   28.10
  -7  11   1  776.32   29.30
   6 -11  -1  128.69    5.30
   6 -11  -1  124.79    6.40
  -6  11   1  119.39    8.00
   5 -11  -1 1045.30   36.00
   5 -11  -1 1056.69   36.60
  -5  11   1 1072.29   36.60
   4 -11  -1  406.86   14.70
   4 -11  -1  412.16   15.30
  -4  11   1  420.96   15.30
   3 -11  -1 1985.00   68.59
  -3  11   1 2088.19   68.99
   2 -11  -1  263.07   10.40
  -2  11   1  292.37   10.80
  -1  11   1 1115.79   38.30
   0  11   1 1002.30   34.60
   1  11   1    1.30    2.10
   2  11   1   56.09    4.80
   3  11   1  231.08    9.80
  13 -12  -1    8.60    2.10
  12 -12  -1  178.68    7.50
 -12  12   1  185.18    8.50
  11 -12  -1  225.38    8.90
 -11  12   1  233.48    9.80
  10 -12  -1    6.50    1.80
 -10  12   1    7.00    2.60
   9 -12  -1 1562.64   54.29
  -9  12   1 1652.53   54.99
   8 -12  -1 1014.90   34.90
  -8  12   1 1029.20   35.70
   7 -12  -1  584.34   20.00
  -7  12   1  558.44   20.80
   6 -12  -1 1532.95   51.79
   6 -12  -1 1539.35   52.69
  -6  12   1 1522.45   52.49
   5 -12  -1   20.20    2.90
   5 -12  -1   24.80    2.90
  -5  12   1   28.70    4.60
   4 -12  -1  277.37   11.20
   4 -12  -1  264.27   10.50
  -4  12   1  296.67   11.30
   3 -12  -1   77.59    5.40
  -3  12   1   87.79    5.40
   2 -12  -1  402.26   15.20
  -2  12   1  405.26   15.00
  -1  12   1  486.25   17.80
   0  12   1   99.09    6.10
   1  12   1  611.94   22.00
   2  12   1 1658.43   58.29
 -12  13   1  386.66   15.00
  11 -13  -1   69.69    4.40
 -11  13   1   82.89    6.00
  10 -13  -1  278.37   10.90
 -10  13   1  305.37   12.10
   9 -13  -1  514.75   18.70
  -9  13   1  545.25   19.70
   8 -13  -1  474.75   17.40
  -8  13   1  506.85   18.60
   7 -13  -1 1770.02   59.59
  -7  13   1 1748.33   60.29
  -6  13   1   16.60    3.10
  -5  13   1  716.83   25.90
  -4  13   1  366.26   14.30
  -3  13   1   34.50    5.00
  -2  13   1  526.15   19.30
  -1  13   1  220.88    9.80
   0  13   1 1099.19   38.20
 -11  14   1  336.37   13.60
 -10  14   1  243.88   11.20
  -9  14   1  157.78    8.60
  -8  14   1  818.22   29.50
  -7  14   1   40.30    6.20
  -6  14   1  299.37   12.90
  -5  14   1  753.52   27.30
  -4  14   1    6.60    3.10
  -3  14   1  418.46   16.30
  -2  14   1  168.18    8.70
  -9  15   1  319.47   14.00
  -8  15   1  249.38   12.00
  -7  15   1  262.57   12.40
  -6  15   1  688.43   25.60
  -5  15   1   22.40    4.10
  -3  15  -2   17.20    3.40
  -4  15  -2   70.39    6.70
  -5  15  -2 1193.48   41.80
  -6  15  -2   91.79    7.20
  -7  15  -2 1079.79   38.00
  -8  15  -2  115.19    7.60
  -9  15  -2  353.26   14.30
   9 -15   2  375.16   13.80
   0  14  -2   12.70    3.00
  -1  14  -2  161.68    8.10
   1 -14   2  159.18    8.80
  -2  14  -2  110.39    6.70
  -3  14  -2   72.99    5.90
  -4  14  -2 1996.10   67.99
  -5  14  -2   25.40    3.50
  -6  14  -2 1798.62   62.69
   6 -14   2 1870.51   61.89
  -7  14  -2  221.78   10.10
   7 -14   2  220.78    8.50
  -8  14  -2  290.57   11.70
   8 -14   2  276.67   10.40
  -9  14  -2  192.48    8.80
   9 -14   2  182.18    7.30
 -10  14  -2    1.00    2.50
  10 -14   2    0.20    1.60
 -11  14  -2   80.29    5.60
   1  13  -2  338.37   13.10
   0  13  -2  980.50   33.40
   0 -13   2  937.81   33.20
  -1  13  -2  302.37   11.70
   1 -13   2  284.07   11.60
  -2  13  -2  468.45   16.80
   2 -13   2  438.46   16.70
  -3  13  -2  890.61   30.10
   3 -13   2  831.52   30.10
  -4  13  -2   86.49    5.70
   4 -13   2   81.79    4.40
   4 -13   2   86.39    5.60
  -5  13  -2  815.02   28.70
   5 -13   2  810.22   27.90
  -6  13  -2  337.07   13.20
   6 -13   2  336.27   12.10
  -7  13  -2  107.89    6.20
   7 -13   2  102.09    4.70
   8 -13   2  818.72   28.00
  -9  13  -2  459.95   16.60
   9 -13   2  444.96   15.80
 -10  13  -2  122.29    6.20
  10 -13   2  122.89    5.20
 -11  13  -2  787.12   27.40
   3  12  -2 1217.78   41.90
   2  12  -2  138.29    6.90
   1  12  -2  982.10   33.90
  -1 -12   2  978.40   33.70
   0  12  -2 1133.09   38.50
   0 -12   2 1110.49   38.50
  -1  12  -2  796.42   26.90
   1 -12   2  748.13   26.90
  -2  12  -2  244.58    9.30
   2 -12   2  224.58    9.30
   2 -12   2  215.38    8.80
  -3  12  -2   11.30    2.20
   3 -12   2   11.00    2.30
   3 -12   2    9.30    1.60
  -4  12  -2  504.55   18.20
   4 -12   2  497.25   17.60
   4 -12   2  507.55   18.20
  -5  12  -2 1165.08   43.70
   5 -12   2 1314.57   43.20
   5 -12   2 1288.67   42.50
  -6  12  -2   61.69    4.60
   6 -12   2   67.19    3.40
   6 -12   2   58.09    4.80
  -7  12  -2 2112.09   70.59
   7 -12   2 2059.19   69.99
  -8  12  -2  609.44   21.20
   8 -12   2  586.84   20.50
  -9  12  -2 1236.68   42.60
   9 -12   2 1260.57   42.20
 -10  12  -2 1005.50   34.50
  10 -12   2 1004.70   34.10
  11 -12   2  107.69    4.60
   4  11  -2  729.53   25.70
   3  11  -2  127.39    6.40
  -3 -11   2  128.29    6.00
   2  11  -2 1073.79   36.60
  -2 -11   2 1058.99   36.40
   1  11  -2  749.82   25.70
  -1 -11   2  729.13   25.60
   0  11  -2   10.00    1.80
   0 -11   2    6.70    1.60
   0 -11   2    8.40    2.00
  -1  11  -2  807.62   27.50
   1 -11   2  803.72   27.50
   1 -11   2  772.82   27.40
  -2  11  -2  246.98    9.30
   2 -11   2  231.88    9.30
   2 -11   2  232.68    8.90
  -3  11  -2   63.19    4.10
   3 -11   2   53.19    4.10
   3 -11   2   59.09    3.20
  -4  11  -2  707.63   25.30
   4 -11   2  738.83   25.40
   4 -11   2  729.23   24.80
  -5  11  -2    7.70    2.00
   5 -11   2   12.00    2.00
   5 -11   2   12.90    2.30
  -6  11  -2 1718.43   58.69
   6 -11   2 1762.22   58.89
   6 -11   2 1715.63   58.19
  -7  11  -2  687.23   23.60
   7 -11   2  657.33   23.90
   7 -11   2  683.33   23.10
  -8  11  -2 2006.30   67.29
   8 -11   2 2022.50   66.99
   8 -11   2 1963.50   67.79
  -9  11  -2 1249.07   43.00
   9 -11   2 1282.97   42.70
 -10  11  -2   42.80    3.60
  10 -11   2   43.00    2.70
  11 -11   2  218.08    8.10
   5  10  -2  375.26   14.20
   4  10  -2   41.30    4.20
  -4 -10   2   42.30    3.20
   3  10  -2  197.78    8.10
  -3 -10   2  193.98    7.60
   2  10  -2  654.53   22.80
  -2 -10   2  650.83   22.60
   1  10  -2   96.89    4.80
  -1 -10   2   93.69    4.50
  -1 -10   2   90.79    4.70
   0  10  -2 1538.15   53.39
   0 -10   2 1610.44   53.49
   0 -10   2 1596.74   53.49
  -1  10  -2 1748.03   61.59
   1 -10   2 1829.52   61.49
   1 -10   2 1898.91   61.59
  -2  10  -2  643.44   21.80
   2 -10   2  624.04   21.90
   2 -10   2  614.44   21.60
  -3  10  -2 1108.39   37.10
   3 -10   2 1053.49   36.80
   3 -10   2 1099.59   37.20
  -4  10  -2  670.83   23.80
   4 -10   2  684.63   23.40
   4 -10   2  706.43   24.00
  -5  10  -2 1473.45   52.69
   5 -10   2 1588.84   52.29
   5 -10   2 1611.74   52.89
  -6  10  -2  584.14   19.80
   6 -10   2  555.34   20.00
   6 -10   2  556.54   19.30
  -7  10  -2  391.46   13.70
   7 -10   2  386.06   13.30
   7 -10   2  370.06   14.10
  -8  10  -2  362.26   13.00
   8 -10   2  354.66   13.40
   8 -10   2  366.66   12.60
  -9  10  -2  222.88    8.20
   9 -10   2  193.28    8.80
   9 -10   2  224.88    7.90
  10 -10   2  902.01   30.60
  11 -10   2  595.84   20.50
  12 -10   2   70.19    3.70
   6   9  -2  387.96   14.50
   5   9  -2  220.48    9.20
  -5  -9   2  249.97    8.60
  -5  -9   2  217.88    8.40
   4   9  -2   81.99    4.60
  -4  -9   2   76.29    3.80
   3   9  -2  840.12   29.10
  -3  -9   2  852.61   28.80
   2   9  -2   43.80    3.40
  -2  -9   2   43.80    3.50
  -2  -9   2   45.80    3.00
   1   9  -2 1609.54   54.89
  -1  -9   2 1644.34   54.99
   0   9  -2 1669.23   56.29
   0  -9   2 1679.53   56.39
   0  -9   2 1668.13   56.39
  -1   9  -2 1583.54   52.99
   1  -9   2 1559.14   52.89
   1  -9   2 1575.04   53.09
  -2   9  -2 3031.00   99.99
   2  -9   2 3045.20  100.29
   2  -9   2 2805.52   99.19
  -3   9  -2   18.30    2.30
   3  -9   2   14.90    1.60
   3  -9   2   10.50    1.70
  -4   9  -2  634.44   22.80
   4  -9   2  678.53   22.90
   4  -9   2  664.43   22.40
  -5   9  -2  529.75   18.80
   5  -9   2  549.15   18.90
   5  -9   2  533.75   18.40
  -6   9  -2   30.30    2.70
   6  -9   2   25.80    2.90
   6  -9   2   36.30    2.00
  -7   9  -2  645.14   22.50
   7  -9   2  661.13   22.90
   7  -9   2  660.73   22.30
  -8   9  -2  865.01   29.90
   8  -9   2  882.41   29.70
   8  -9   2  883.91   30.30
   9  -9   2 1833.52   62.69
   9  -9   2 1866.31   62.09
  10  -9   2 1867.61   64.39
  10  -9   2 1943.31   64.59
  11  -9   2  479.85   16.80
  12  -9   2  788.82   27.10
  13  -9   2    6.50    1.80
   7   8  -2  484.65   17.70
   6   8  -2 1771.02   59.59
  -6  -8   2 1805.12   58.79
  -6  -8   2 1699.33   58.79
   5   8  -2  186.18    7.70
  -5  -8   2  175.68    6.90
  -5  -8   2  201.58    7.00
   4   8  -2 1192.58   40.30
  -4  -8   2 1166.98   40.50
  -4  -8   2 1187.98   39.80
   3   8  -2   19.50    2.70
  -3  -8   2   20.40    2.10
  -3  -8   2   20.10    2.90
   2   8  -2 1419.06   49.70
  -2  -8   2 1504.45   49.70
  -2  -8   2 1481.15   49.40
   1   8  -2  622.34   21.50
  -1  -8   2  627.94   21.40
  -1  -8   2  624.24   21.60
   0   8  -2 1814.42   57.89
   0  -8   2 1637.04   57.09
   0  -8   2 1646.84   57.09
  -1   8  -2 2359.86   76.09
   1  -8   2 2312.37   75.49
   1  -8   2 2007.10   74.69
  -2   8  -2  258.47    9.00
   2  -8   2  241.28    8.80
   2  -8   2  245.08    9.10
  -3   8  -2 1012.60   34.80
   3  -8   2 1022.00   34.60
   3  -8   2 1047.60   35.00
  -4   8  -2 2671.63   93.89
   4  -8   2 2982.60   93.09
   4  -8   2 2624.44   92.49
  -5   8  -2   32.20    2.50
   5  -8   2   36.00    1.90
   5  -8   2   32.00    2.60
  -6   8  -2 2172.98   71.09
   6  -8   2 1967.50   70.19
   6  -8   2 2116.39   70.39
  -7   8  -2  429.96   14.90
  -7   8  -2  430.06   15.50
   7  -8   2  428.56   15.30
   7  -8   2  429.26   14.70
  -8   8  -2 1690.93   61.09
   8  -8   2 1815.22   60.19
   8  -8   2 1828.92   59.69
  -9   8  -2 1199.68   41.50
   9  -8   2 1216.68   40.80
   9  -8   2 1210.48   41.30
 -10   8  -2  345.77   12.90
  10  -8   2  322.77   11.90
  10  -8   2  335.47   12.50
 -11   8  -2 1201.38   40.30
  11  -8   2 1201.78   39.50
  11  -8   2 1088.49   39.90
 -12   8  -2   13.20    3.00
  12  -8   2   13.30    1.90
  12  -8   2   14.80    1.80
  13  -8   2   30.10    3.30
   8   7  -2  935.71   32.50
   7   7  -2 1215.98   41.60
   6   7  -2  841.02   29.00
  -6  -7   2  810.12   28.20
  -6  -7   2  865.31   28.20
   5   7  -2 1661.93   55.49
  -5  -7   2 1635.54   54.99
  -5  -7   2 1640.04   54.99
  -5  -7   2 1632.74   55.79
   4   7  -2   19.20    2.60
  -4  -7   2   18.70    2.80
   3   7  -2  663.33   23.20
  -3  -7   2  670.33   22.90
  -3  -7   2  692.53   23.40
   2   7  -2  195.18    7.30
  -2  -7   2  195.58    7.10
  -2  -7   2  193.78    7.40
   1   7  -2   83.99    3.60
  -1  -7   2   83.29    3.60
  -1  -7   2   82.99    3.50
   0   7  -2  603.74   20.60
   0  -7   2  596.24   20.60
   0  -7   2  602.24   20.60
  -1   7  -2 1112.59   36.90
   1  -7   2 1078.79   37.00
   1  -7   2 1092.79   36.90
  -2   7  -2 1154.98   38.30
   2  -7   2 1129.49   38.40
   2  -7   2 1120.59   38.10
  -3   7  -2 3616.24  122.79
   3  -7   2 3811.22  122.69
   3  -7   2 3456.55  124.79
  -4   7  -2  324.57   11.90
   4  -7   2  340.07   12.00
   4  -7   2  345.57   11.60
  -5   7  -2 6943.91  235.98
  -5   7  -2 7057.59  234.68
   5  -7   2 7144.49  235.98
   5  -7   2 6733.63  233.38
  -6   7  -2   85.19    4.30
  -6   7  -2   87.19    3.70
   6  -7   2   90.39    4.10
   6  -7   2   89.29    3.40
  -7   7  -2  300.47   11.10
  -7   7  -2  291.17   10.50
   7  -7   2  302.97   10.40
   7  -7   2  292.67   10.80
  -8   7  -2  295.47   11.30
   8  -7   2  300.87   10.50
   8  -7   2  298.67   11.00
   9  -7   2   11.80    1.90
   9  -7   2    8.90    1.60
 -10   7  -2  918.31   31.70
  10  -7   2  913.51   31.00
  10  -7   2  901.11   31.40
 -11   7  -2 1046.50   36.30
  11  -7   2 1036.30   35.50
  11  -7   2 1057.09   35.60
  11  -7   2 1046.30   36.00
 -12   7  -2  525.25   19.60
  12  -7   2  542.55   18.60
  12  -7   2  532.95   18.80
 -13   7  -2 1307.07   46.00
  13  -7   2 1358.36   45.10
   9   6  -2  818.32   28.60
   8   6  -2  348.17   13.10
   7   6  -2  297.27   11.20
   6   6  -2 1895.31   63.89
   5   6  -2  827.22   28.30
  -5  -6   2  773.32   27.80
  -5  -6   2  876.31   28.60
   4   6  -2  218.08    8.10
  -4  -6   2  217.08    8.30
   3   6  -2  647.74   22.90
  -3  -6   2  690.33   23.10
   2   6  -2   65.49    3.10
  -2  -6   2   63.49    3.10
  -2  -6   2   66.99    2.80
   1   6  -2 1864.01   62.09
  -1  -6   2 1883.71   62.29
  -1  -6   2 1739.83   61.29
   0   6  -2  195.18    7.10
   0  -6   2  202.38    7.10
   0  -6   2  194.98    7.10
  -1   6  -2 2861.21   92.49
   1  -6   2 2607.14   91.89
   1  -6   2 2720.63   92.19
  -2   6  -2 2280.37   73.89
   2  -6   2 1979.20   72.29
   2  -6   2 2224.38   73.19
  -3   6  -2   21.90    1.60
  -3   6  -2   23.60    2.00
   3  -6   2   23.40    1.30
   3  -6   2   19.00    1.80
  -4   6  -2 8090.59  277.27
  -4   6  -2 8296.37  275.97
   4  -6   2 8225.48  274.97
   4  -6   2 8265.67  277.17
  -5   6  -2   79.39    3.30
  -5   6  -2   80.69    3.80
   5  -6   2   82.39    3.10
   5  -6   2   78.99    3.60
  -6   6  -2   12.20    1.50
  -6   6  -2   13.70    2.30
   6  -6   2   12.30    1.80
   6  -6   2   13.80    1.30
  -7   6  -2  945.61   32.20
   7  -6   2  939.01   31.70
   7  -6   2  932.11   32.00
  -8   6  -2  120.69    5.50
   8  -6   2  121.09    5.10
   8  -6   2  115.29    4.70
  -9   6  -2  373.66   13.90
   9  -6   2  382.26   13.40
   9  -6   2  383.16   13.60
 -10   6  -2 1600.04   55.29
  10  -6   2 1686.93   55.09
  10  -6   2 1589.74   54.99
  10  -6   2 1627.24   54.69
 -11   6  -2  424.96   15.90
  11  -6   2  428.86   15.50
  11  -6   2  433.86   15.10
  11  -6   2  432.26   15.30
 -12   6  -2  900.21   31.60
  12  -6   2  911.61   31.10
  12  -6   2  874.71   31.20
  12  -6   2  929.51   30.80
 -13   6  -2   49.40    5.90
  13  -6   2   56.69    3.90
  10   5  -2  658.33   23.40
   9   5  -2   19.00    2.60
   8   5  -2    2.40    1.90
   7   5  -2  376.16   13.40
  -7  -5   2  357.66   13.70
   6   5  -2  582.84   20.30
  -6  -5   2  581.74   20.60
   5   5  -2  199.78    7.60
  -5  -5   2  201.68    7.00
  -5  -5   2  199.38    7.80
   4   5  -2 6173.98  213.58
  -4  -5   2 6413.26  212.28
  -4  -5   2 6434.96  214.68
   3   5  -2  107.09    4.40
  -3  -5   2  108.19    4.50
   2   5  -2 8000.80  265.87
  -2  -5   2 7684.93  267.17
  -2  -5   2 8038.10  264.87
   1   5  -2  382.06   13.40
  -1  -5   2  397.66   13.40
  -1  -5   2  386.86   13.30
   0   5  -2  721.63   24.40
   0  -5   2  713.63   24.50
   0  -5   2  734.83   24.50
  -1   5  -2 1503.65   48.30
   1  -5   2 1433.06   47.90
   1  -5   2 1273.77   47.10
  -2   5  -2   64.09    2.60
  -2   5  -2   62.29    2.90
   2  -5   2   63.49    2.50
   2  -5   2   66.79    2.80
  -3   5  -2 1896.01   65.39
  -3   5  -2 1857.71   65.49
   3  -5   2 2013.40   66.09
   3  -5   2 1951.80   65.09
  -4   5  -2 2834.32   94.29
  -4   5  -2 2633.24   93.89
   4  -5   2 2892.21   95.09
   4  -5   2 2803.92   93.89
  -5   5  -2  100.69    3.90
  -5   5  -2  104.89    4.50
   5  -5   2  102.19    4.30
   5  -5   2  111.39    3.90
  -6   5  -2 5071.89  173.38
   6  -5   2 5263.87  173.58
   6  -5   2 5003.40  171.98
  -7   5  -2  598.24   20.70
   7  -5   2  597.04   20.50
   7  -5   2  584.54   20.20
  -8   5  -2 1363.06   46.70
   8  -5   2 1372.06   46.30
   8  -5   2 1361.76   46.20
   8  -5   2 1404.56   46.50
  -9   5  -2  203.28    8.30
   9  -5   2  210.58    7.90
   9  -5   2  207.08    7.80
   9  -5   2  209.68    7.60
 -10   5  -2  684.83   25.10
  10  -5   2  717.73   24.40
  10  -5   2  734.53   24.70
  10  -5   2  722.33   24.70
 -11   5  -2  800.52   27.90
  11  -5   2  797.82   27.60
  11  -5   2  807.12   27.30
  11  -5   2  788.62   27.50
 -12   5  -2    8.90    2.60
  12  -5   2    9.20    1.80
  12  -5   2    7.70    1.90
  12  -5   2   12.30    2.10
 -13   5  -2  447.56   16.90
  11   4  -2  129.49    6.90
  10   4  -2  550.04   19.70
   9   4  -2   43.10    4.10
   8   4  -2 1282.77   43.60
   7   4  -2  383.36   13.80
  -7  -4   2  388.26   14.20
   6   4  -2 1747.03   60.59
  -6  -4   2 1857.21   60.89
   5   4  -2 3556.44  122.39
  -5  -4   2 3720.13  123.59
   4   4  -2    1.40    0.90
  -4  -4   2   -0.70    0.70
  -4  -4   2   -0.90    0.90
   3   4  -2 6116.39  208.48
  -3  -4   2 6256.57  208.78
   2   4  -2   93.09    3.70
  -2  -4   2   93.69    3.40
  -2  -4   2   95.79    3.70
   1   4  -2  188.78    6.70
  -1  -4   2  189.88    6.60
  -1  -4   2  190.88    6.70
   0   4  -2  770.02   25.10
   0  -4   2  695.63   24.40
   0  -4   2  699.63   24.40
  -1   4  -2   30.70    1.40
  -1   4  -2   27.00    1.60
   1  -4   2   28.80    1.40
   1  -4   2   27.20    1.60
  -2   4  -2  309.57   10.70
  -2   4  -2  301.17   10.40
   2  -4   2  303.37   10.40
   2  -4   2  312.47   10.60
  -3   4  -2 5846.92  193.68
  -3   4  -2 5630.24  191.88
   3  -4   2 5688.13  191.48
   3  -4   2 5745.52  193.28
  -4   4  -2 2130.09   73.39
  -4   4  -2 2220.58   74.59
   4  -4   2 2143.29   73.39
   4  -4   2 2209.68   74.19
  -5   4  -2 6879.21  230.38
   5  -4   2 6930.81  229.88
   5  -4   2 6620.74  228.38
  -6   4  -2   10.70    2.00
   6  -4   2   12.30    1.30
   6  -4   2   12.20    1.90
  -7   4  -2 1489.85   51.99
   7  -4   2 1642.64   51.99
   7  -4   2 1516.05   51.79
   7  -4   2 1507.15   51.69
  -8   4  -2  183.88    7.30
   8  -4   2  186.88    7.00
   8  -4   2  187.58    6.90
   8  -4   2  179.38    6.70
  -9   4  -2    2.50    1.70
   9  -4   2    2.60    1.10
   9  -4   2    2.70    1.20
   9  -4   2    4.50    1.30
 -10   4  -2  740.73   26.50
  10  -4   2  784.62   26.40
  10  -4   2  769.82   26.20
  10  -4   2  757.42   26.00
 -11   4  -2  473.75   17.20
  11  -4   2  475.45   16.60
  11  -4   2  475.95   17.00
  11  -4   2  471.45   16.80
 -12   4  -2  169.38    8.10
  12  -4   2  179.68    7.10
  12  -4   2  172.78    7.20
  12  -4   2  176.18    7.60
 -13   4  -2 1209.78   42.30
  13  -4   2 1252.97   41.60
  13  -4   2 1209.98   41.80
  11   3  -2 1526.95   51.99
  10   3  -2   95.19    5.40
   9   3  -2 1216.38   41.50
   8   3  -2  357.36   13.00
   7   3  -2 1416.46   47.90
   6   3  -2  657.73   22.70
  -6  -3   2  663.03   22.90
   5   3  -2   49.80    2.70
  -5  -3   2   49.10    2.80
   4   3  -2 1049.79   35.40
   3   3  -2 1482.15   49.10
  -3  -3   2 1418.16   48.70
   2   3  -2  144.19    5.20
  -2  -3   2  139.39    4.90
  -2  -3   2  146.99    5.20
   1   3  -2 4325.67  146.39
  -1  -3   2 4368.96  145.79
  -1  -3   2 4356.06  146.39
   0   3  -2  515.05   18.60
   0   3  -2  570.24   18.90
   0  -3   2  540.65   18.60
   0  -3   2  575.04   19.00
  -1   3  -2 2018.80   69.19
  -1   3  -2 2103.99   70.09
   1  -3   2 2083.39   69.89
   1  -3   2 2017.70   69.09
  -2   3  -2 7876.21  272.87
   2  -3   2 8392.06  272.97
  -3   3  -2 1266.27   41.70
   3  -3   2 1131.49   40.70
   3  -3   2 1229.58   41.50
  -4   3  -2 1623.44   57.09
   4  -3   2 1769.82   57.49
   4  -3   2 1712.93   57.39
  -5   3  -2   98.49    4.20
   5  -3   2  107.79    3.80
   5  -3   2   99.99    4.00
   5  -3   2  101.39    3.80
  -6   3  -2 1475.25   51.39
   6  -3   2 1523.05   51.29
   6  -3   2 1582.14   51.49
  -7   3  -2  546.35   19.30
   7  -3   2  573.74   19.20
   7  -3   2  553.44   19.00
  -8   3  -2   96.79    4.60
   8  -3   2   98.29    4.10
   8  -3   2   95.89    4.00
  -9   3  -2  513.35   18.30
   9  -3   2  526.95   18.00
   9  -3   2  516.05   17.90
 -10   3  -2  454.25   16.60
  10  -3   2  463.65   16.10
  10  -3   2  467.95   16.20
 -11   3  -2  120.49    7.00
  11  -3   2  133.69    5.60
  11  -3   2  127.99    5.50
 -12   3  -2  463.35   17.10
  12  -3   2  468.45   16.40
  12  -3   2  458.35   16.50
 -13   3  -2   69.79    5.90
  13  -3   2   76.29    4.60
  12   2  -2 1147.99   39.50
  11   2  -2    3.20    2.10
  10   2  -2 1683.43   56.99
   9   2  -2  492.55   17.50
   8   2  -2  171.18    6.90
  -8  -2   2  167.98    6.00
   7   2  -2  282.77   10.20
  -7  -2   2  277.37    9.60
   6   2  -2  562.24   18.90
  -6  -2   2  529.65   18.60
   5   2  -2   58.99    2.90
   4   2  -2 2130.69   72.39
  -4  -2   2 2112.89   72.39
   3   2  -2 1152.48   40.80
  -3  -2   2 1270.77   41.50
  -1  -2   2 5401.46  181.28
  -1   2  -2  120.49    4.20
   1  -2   2  129.69    4.40
   1  -2   2  122.49    4.20
  -2   2  -2  140.59    5.30
   2  -2   2  144.09    5.30
  -3   2  -2  167.78    6.20
   3  -2   2  160.08    6.00
   3  -2   2  181.98    6.20
  -4   2  -2  505.45   17.60
   4  -2   2  517.45   17.50
   4  -2   2  519.85   17.30
  -5   2  -2   38.60    2.20
   5  -2   2   35.90    1.80
   5  -2   2   40.10    2.00
  -6   2  -2 4435.56  151.88
   6  -2   2 4519.65  150.88
   6  -2   2 4472.85  150.58
  -7   2  -2  276.57   10.10
   7  -2   2  276.27    9.70
  -8   2  -2 1939.51   64.59
   8  -2   2 1914.91   64.39
   8  -2   2 1897.21   64.29
  -9   2  -2  649.93   22.30
   9  -2   2  633.84   22.00
   9  -2   2  634.44   21.90
 -10   2  -2  495.85   17.80
  10  -2   2  503.55   17.50
  10  -2   2  500.95   17.40
 -11   2  -2  181.18    7.90
  11  -2   2  182.88    7.30
 -12   2  -2   15.50    2.90
  12  -2   2   13.00    2.00
  12  -2   2   12.70    2.10
  12   1  -2   -0.60    2.30
  11   1  -2  466.55   16.80
  10   1  -2  978.10   33.50
   9   1  -2   92.89    3.60
   9   1  -2   95.19    4.80
   8   1  -2 2384.86   77.59
   8   1  -2 2248.68   77.49
  -8  -1   2 2291.97   77.29
   7   1  -2  852.41   28.90
   7   1  -2  844.42   28.50
  -7  -1   2  847.42   28.50
   6   1  -2  995.00   34.10
   6   1  -2 1048.00   33.90
  -6  -1   2  976.90   33.70
   5   1  -2 2002.50   68.69
   5   1  -2 2002.70   67.29
   3   1  -2 1732.83   59.09
   2   1  -2 1447.36   49.50
   0  -1   2 3993.40  133.79
   1  -1   2  700.83   24.30
  -2   1  -2 4187.08  137.49
  -2   1  -2 4122.29  136.39
   2  -1   2 3977.60  136.19
   2  -1   2 4026.40  137.19
  -3   1  -2 1626.14   55.39
  -3   1  -2 1657.53   56.09
   3  -1   2 1600.04   55.29
   3  -1   2 1679.13   55.99
  -4   1  -2  430.66   14.60
  -4   1  -2  423.16   14.70
   4  -1   2  426.66   14.50
   4  -1   2  429.26   14.60
  -5   1  -2 3281.07  110.39
   5  -1   2 3292.17  110.09
   5  -1   2 3208.78  109.99
  -6   1  -2  231.58    8.50
   6  -1   2  233.38    8.30
   6  -1   2  233.48    8.30
  -7   1  -2 3385.06  115.69
   7  -1   2 3452.25  115.39
   7  -1   2 3409.86  115.19
  -8   1  -2  718.53   24.80
   8  -1   2  731.63   24.50
   8  -1   2  708.63   24.60
  -9   1  -2  645.44   22.70
   9  -1   2  660.73   22.50
   9  -1   2  654.13   22.40
 -10   1  -2  181.68    7.60
  10  -1   2  183.28    7.20
  10  -1   2  180.38    7.10
 -11   1  -2  370.46   13.80
  11  -1   2  376.46   13.50
  11  -1   2  366.76   13.40
 -12   1  -2   24.90    3.70
  12  -1   2   21.50    3.70
  13   0  -2    3.10    2.40
  12   0  -2  305.07   11.80
  11   0  -2 1049.59   36.50
  11   0  -2 1118.29   37.10
  10   0  -2    0.10    0.90
  10   0  -2   -0.30    1.60
   9   0  -2 2641.94   90.39
   9   0  -2 2744.83   90.49
   8   0  -2 1050.69   35.00
   8   0  -2 1034.20   35.40
   7   0  -2 3468.85  113.29
   7   0  -2 3313.57  111.49
  -7   0   2 3183.18  111.49
   6   0  -2 2110.19   66.59
   6   0  -2 1835.12   66.09
   5   0  -2  765.52   27.40
   5   0  -2  849.52   27.50
   4   0  -2  305.37   10.40
   3   0  -2   88.59    3.10
   1   0  -2 4851.51  162.58
   0   0  -2 2290.27   76.99
   0   0  -2 2344.67   76.69
   0   0   2 2132.79   76.79
   0   0   2 2302.77   76.69
  -1   0  -2 2282.17   72.09
  -1   0  -2 2169.28   72.69
   1   0   2 2252.47   72.79
   1   0   2 1878.91   72.19
  -2   0  -2 2626.64   89.09
  -2   0  -2 2675.83   88.59
   2   0   2 2490.15   88.39
   2   0   2 2736.63   88.99
  -3   0  -2 1680.73   56.49
  -3   0  -2 1652.83   56.09
   3   0   2 1584.74   55.79
   3   0   2 1674.43   56.39
  -4   0  -2  938.21   32.40
  -4   0  -2  951.90   32.50
   4   0   2 1013.20   32.70
   4   0   2  948.51   32.40
  -5   0  -2    4.20    1.00
  -5   0  -2    4.90    0.90
   5   0   2    3.70    0.80
   5   0   2    3.90    0.80
  -6   0  -2 1907.71   67.59
  -6   0  -2 1963.40   67.69
   6   0   2 2102.59   68.29
   6   0   2 2090.79   68.19
  -7   0  -2  946.01   33.00
   7   0   2  980.80   32.90
   7   0   2  986.80   32.90
  -8   0  -2   18.10    2.60
   8   0   2   15.90    2.40
   8   0   2   20.30    2.10
  -9   0  -2  727.73   25.10
   9   0   2  717.93   24.90
   9   0   2  734.63   25.00
 -10   0  -2  729.23   25.10
  10   0   2  720.23   24.90
  10   0   2  714.63   24.80
 -11   0  -2  338.87   12.70
  11   0   2  328.07   12.10
  11   0   2  334.97   12.40
  12   0   2 1010.90   34.70
  13  -1  -2  180.58    8.10
  12  -1  -2  814.22   28.30
  11  -1  -2   39.30    3.80
  11  -1  -2   41.20    2.40
  10  -1  -2 1965.00   64.49
  10  -1  -2 1885.41   64.99
   9  -1  -2  433.16   15.50
   9  -1  -2  443.66   15.00
   8  -1  -2  655.43   22.40
   8  -1  -2  647.64   22.10
   7  -1  -2 1964.30   67.09
   7  -1  -2 2030.80   67.29
   6  -1  -2   36.20    1.80
   5  -1  -2  489.05   16.60
   4  -1  -2 3130.29  105.49
   3  -1  -2  478.95   16.40
   1  -1  -2    5.10    0.70
  -1   1   2    4.10    0.80
   0  -1  -2 6527.75  218.38
  -1  -1  -2 3179.08  110.29
  -1  -1  -2 3392.46  109.99
   1   1   2 3239.28  109.89
  -2  -1  -2 1785.92   61.99
  -2  -1  -2 1877.81   61.49
   2   1   2 1811.72   61.59
   2   1   2 1780.72   61.29
  -3  -1  -2  435.46   14.60
  -3  -1  -2  412.46   14.60
   3   1   2  423.36   14.50
   3   1   2  428.76   14.60
  -4  -1  -2   91.59    3.80
  -4  -1  -2   95.19    3.80
   4   1   2   90.09    3.70
   4   1   2   97.69    3.70
  -5  -1  -2  261.27    9.10
  -5  -1  -2  260.57    9.20
   5   1   2  251.07    9.10
   5   1   2  252.47    9.10
  -6  -1  -2  566.94   19.40
  -6  -1  -2  556.44   19.20
   6   1   2  549.54   19.10
   6   1   2  560.94   19.10
  -7  -1  -2  139.39    5.60
  -7  -1  -2  140.69    5.90
   7   1   2  134.99    5.40
   7   1   2  139.79    5.50
  -8  -1  -2 2673.63   90.49
   8   1   2 2725.63   90.49
  -9  -1  -2  455.85   16.30
   9   1   2  459.55   16.20
 -10  -1  -2 1043.60   35.60
  10   1   2 1036.30   35.50
 -11  -1  -2  413.96   15.30
  11   1   2  417.06   15.10
  14  -2  -2  279.27   11.30
  13  -2  -2  802.62   28.00
  12  -2  -2  109.19    5.80
  12  -2  -2  114.79    4.70
  11  -2  -2  232.38    8.30
  11  -2  -2  225.48    8.90
  10  -2  -2  429.76   15.50
  10  -2  -2  441.76   15.10
   9  -2  -2  182.48    7.30
   9  -2  -2  194.88    6.90
   8  -2  -2 2162.38   70.69
   8  -2  -2 2020.30   70.19
   7  -2  -2  531.65   18.20
   6  -2  -2  983.00   33.00
   6  -2  -2  960.90   32.70
   5  -2  -2 2527.35   87.09
   5  -2  -2 2631.84   88.29
   4  -2  -2  116.09    4.50
   3  -2  -2 3232.88  108.79
  -3   2   2 3173.98  108.79
   2  -2  -2   34.10    1.60
  -2   2   2   36.60    1.70
   1  -2  -2  516.35   17.40
  -1  -2  -2   29.80    1.60
   1   2   2   28.60    1.60
  -2  -2  -2 2098.09   71.49
  -2  -2  -2 2154.88   71.19
   2   2   2 2028.00   71.09
  -3  -2  -2 1516.55   53.49
  -3  -2  -2 1697.53   54.09
   3   2   2 1533.25   53.19
  -4  -2  -2   16.50    1.70
  -4  -2  -2   12.70    1.60
   4   2   2   14.40    1.60
  -5  -2  -2 2037.90   71.59
  -5  -2  -2 2106.69   71.79
   5   2   2 2270.77   72.69
  -6  -2  -2   12.30    1.60
  -6  -2  -2   11.70    1.50
   6   2   2   10.90    1.40
  -7  -2  -2 2222.38   73.89
  -7  -2  -2 2208.68   73.59
   7   2   2 2146.49   73.59
  -8  -2  -2  103.59    5.50
  -8  -2  -2  105.39    5.00
   8   2   2  107.79    4.90
  -9  -2  -2  685.33   23.70
   9   2   2  677.83   23.60
 -10  -2  -2  489.25   17.70
  10   2   2  499.95   17.70
  11   2   2    2.30    2.30
  14  -3  -2  875.91   30.50
  13  -3  -2    1.60    1.40
  13  -3  -2    2.20    2.10
  12  -3  -2  259.57    9.90
  12  -3  -2  252.37    9.20
  12  -3  -2  242.98   10.20
  11  -3  -2  379.96   14.10
  11  -3  -2  369.36   14.30
  11  -3  -2  394.96   13.50
  10  -3  -2    7.10    1.60
  10  -3  -2    7.40    1.60
  10  -3  -2    8.60    1.30
   9  -3  -2 1694.03   56.89
   9  -3  -2 1670.63   56.59
   8  -3  -2 1005.60   33.50
   8  -3  -2  959.70   33.30
   7  -3  -2 3633.14  123.79
   7  -3  -2 3642.54  123.29
   6  -3  -2 3660.53  123.89
   6  -3  -2 3653.23  124.19
   5  -3  -2  210.08    7.50
   5  -3  -2  202.88    7.40
  -5   3   2  204.28    7.50
   4  -3  -2  459.15   15.50
  -4   3   2  441.86   15.50
   3  -3  -2   57.29    2.40
   2  -3  -2 2543.55   86.19
   1  -3  -2 2981.40   99.49
  -1   3   2 2901.51   99.49
   0  -3  -2  845.02   28.00
   0   3   2  815.92   27.90
  -1  -3  -2 4291.37  140.39
   1   3   2 4023.80  140.09
  -2  -3  -2 6529.05  219.68
  -2  -3  -2 6769.32  219.88
   2   3   2 6310.97  219.48
  -3  -3  -2  910.71   30.10
  -3  -3  -2  905.11   30.00
   3   3   2  848.72   30.00
  -4  -3  -2 3056.39  111.29
  -4  -3  -2 3562.64  112.69
   4   3   2 3289.07  111.19
  -5  -3  -2  229.38    8.90
  -5  -3  -2  258.67    9.20
   5   3   2  252.27    9.00
  -6  -3  -2  651.63   22.10
  -6  -3  -2  613.54   21.70
   6   3   2  626.64   21.70
  -7  -3  -2   21.90    3.40
  -7  -3  -2   17.20    2.70
   7   3   2   19.30    2.80
  -8  -3  -2   80.59    4.40
  -8  -3  -2   76.89    5.20
   8   3   2   80.29    4.50
  -9  -3  -2  739.83   25.70
   9   3   2  745.53   25.80
  10   3   2  319.07   12.20
  14  -4  -2  302.97   11.90
  13  -4  -2  346.57   12.80
  13  -4  -2  340.57   12.30
  13  -4  -2  324.57   13.10
  12  -4  -2  990.60   35.60
  12  -4  -2 1041.50   35.10
  12  -4  -2 1053.69   35.30
  11  -4  -2   55.59    3.90
  11  -4  -2   60.09    4.00
  11  -4  -2   55.59    3.30
  10  -4  -2 1449.06   48.70
  10  -4  -2 1416.36   48.40
   9  -4  -2   35.60    2.80
   9  -4  -2   34.70    2.50
   8  -4  -2 1029.80   36.10
   8  -4  -2 1082.99   36.00
   7  -4  -2 1605.04   53.39
   7  -4  -2 1561.94   53.29
   6  -4  -2  248.28    8.90
   6  -4  -2  241.78    8.90
  -6   4   2  239.28    8.90
   5  -4  -2 3468.95  115.29
   5  -4  -2 3432.86  115.19
  -5   4   2 3301.37  115.19
   4  -4  -2  358.06   12.30
  -4   4   2  350.36   12.40
   3  -4  -2  503.65   16.90
  -3   4   2  481.45   16.90
   2  -4  -2 2388.06   78.69
  -2   4   2 2235.68   78.39
   1  -4  -2  521.75   17.70
  -1   4   2  512.45   17.70
   0  -4  -2 3620.84  120.49
   0   4   2 3519.85  120.59
  -1  -4  -2  555.94   18.40
   1   4   2  520.75   18.30
   2   4   2 1022.60   34.50
  -3  -4  -2 2873.81   96.99
  -3  -4  -2 3007.40   97.59
   3   4   2 2715.83   96.49
  -4  -4  -2    7.80    1.30
  -4  -4  -2    5.20    1.40
   4   4   2    5.70    1.20
  -5  -4  -2   57.49    3.30
  -5  -4  -2   66.19    3.80
   5   4   2   67.59    3.50
  -6  -4  -2  957.70   34.80
  -6  -4  -2 1072.89   35.30
   6   4   2 1043.90   34.90
  -7  -4  -2   27.70    3.10
  -7  -4  -2   35.20    4.00
   7   4   2   30.70    3.30
  -8  -4  -2  848.82   29.20
   8   4   2  849.52   29.30
  -9  -4  -2  444.36   16.00
   9   4   2  446.06   16.20
  14  -5  -2  455.65   16.70
  14  -5  -2  480.05   17.20
  13  -5  -2 1320.37   47.00
  13  -5  -2 1403.26   46.80
  13  -5  -2 1388.76   46.60
  12  -5  -2   20.70    2.50
  12  -5  -2   22.50    3.60
  12  -5  -2   21.20    2.80
  11  -5  -2 1937.51   66.19
  11  -5  -2 1977.40   65.99
  10  -5  -2  294.57   11.00
  10  -5  -2  294.37   10.80
   9  -5  -2  151.18    6.20
   9  -5  -2  151.98    6.10
   8  -5  -2  721.23   25.00
   8  -5  -2  730.63   24.90
   7  -5  -2  236.78    9.30
   7  -5  -2  260.07    9.20
  -7   5   2  251.47    9.20
   6  -5  -2 1815.82   61.69
   6  -5  -2 1894.81   61.79
  -6   5   2 1798.02   61.69
   5  -5  -2 4152.08  138.89
  -5   5   2 4071.29  139.79
   4  -5  -2  237.58    8.40
  -4   5   2  231.48    8.60
   3  -5  -2 2406.56   81.39
  -3   5   2 2374.96   81.69
   2  -5  -2  256.87    9.20
  -2   5   2  262.27    9.30
   1  -5  -2 2049.79   70.49
  -1   5   2 2103.99   71.09
   0  -5  -2  293.47   10.10
   0   5   2  282.07   10.10
  -1  -5  -2  295.67   10.20
   1   5   2  272.47   10.00
  -2  -5  -2 1131.69   36.50
   2   5   2 1021.90   36.30
  -3  -5  -2  943.01   31.10
  -3  -5  -2  891.71   30.80
   3   5   2  895.41   30.90
  -4  -5  -2  610.04   21.20
  -4  -5  -2  611.84   20.80
   4   5   2  593.74   20.90
  -5  -5  -2 2232.38   71.79
  -5  -5  -2 2065.29   71.29
   5   5   2 2076.69   71.39
  -6  -5  -2    7.60    2.20
  -6  -5  -2    5.10    1.80
   6   5   2    7.00    1.80
  -7  -5  -2 1440.56   49.80
   7   5   2 1502.35   49.90
  -8  -5  -2   24.90    3.90
   8   5   2   30.70    4.10
   9   5   2  218.08    9.30
  14  -6  -2  830.12   29.80
  14  -6  -2  888.81   30.00
  13  -6  -2   86.89    5.50
  13  -6  -2   86.89    5.40
  13  -6  -2   86.69    4.80
  12  -6  -2  696.83   24.40
  12  -6  -2  688.13   24.20
  11  -6  -2  475.35   17.20
  11  -6  -2  482.05   17.10
  10  -6  -2    7.30    1.70
  10  -6  -2    5.20    1.60
   9  -6  -2  510.55   17.80
   9  -6  -2  497.05   17.70
   8  -6  -2   23.40    2.50
   8  -6  -2   30.00    2.40
  -8   6   2   25.30    2.60
   7  -6  -2 2069.19   65.49
   7  -6  -2 1740.33   66.19
  -7   6   2 2018.70   65.39
   6  -6  -2 3485.15  123.99
   6  -6  -2 3855.11  125.39
  -6   6   2 3671.23  125.39
  -5   6   2    8.70    1.30
   4  -6  -2 5939.81  199.08
  -4   6   2 5858.61  199.38
   3  -6  -2  209.18    7.60
  -3   6   2  213.28    7.90
   2  -6  -2  394.86   14.50
  -2   6   2  429.16   14.40
   1  -6  -2  716.43   24.30
  -1   6   2  707.63   24.30
   0  -6  -2  360.66   12.30
   0   6   2  338.37   12.30
  -1  -6  -2 2003.20   68.59
   1   6   2 2081.89   69.49
  -2  -6  -2 1807.42   59.59
   2   6   2 1727.93   59.39
  -3  -6  -2 1396.76   47.80
  -3  -6  -2 1472.45   48.20
   3   6   2 1389.46   47.90
  -4  -6  -2 1679.23   57.19
  -4  -6  -2 1771.22   57.69
   4   6   2 1649.73   57.29
  -5  -6  -2  335.67   13.40
  -5  -6  -2  379.66   12.90
   5   6   2  355.16   13.00
  -6  -6  -2  911.81   32.30
   6   6   2  975.20   32.50
  -7  -6  -2   16.40    2.50
   7   6   2   14.90    2.40
   8   6   2  100.79    5.90
  14  -7  -2   18.40    2.90
  14  -7  -2   19.60    2.80
  13  -7  -2  288.17   11.50
  13  -7  -2  294.97   11.30
  12  -7  -2 1519.25   51.69
  12  -7  -2 1521.75   51.79
  11  -7  -2  253.47    9.90
  11  -7  -2  254.27    9.90
  10  -7  -2 2095.79   70.59
  10  -7  -2 2085.29   70.49
   9  -7  -2   80.69    4.30
   9  -7  -2   79.79    4.10
  -9   7   2   83.09    4.30
   8  -7  -2 1141.59   38.70
   8  -7  -2 1157.88   38.90
  -8   7   2 1114.69   38.70
   7  -7  -2  484.85   16.60
   7  -7  -2  452.65   16.30
  -7   7   2  459.35   16.40
   6  -7  -2  103.39    4.50
   6  -7  -2   90.49    4.10
  -6   7   2   87.29    4.40
   5  -7  -2 3468.15  114.69
  -5   7   2 3266.27  114.79
   4  -7  -2 1266.87   42.30
  -4   7   2 1238.28   42.50
   3  -7  -2  588.34   20.50
  -3   7   2  608.94   20.80
   2  -7  -2 2258.57   71.99
  -2   7   2 1986.40   71.19
   1  -7  -2  323.57   11.30
  -1   7   2  309.07   11.30
   0  -7  -2 1430.66   47.60
   0   7   2 1390.86   47.60
  -1  -7  -2  219.48    8.10
   1   7   2  205.58    8.00
  -2  -7  -2  944.91   30.90
   2   7   2  852.91   30.70
  -3  -7  -2  775.82   27.40
  -3  -7  -2  812.92   27.90
   3   7   2  824.52   27.70
  -4  -7  -2   30.50    3.00
  -4  -7  -2   22.60    3.90
   4   7   2   22.50    3.30
  -5  -7  -2  510.15   17.20
   5   7   2  460.65   17.30
  -6  -7  -2  367.46   13.40
   6   7   2  358.66   13.60
   7   7   2   10.90    2.60
  14  -8  -2  501.85   18.50
  13  -8  -2 1095.39   37.90
  12  -8  -2    2.00    2.10
  12  -8  -2    4.30    1.90
  11  -8  -2 2262.07   75.09
  11  -8  -2 2177.08   74.89
  10  -8  -2  452.85   16.50
  10  -8  -2  468.25   16.70
   9  -8  -2  677.73   23.90
   9  -8  -2  717.83   24.20
  -9   8   2  671.33   24.00
   8  -8  -2  257.87    9.80
   8  -8  -2  272.37   10.20
  -8   8   2  267.47   10.10
   7  -8  -2   33.60    2.50
   7  -8  -2   36.10    3.10
  -7   8   2   33.50    3.10
   6  -8  -2  892.91   29.20
   6  -8  -2  833.82   28.80
  -6   8   2  810.22   29.10
   5  -8  -2 1301.97   43.30
  -5   8   2 1263.07   43.70
   4  -8  -2 1715.73   56.79
  -4   8   2 1662.93   57.09
   3  -8  -2 4009.60  133.99
  -3   8   2 3887.51  133.79
   2  -8  -2   10.80    1.40
  -2   8   2    7.20    1.40
   1  -8  -2 2514.95   82.69
  -1   8   2 2412.46   82.69
   0  -8  -2  236.28    8.70
   0   8   2  219.18    8.70
  -1  -8  -2  214.28    8.40
   1   8   2  213.08    8.20
  -2  -8  -2  359.46   13.40
   2   8   2  373.96   13.30
  -3  -8  -2  101.29    4.70
   3   8   2  109.39    5.20
  -4  -8  -2  235.68    9.00
   4   8   2  232.48    9.30
  -5  -8  -2 1339.27   44.10
   5   8   2 1253.77   44.30
  -6  -8  -2   69.09    5.10
   6   8   2   64.49    5.40
  14  -9  -2  433.96   16.20
  13  -9  -2   60.09    4.80
  12  -9  -2 1330.17   45.50
  11  -9  -2  637.14   23.10
  11  -9  -2  662.83   22.90
  10  -9  -2   62.19    4.60
  10  -9  -2   61.39    3.90
 -10   9   2   60.99    4.40
   9  -9  -2  877.71   31.00
   9  -9  -2  933.51   31.50
  -9   9   2  903.51   31.30
   8  -9  -2   31.70    2.70
   8  -9  -2   30.00    3.50
  -8   9   2   30.40    3.60
   7  -9  -2  895.11   30.50
   7  -9  -2  925.81   31.00
  -7   9   2  853.91   30.80
   6  -9  -2  711.53   24.30
   6  -9  -2  746.53   24.90
  -6   9   2  667.23   24.70
   5  -9  -2  853.81   28.90
  -5   9   2  839.62   29.30
   4  -9  -2 1725.53   58.89
  -4   9   2 1776.52   59.29
   3  -9  -2    8.50    1.30
  -3   9   2    7.10    1.60
   2  -9  -2 1889.71   62.19
  -2   9   2 1802.42   62.39
   1  -9  -2 1235.88   41.70
  -1   9   2 1216.28   41.70
   0  -9  -2   21.40    3.00
   0   9   2   22.10    3.00
  -1  -9  -2  417.76   15.50
   1   9   2  440.66   15.40
   2   9   2  198.58    8.10
  -3  -9  -2  311.67   11.40
   3   9   2  316.17   11.90
  -4  -9  -2 1130.99   37.90
   4   9   2 1091.49   38.20
  -5  -9  -2  253.27    9.40
   5   9   2  208.98    9.70
  13 -10  -2  224.58    9.40
  12 -10  -2  644.94   22.80
  11 -10  -2  197.78    8.20
 -11  10   2  205.08    8.60
  10 -10  -2 2385.46   82.09
  10 -10  -2 2496.95   82.79
   9 -10  -2  476.05   17.00
   9 -10  -2  471.15   17.70
  -9  10   2  498.75   17.50
   8 -10  -2  772.02   26.90
   8 -10  -2  794.82   27.50
  -8  10   2  779.62   27.40
   7 -10  -2  367.06   13.60
   7 -10  -2  362.06   12.90
  -7  10   2  349.07   13.50
   6 -10  -2  549.95   18.70
   6 -10  -2  512.65   18.00
  -6  10   2  488.45   18.60
   5 -10  -2  952.20   32.50
  -5  10   2  952.10   33.00
   4 -10  -2   23.60    2.50
  -4  10   2   17.80    2.70
   3 -10  -2  155.68    6.40
  -3  10   2  157.58    6.90
   2 -10  -2 2644.14   88.39
  -2  10   2 2619.84   88.59
   1 -10  -2  131.89    6.10
  -1  10   2  147.09    6.40
   0  10   2  987.00   34.00
   1  10   2  305.87   11.60
   2  10   2  907.91   31.40
   3  10   2  227.08    9.50
   4  10   2   32.70    4.80
  13 -11  -2  389.96   14.50
  12 -11  -2  166.58    7.20
  11 -11  -2 1719.33   59.59
 -11  11   2 1799.62   59.89
  10 -11  -2  119.19    5.60
 -10  11   2  128.19    6.50
   9 -11  -2  965.30   33.60
  -9  11   2  997.30   34.20
   8 -11  -2  921.71   31.90
   8 -11  -2  912.71   32.60
  -8  11   2  957.30   32.50
   7 -11  -2  110.99    5.00
   7 -11  -2  106.69    6.10
  -7  11   2  106.09    6.30
   6 -11  -2  630.44   22.60
   6 -11  -2  632.04   21.90
  -6  11   2  632.14   22.70
   5 -11  -2  335.47   13.00
   5 -11  -2  324.97   12.10
  -5  11   2  344.27   13.00
   4 -11  -2   65.69    3.90
  -4  11   2   74.59    4.90
   3 -11  -2  600.84   22.20
  -3  11   2  669.53   22.60
  -2  11   2    3.00    1.90
  -1  11   2 1489.25   50.69
   0  11   2  326.87   12.50
   1  11   2  760.22   26.70
   2  11   2  152.28    7.50
  -3 -11  -2   10.40    2.40
   3  11   2    7.90    4.10
  12 -12  -2  345.97   13.50
 -12  12   2  365.56   14.00
  11 -12  -2    3.20    1.80
 -11  12   2    2.70    2.60
  10 -12  -2  508.55   18.70
 -10  12   2  550.44   19.60
   9 -12  -2 1845.92   64.89
  -9  12   2 2003.20   65.69
   8 -12  -2    7.40    1.70
  -8  12   2    3.40    2.70
   7 -12  -2 1004.60   34.70
  -7  12   2 1020.40   35.50
   6 -12  -2  690.83   25.00
  -6  12   2  756.42   26.00
   5 -12  -2  322.17   12.80
   5 -12  -2  367.36   14.30
  -5  12   2  349.77   13.60
  -4  12   2  636.54   22.90
  -3  12   2  120.79    6.60
  -2  12   2 1643.04   55.99
  -1  12   2  255.57   10.60
   0  12   2   94.39    6.00
   1  12   2  201.18    9.10
 -12  13   2   52.89    6.00
 -11  13   2   99.49    6.90
 -10  13   2  667.23   24.30
  -9  13   2    0.60    2.80
  -8  13   2 1606.54   55.39
  -7  13   2  646.44   23.70
  -6  13   2  898.81   32.00
  -5  13   2  866.01   30.80
  -4  13   2  111.49    7.00
  -3  13   2  287.97   11.90
  -2  13   2  102.69    6.50
  -1  13   2    3.10    2.70
 -11  14   2  432.56   17.10
 -10  14   2    2.70    3.30
  -9  14   2  865.81   31.10
  -8  14   2  190.88   10.00
  -7  14   2  377.56   15.50
  -6  14   2  692.53   25.50
  -5  14   2   65.69    7.00
  -4  14   2   73.39    6.60
  -3  14   2  125.09    7.80
  -9  15   2   31.40    4.50
  -8  15   2    1.60    3.80
  -7  15   2  778.32   28.70
  -6  15   2  324.57   14.20
  -2  15  -3  168.88    8.70
  -3  15  -3   87.79    6.60
  -4  15  -3  465.25   17.80
  -5  15  -3  466.35   18.00
  -6  15  -3  232.48   10.80
  -7  15  -3  744.13   28.70
   7 -15   3  866.41   29.20
  -8  15  -3   10.80    3.20
   8 -15   3    8.80    1.70
  -9  15  -3  537.35   19.70
   0  14  -3  165.38    8.20
  -1  14  -3  233.08    9.70
   1 -14   3  211.88    9.40
  -2  14  -3    2.30    2.60
  -3  14  -3  455.95   17.00
  -4  14  -3  670.23   24.10
  -5  14  -3  292.97   12.10
   5 -14   3  296.77   11.00
  -6  14  -3 1682.13   57.09
   6 -14   3 1651.03   56.19
  -7  14  -3    4.10    2.80
   7 -14   3    2.50    1.50
  -8  14  -3  985.10   33.40
   8 -14   3  931.51   32.60
  -9  14  -3  125.99    6.70
   9 -14   3  126.79    5.30
   2  13  -3  373.06   14.30
   1  13  -3   89.29    5.80
   0  13  -3  597.34   21.40
   0 -13   3  597.34   21.30
  -1  13  -3  133.49    6.50
   1 -13   3  118.39    6.40
  -2  13  -3 1195.58   40.00
   2 -13   3 1128.59   39.90
  -3  13  -3  488.45   16.90
   3 -13   3  443.96   16.80
   3 -13   3  443.96   16.30
  -4  13  -3  640.54   22.20
   4 -13   3  615.64   21.50
   4 -13   3  598.54   22.10
  -5  13  -3 1900.21   65.79
   5 -13   3 1969.30   65.09
  -6  13  -3    4.60    2.80
   6 -13   3    7.40    1.40
  -7  13  -3  872.31   29.70
   7 -13   3  829.82   29.00
  -8  13  -3  514.75   18.20
   8 -13   3  496.95   17.50
  -9  13  -3   83.29    5.20
   9 -13   3   83.99    3.90
 -10  13  -3  174.18    7.40
  10 -13   3  174.48    6.70
   3  12  -3  706.93   25.00
   2  12  -3  103.39    5.90
  -2 -12   3   93.89    5.40
   1  12  -3 1904.41   64.49
  -1 -12   3 1903.51   64.29
   0  12  -3    3.10    2.00
   0 -12   3    0.80    2.00
  -1  12  -3 1704.53   56.19
   1 -12   3 1607.74   56.09
   1 -12   3 1660.83   56.19
  -2  12  -3  524.85   17.90
   2 -12   3  480.75   17.50
   2 -12   3  490.65   17.90
  -3  12  -3  139.09    6.30
   3 -12   3  130.09    6.20
   3 -12   3  123.89    5.50
  -4  12  -3  257.17   11.10
   4 -12   3  281.27    9.90
   4 -12   3  273.57   10.60
  -5  12  -3  108.79    5.90
   5 -12   3  113.69    6.00
   5 -12   3  119.09    4.80
  -6  12  -3  976.70   33.90
   6 -12   3  964.50   34.10
   6 -12   3 1005.60   33.30
  -7  12  -3 1394.56   47.50
   7 -12   3 1394.56   47.00
  -8  12  -3   54.99    4.00
   8 -12   3   52.89    2.90
  -9  12  -3 1186.48   40.60
   9 -12   3 1201.08   40.20
 -10  12  -3  296.77   11.00
  10 -12   3  293.87   10.50
   4  11  -3  612.34   21.80
   3  11  -3  435.66   15.80
  -3 -11   3  427.26   15.30
   2  11  -3 2235.78   75.19
  -2 -11   3 2220.28   74.89
   1  11  -3   23.40    3.40
  -1 -11   3   19.50    3.00
   0  11  -3 1037.10   35.20
   0 -11   3 1007.40   35.20
   0 -11   3 1040.00   35.20
  -1  11  -3  425.66   14.80
   1 -11   3  394.76   14.60
   1 -11   3  411.06   14.80
   2 -11   3  244.18    9.50
   2 -11   3  250.87    9.20
  -3  11  -3   54.89    3.70
   3 -11   3   44.40    2.80
   3 -11   3   40.40    3.60
  -4  11  -3  176.48    7.60
   4 -11   3  181.98    7.60
   4 -11   3  194.78    7.00
  -5  11  -3  476.55   17.60
   5 -11   3  509.75   17.10
   5 -11   3  495.55   17.80
  -6  11  -3 1764.32   59.29
   6 -11   3 1738.63   58.89
   6 -11   3 1760.42   59.59
  -7  11  -3  119.79    5.40
   7 -11   3  121.39    4.60
   7 -11   3  103.89    5.80
  -8  11  -3 2824.22   95.99
   8 -11   3 2906.91   95.79
  -9  11  -3  157.98    6.50
   9 -11   3  158.98    6.00
  10 -11   3  453.95   15.60
  11 -11   3  196.38    7.20
   6  10  -3  942.91   33.90
   5  10  -3  238.08    9.70
   4  10  -3  510.05   18.10
  -4 -10   3  502.05   17.50
   3  10  -3  315.07   11.80
  -3 -10   3  313.97   11.30
   2  10  -3  208.88    8.00
  -2 -10   3  187.38    8.10
  -2 -10   3  200.18    7.70
   1  10  -3  217.48    8.30
  -1 -10   3  213.38    8.20
  -1 -10   3  211.78    8.40
   0  10  -3 1311.77   45.10
   0 -10   3 1308.27   45.10
   0 -10   3 1374.06   45.10
  -1  10  -3    9.60    1.60
   1 -10   3    3.70    1.60
   1 -10   3    6.10    1.30
  -2  10  -3 2916.61   92.09
   2 -10   3 2633.84   90.89
   2 -10   3 2570.14   90.59
  -3  10  -3 1746.83   58.19
   3 -10   3 1703.43   58.29
   3 -10   3 1722.23   57.89
  -4  10  -3  729.63   26.80
   4 -10   3  791.02   26.50
   4 -10   3  819.62   27.00
  -5  10  -3 1258.37   42.80
   5 -10   3 1264.57   42.30
   5 -10   3 1251.97   42.90
  -6  10  -3   79.09    4.10
   6 -10   3   79.89    4.50
  -7  10  -3 1232.88   42.20
   7 -10   3 1259.17   42.70
   7 -10   3 1250.47   41.90
  -8  10  -3   13.50    1.60
   8 -10   3   13.30    1.70
   8 -10   3   12.70    2.10
   9 -10   3  248.68    8.90
   9 -10   3  253.07   11.20
  10 -10   3  981.20   33.10
   7   9  -3  603.54   21.80
   6   9  -3  355.16   13.40
   5   9  -3   11.70    2.10
  -5  -9   3   10.90    1.40
  -5  -9   3   14.10    2.30
   4   9  -3  366.06   13.40
  -4  -9   3  368.56   12.80
   3   9  -3   54.99    3.60
  -3  -9   3   53.19    3.00
  -3  -9   3   47.50    3.70
   2   9  -3  203.88    7.90
  -2  -9   3  200.28    8.00
  -2  -9   3  205.78    7.60
   1   9  -3 4040.10  133.89
  -1  -9   3 3990.90  131.59
  -1  -9   3 3673.23  130.49
   0   9  -3  118.09    4.80
   0  -9   3  108.19    4.70
   0  -9   3  105.89    4.80
  -1   9  -3 5216.68  171.58
   1  -9   3 4993.10  171.38
   1  -9   3 5018.60  171.78
  -2   9  -3  887.81   29.90
   2  -9   3  884.11   29.80
   2  -9   3  863.01   30.00
  -3   9  -3  701.53   24.20
   3  -9   3  709.23   24.40
   3  -9   3  706.03   24.00
  -4   9  -3  754.72   27.40
   4  -9   3  816.82   27.10
   4  -9   3  833.22   27.60
  -5   9  -3   55.09    3.20
   5  -9   3   52.89    3.40
   5  -9   3   59.39    2.60
  -6   9  -3  334.87   11.70
   6  -9   3  326.97   11.40
   6  -9   3  328.77   12.10
  -7   9  -3  389.26   14.20
  -7   9  -3  380.96   13.40
   7  -9   3  376.96   13.90
   7  -9   3  385.26   13.20
  -8   9  -3   10.70    1.40
  -8   9  -3    9.30    2.20
   8  -9   3    8.40    1.80
   8  -9   3    8.90    1.50
  -9   9  -3 3669.23  118.99
   9  -9   3 3539.55  117.99
   9  -9   3 3400.76  118.69
 -10   9  -3   76.89    5.50
  10  -9   3   76.99    3.50
 -11   9  -3 1398.96   47.30
  11  -9   3 1344.17   46.20
 -12   9  -3  670.63   24.70
  12  -9   3  691.63   23.40
   8   8  -3  197.58    8.90
   7   8  -3  620.94   22.10
   6   8  -3  204.38    8.40
   5   8  -3 1096.79   37.70
  -5  -8   3 1093.29   37.00
  -5  -8   3 1117.59   37.10
   4   8  -3  865.61   29.60
  -4  -8   3  875.71   29.10
  -4  -8   3  845.92   29.80
   3   8  -3  826.22   28.30
  -3  -8   3  823.12   28.00
  -3  -8   3  827.32   28.50
   2   8  -3 1097.59   38.10
  -2  -8   3 1155.18   38.20
  -2  -8   3 1119.39   37.90
   1   8  -3  150.68    5.90
  -1  -8   3  152.48    6.00
  -1  -8   3  149.79    5.80
   0   8  -3 4563.44  155.58
   0  -8   3 4576.24  155.18
   0  -8   3 4639.34  155.38
  -1   8  -3  583.94   20.00
   1  -8   3  579.54   19.90
   1  -8   3  586.34   20.10
  -2   8  -3  522.15   17.60
   2  -8   3  500.45   17.80
   2  -8   3  513.45   17.50
  -3   8  -3 1452.35   51.49
   3  -8   3 1633.84   51.99
   3  -8   3 1506.15   51.59
  -4   8  -3   82.69    3.90
   4  -8   3   89.99    4.10
   4  -8   3   92.09    3.40
  -5   8  -3  220.28    7.90
  -5   8  -3  211.78    8.30
   5  -8   3  216.88    8.20
   5  -8   3  212.18    7.50
  -6   8  -3 1678.93   57.49
  -6   8  -3 1671.73   56.89
   6  -8   3 1677.43   57.29
   6  -8   3 1762.52   57.09
  -7   8  -3  177.98    7.50
  -7   8  -3  178.78    6.60
   7  -8   3  182.68    6.40
   7  -8   3  175.38    7.20
  -8   8  -3 3292.07  113.09
   8  -8   3 3295.37  112.79
   8  -8   3 3504.75  112.89
  -9   8  -3    8.20    2.30
   9  -8   3   10.80    2.00
   9  -8   3   12.80    1.70
 -10   8  -3 1724.73   57.79
  10  -8   3 1709.23   56.79
  10  -8   3 1641.44   57.39
 -11   8  -3  405.16   15.70
  11  -8   3  421.66   14.30
  11  -8   3  403.36   14.40
 -12   8  -3   69.19    5.90
  12  -8   3   60.99    3.50
  12  -8   3   59.39    3.60
 -13   8  -3  135.29    8.00
   9   7  -3   85.89    5.80
   8   7  -3 1209.88   41.50
   7   7  -3  230.88    9.30
   6   7  -3 2541.85   85.49
   5   7  -3  668.73   22.60
  -5  -7   3  618.44   21.90
  -5  -7   3  665.33   22.90
   4   7  -3  926.31   32.20
  -4  -7   3  943.11   31.70
  -4  -7   3  963.00   32.40
   3   7  -3  521.95   18.40
  -3  -7   3  535.35   18.50
  -3  -7   3  531.35   18.00
   2   7  -3  153.08    5.90
  -2  -7   3  157.08    5.70
  -2  -7   3  150.58    6.00
   1   7  -3  643.04   22.40
  -1  -7   3  650.73   22.30
  -1  -7   3  671.23   22.40
   0   7  -3  146.19    5.40
   0  -7   3  134.49    5.60
   0  -7   3  145.89    5.40
  -1   7  -3  197.28    6.80
   1  -7   3  179.68    6.90
   1  -7   3  183.98    6.70
  -2   7  -3 5772.62  194.58
   2  -7   3 5723.33  194.08
   2  -7   3 5816.22  194.48
  -3   7  -3  504.55   17.10
  -3   7  -3  510.75   17.40
   3  -7   3  513.85   16.90
   3  -7   3  460.95   17.50
  -4   7  -3 2728.33   91.79
  -4   7  -3 2862.81   93.19
   4  -7   3 2479.25   90.99
   4  -7   3 2796.82   91.39
  -5   7  -3 1340.27   46.60
  -5   7  -3 1349.66   46.10
   5  -7   3 1443.36   46.30
   5  -7   3 1363.16   46.50
  -6   7  -3  940.51   32.70
  -6   7  -3  986.60   33.30
   6  -7   3  963.30   32.60
   6  -7   3  995.70   33.20
  -7   7  -3  156.18    6.50
   7  -7   3  145.79    6.10
   7  -7   3  149.49    5.40
  -8   7  -3   88.19    4.90
   8  -7   3   92.19    3.60
   8  -7   3   86.79    4.30
  -9   7  -3  486.55   17.50
   9  -7   3  479.95   16.60
   9  -7   3  478.15   17.10
 -10   7  -3  451.55   16.70
  10  -7   3  457.55   15.80
  10  -7   3  444.86   16.30
  10  -7   3  464.85   15.70
 -11   7  -3   32.90    4.60
  11  -7   3   27.20    2.60
  11  -7   3   28.90    3.60
  11  -7   3   26.00    3.00
 -12   7  -3  991.30   34.60
  12  -7   3  983.80   33.40
  12  -7   3  987.30   33.70
 -13   7  -3  581.74   21.40
  13  -7   3  577.94   20.20
   9   6  -3 1068.49   36.80
   8   6  -3   53.29    4.50
   7   6  -3  741.33   25.80
   6   6  -3 1253.57   42.60
  -6  -6   3 1253.67   42.90
   5   6  -3  337.27   12.20
  -5  -6   3  337.47   12.40
   4   6  -3  931.51   32.60
  -4  -6   3  964.20   32.20
  -4  -6   3  985.10   32.80
   3   6  -3  266.57    9.60
  -3  -6   3  261.07    9.70
  -3  -6   3  270.47    9.20
   2   6  -3  299.67   10.50
  -2  -6   3  297.87   10.30
  -2  -6   3  294.77   10.60
   1   6  -3 2058.39   69.39
  -1  -6   3 2018.70   68.69
  -1  -6   3 2014.10   69.39
   0   6  -3   77.89    3.20
   0  -6   3   77.69    3.20
   0  -6   3   73.69    3.20
  -1   6  -3 5158.48  173.28
   1  -6   3 5086.89  173.28
   1  -6   3 5191.88  173.88
  -2   6  -3 1771.32   57.99
  -2   6  -3 1714.53   58.09
   2  -6   3 1736.43   57.99
   2  -6   3 1600.44   57.29
  -3   6  -3 3627.94  122.29
  -3   6  -3 3424.46  121.59
   3  -6   3 3641.84  120.99
   3  -6   3 3726.13  121.69
  -4   6  -3  968.80   33.30
  -4   6  -3  972.70   33.80
   4  -6   3 1034.10   33.40
  -5   6  -3  153.68    5.70
  -5   6  -3  160.38    6.30
   5  -6   3  160.98    6.20
   5  -6   3  158.68    5.50
  -6   6  -3  463.75   16.50
   6  -6   3  467.45   15.90
   6  -6   3  472.65   16.40
  -7   6  -3  387.46   14.00
   7  -6   3  386.26   13.30
   7  -6   3  385.96   13.70
  -8   6  -3   42.40    3.40
   8  -6   3   39.00    2.20
   8  -6   3   41.80    2.90
   8  -6   3   35.90    2.20
   9  -6   3 1215.68   41.00
   9  -6   3 1211.78   40.70
   9  -6   3 1187.58   40.50
 -10   6  -3   58.99    4.80
  10  -6   3   60.19    3.30
  10  -6   3   56.89    3.90
  10  -6   3   62.59    3.10
 -11   6  -3 1591.34   53.69
  11  -6   3 1549.34   52.69
  11  -6   3 1591.74   52.99
  11  -6   3 1548.15   53.29
 -12   6  -3  415.56   16.10
  12  -6   3  433.96   15.30
  12  -6   3  424.66   14.90
 -13   6  -3  437.96   17.10
  13  -6   3  450.55   15.70
  10   5  -3  475.25   17.40
   9   5  -3  106.39    5.80
   8   5  -3  406.46   14.80
   7   5  -3  357.76   12.70
  -7  -5   3  338.57   13.00
   6   5  -3   53.79    3.50
  -6  -5   3   58.29    3.80
   5   5  -3 3910.91  130.89
  -5  -5   3 3789.32  129.99
   4   5  -3 1506.25   52.09
  -4  -5   3 1596.84   51.79
  -4  -5   3 1544.55   52.29
   3   5  -3  815.32   28.00
  -3  -5   3  838.92   28.10
  -3  -5   3  819.82   27.70
   2   5  -3 3196.48  109.59
  -2  -5   3 3275.17  109.69
  -2  -5   3 3207.58  108.49
   1   5  -3  147.79    5.60
  -1  -5   3  152.18    5.70
  -1  -5   3  152.88    5.50
   0   5  -3 1590.94   53.99
   0   5  -3 1619.74   54.69
   0  -5   3 1673.93   54.69
   0  -5   3 1509.45   53.59
  -1   5  -3   61.79    2.40
  -1   5  -3   57.19    2.60
   1  -5   3   61.39    2.40
   1  -5   3   58.79    2.60
  -2   5  -3 1097.79   38.20
  -2   5  -3 1167.28   38.60
   2  -5   3 1180.38   38.50
   2  -5   3 1089.59   38.20
  -3   5  -3 1502.45   53.59
  -3   5  -3 1644.84   53.99
   3  -5   3 1624.04   53.59
  -4   5  -3 2604.24   89.89
  -4   5  -3 2656.83   88.99
   4  -5   3 2715.53   90.29
   4  -5   3 2596.14   88.59
  -5   5  -3 2302.37   75.69
   5  -5   3 2201.18   75.59
   5  -5   3 2143.69   74.39
  -6   5  -3 1332.17   45.70
   6  -5   3 1381.46   45.60
   6  -5   3 1334.97   45.20
  -7   5  -3  404.96   14.60
   7  -5   3  424.26   14.40
   7  -5   3  394.96   14.00
   7  -5   3  402.26   13.90
  -8   5  -3 1708.93   58.09
   8  -5   3 1714.13   57.49
   8  -5   3 1707.13   57.59
   8  -5   3 1738.53   57.89
  -9   5  -3  110.59    5.60
   9  -5   3  114.29    4.50
   9  -5   3  113.99    4.70
   9  -5   3  107.79    5.00
 -10   5  -3 1764.62   60.39
  10  -5   3 1775.32   59.59
  10  -5   3 1788.92   59.99
  10  -5   3 1782.42   59.89
 -11   5  -3  513.45   18.90
  11  -5   3  509.35   18.30
  11  -5   3  525.55   18.30
  11  -5   3  524.35   17.90
 -12   5  -3  392.66   14.90
  12  -5   3  378.16   14.20
  12  -5   3  396.76   14.50
  12  -5   3  392.06   13.80
 -13   5  -3  319.67   13.20
  13  -5   3  329.67   11.80
  11   4  -3  497.75   18.20
  10   4  -3   24.10    4.20
   9   4  -3  387.86   14.20
   8   4  -3  514.85   18.20
   7   4  -3   -1.20    1.30
   6   4  -3 3264.67  104.49
  -6  -4   3 2862.31  102.69
   5   4  -3  859.41   30.10
  -5  -4   3  910.31   30.30
   4   4  -3 2098.49   68.99
  -4  -4   3 1934.71   67.69
   3   4  -3 3191.48  109.69
  -3  -4   3 3250.57  107.79
  -3  -4   3 3217.08  109.59
   2   4  -3  580.34   20.30
  -2  -4   3  606.54   20.10
  -2  -4   3  601.94   20.30
   1   4  -3 1596.44   56.19
   1   4  -3 1617.54   56.29
  -1  -4   3 1689.83   56.19
  -1  -4   3 1727.13   56.79
   0   4  -3   77.49    2.90
   0   4  -3   75.49    3.00
   0  -4   3   79.79    2.90
   0  -4   3   79.09    3.00
  -1   4  -3  104.69    4.00
  -1   4  -3  103.69    3.70
   1  -4   3  101.19    3.70
   1  -4   3  106.09    3.90
  -2   4  -3 2842.62   95.49
  -2   4  -3 2713.03   94.49
   2  -4   3 2846.62   94.29
   2  -4   3 2851.81   95.49
  -3   4  -3  770.82   25.30
  -3   4  -3  714.73   25.50
   3  -4   3  764.42   25.20
  -4   4  -3 5334.27  180.58
   4  -4   3 5163.38  177.88
   4  -4   3 5479.65  180.28
  -5   4  -3 1109.59   38.50
   5  -4   3 1098.59   38.30
   5  -4   3 1153.58   38.30
   5  -4   3 1181.58   38.20
  -6   4  -3 1138.19   38.90
   6  -4   3 1099.29   38.40
   6  -4   3 1191.08   38.50
   6  -4   3 1148.29   38.70
  -7   4  -3 1759.02   61.29
   7  -4   3 1813.92   61.09
   7  -4   3 1909.41   61.09
   7  -4   3 1790.82   60.89
  -8   4  -3    1.80    1.60
   8  -4   3    3.80    1.00
   8  -4   3    2.60    1.20
   8  -4   3    2.50    0.90
  -9   4  -3  189.98    8.00
   9  -4   3  198.68    7.40
   9  -4   3  191.48    7.10
   9  -4   3  196.68    7.50
 -10   4  -3  224.98   11.60
  10  -4   3  241.48    9.10
  10  -4   3  243.68    8.70
  10  -4   3  242.98    9.10
 -11   4  -3   61.89    5.00
  11  -4   3   63.59    4.00
  11  -4   3   58.09    3.80
  11  -4   3   64.29    3.50
 -12   4  -3  367.76   14.10
  12  -4   3  375.16   12.90
  12  -4   3  345.57   13.20
  12  -4   3  356.06   13.40
 -13   4  -3  329.17   13.60
  13  -4   3  336.17   12.20
  11   3  -3  650.73   23.10
  10   3  -3  196.98    8.30
   9   3  -3  612.44   21.50
   8   3  -3    0.30    1.50
   7   3  -3  875.61   29.90
   6   3  -3  349.87   12.40
   5   3  -3 2444.46   79.09
  -5  -3   3 2173.58   77.39
   4   3  -3 1914.01   62.29
  -4  -3   3 1692.43   60.59
   3   3  -3  912.51   30.70
  -3  -3   3  893.81   30.80
   2   3  -3 1766.82   60.19
  -2  -3   3 1819.02   59.09
  -2  -3   3 1677.23   59.69
   1   3  -3 4316.47  144.99
   1   3  -3 4233.18  145.39
  -1  -3   3 4437.86  144.89
  -1  -3   3 4293.07  145.49
   0   3  -3  806.62   28.30
   0   3  -3  818.92   28.50
   0  -3   3  891.21   28.90
   0  -3   3  851.31   28.70
  -1   3  -3  929.51   31.20
  -1   3  -3  779.42   30.70
   1  -3   3  933.21   30.60
   1  -3   3  953.50   31.10
   2  -3   3   29.20    1.60
  -3   3  -3  532.85   18.30
   3  -3   3  537.25   18.20
  -4   3  -3 3500.35  119.89
   4  -3   3 3463.85  118.09
   4  -3   3 3604.24  119.69
  -5   3  -3 1158.78   40.80
   5  -3   3 1209.88   40.70
   5  -3   3 1253.97   40.60
  -6   3  -3  862.31   29.60
   6  -3   3  851.61   29.40
   6  -3   3  881.61   29.10
  -7   3  -3  136.99    5.80
   7  -3   3  141.49    5.20
   7  -3   3  141.99    5.50
  -8   3  -3  116.89    5.40
   8  -3   3  116.59    4.80
   8  -3   3  115.69    4.60
  -9   3  -3  755.02   26.50
   9  -3   3  773.12   26.00
   9  -3   3  766.32   26.20
 -10   3  -3   86.79    5.20
  10  -3   3   88.19    4.10
  10  -3   3   83.99    4.30
 -11   3  -3  780.72   27.10
  11  -3   3  743.33   26.50
  11  -3   3  783.32   26.30
 -12   3  -3  544.45   19.50
  12  -3   3  533.75   18.70
  12  -3   3  519.05   18.90
  12   2  -3 1057.49   36.50
  11   2  -3  177.98    7.80
  10   2  -3 2183.88   73.69
   9   2  -3   57.29    3.90
   8   2  -3  714.83   24.80
   7   2  -3   46.80    3.00
   6   2  -3  519.45   18.00
   5   2  -3 1020.50   34.60
   4   2  -3 2669.13   91.09
   3   2  -3 2305.87   78.59
   1   2  -3 1923.21   63.59
   1   2  -3 1846.02   63.89
  -1  -2   3 1871.71   63.49
   0   2  -3 2393.16   81.59
   0  -2   3 2433.46   81.49
  -1   2  -3  539.75   18.20
   1  -2   3  525.65   18.20
  -2   2  -3  144.09    5.30
   2  -2   3  152.48    5.30
  -3   2  -3 1829.42   62.79
   3  -2   3 1800.22   61.39
   3  -2   3 1873.31   62.79
  -4   2  -3  100.29    4.00
   4  -2   3   94.39    3.50
   4  -2   3   98.59    3.80
  -5   2  -3 1801.92   58.99
   5  -2   3 1612.14   57.59
   5  -2   3 1741.13   57.89
  -6   2  -3 1595.04   53.99
   6  -2   3 1611.74   53.59
  -7   2  -3  341.27   12.30
   7  -2   3  338.57   11.80
   7  -2   3  344.27   12.00
  -8   2  -3 2662.03   92.89
   8  -2   3 2726.73   92.69
   8  -2   3 2917.31   93.19
  -9   2  -3  111.69    5.40
   9  -2   3  108.39    4.70
   9  -2   3  109.99    4.80
 -10   2  -3  984.30   33.60
  10  -2   3  963.50   33.30
  10  -2   3  974.40   33.10
 -11   2  -3   78.09    5.60
  11  -2   3   84.69    4.80
  11  -2   3   80.09    4.50
 -12   2  -3  225.38    9.70
  12  -2   3  217.68    8.90
  12  -2   3  225.18    8.70
  13   1  -3  279.97   11.40
  12   1  -3  446.66   16.40
  11   1  -3 1676.73   56.89
  10   1  -3   63.69    4.20
   9   1  -3  795.62   26.40
   9   1  -3  725.93   25.50
   8   1  -3  914.31   30.90
   8   1  -3  894.51   30.30
   7   1  -3    3.60    0.50
   7   1  -3    3.70    1.30
   6   1  -3  408.66   14.50
   6   1  -3  420.16   13.90
   5   1  -3  236.48    8.50
   4   1  -3 1737.63   58.79
   2   1  -3  288.87    9.80
   1   1  -3 1376.16   46.30
  -1  -1   3 1354.26   46.50
   0   1  -3 1449.95   48.20
   0  -1   3 1407.76   48.70
  -1   1  -3  313.27   10.90
  -1   1  -3  325.97   11.10
   1  -1   3  327.77   10.90
   1  -1   3  334.47   11.10
  -2   1  -3 2291.67   74.69
  -2   1  -3 2339.17   76.09
   2  -1   3 2296.97   75.69
   2  -1   3 1975.00   74.59
  -3   1  -3  568.84   18.90
  -3   1  -3  563.24   19.10
   3  -1   3  566.94   19.10
   3  -1   3  541.85   18.90
  -4   1  -3 2473.85   81.79
  -4   1  -3 2396.16   82.09
   4  -1   3 2421.16   82.19
   4  -1   3 2377.66   81.39
  -5   1  -3 3350.66  115.89
  -5   1  -3 3460.75  116.09
   5  -1   3 3428.56  115.49
   5  -1   3 3490.15  116.39
  -6   1  -3  997.20   33.10
   6  -1   3  948.21   32.90
   6  -1   3  973.80   32.70
  -7   1  -3 2494.35   87.79
   7  -1   3 2815.12   88.49
   7  -1   3 2547.84   87.69
  -8   1  -3  147.79    6.20
   8  -1   3  142.09    5.80
   8  -1   3  141.79    5.70
  -9   1  -3 1441.66   49.70
   9  -1   3 1464.75   49.30
   9  -1   3 1486.25   49.50
 -10   1  -3  148.39    6.90
  10  -1   3  147.39    6.10
  10  -1   3  141.49    6.10
 -11   1  -3   23.80    3.20
  11  -1   3   23.30    3.00
  11  -1   3   19.60    3.30
 -12   1  -3  208.88    9.50
  12  -1   3  206.28    8.40
  13   0  -3  359.26   13.80
  12   0  -3  639.84   22.70
  11   0  -3  101.29    5.40
  11   0  -3   98.79    3.90
  10   0  -3  243.58    9.30
  10   0  -3  236.88    8.40
   9   0  -3 3047.50  107.09
   9   0  -3 3347.96  107.39
   8   0  -3    1.50    1.20
   8   0  -3    2.70    0.60
   7   0  -3 3413.56  111.99
   7   0  -3 3253.17  112.89
   6   0  -3   20.20    1.10
   6   0  -3   19.80    1.90
   5   0  -3 2300.77   77.39
   1   0  -3   67.29    2.80
   1   0  -3   75.89    2.80
  -1   0   3   80.69    2.90
   0   0  -3 1668.63   55.89
   0   0  -3 1627.54   55.29
   0   0   3 1608.74   55.39
  -1   0  -3  769.92   24.30
  -1   0  -3  654.73   24.10
   1   0   3  740.93   24.20
   1   0   3  682.23   24.10
  -2   0  -3  122.79    4.70
  -2   0  -3  132.19    4.50
   2   0   3  134.29    4.70
   2   0   3  122.49    4.50
  -3   0  -3 2772.12   91.99
  -3   0  -3 2719.73   90.89
   3   0   3 2600.24   90.59
   3   0   3 2673.13   91.39
  -4   0  -3 1317.27   47.10
  -4   0  -3 1505.05   47.80
   4   0   3 1426.76   47.60
   4   0   3 1358.46   47.10
  -5   0  -3 1070.19   35.40
  -5   0  -3 1040.40   35.50
   5   0   3 1059.99   35.40
   5   0   3 1023.30   35.20
  -6   0  -3 1017.70   33.80
  -6   0  -3  999.70   33.80
   6   0   3  951.80   33.90
   6   0   3 1008.10   33.50
  -7   0  -3   56.99    3.30
  -7   0  -3   50.39    3.30
   7   0   3   50.29    2.90
   7   0   3   54.09    2.90
  -8   0  -3  595.84   21.00
   8   0   3  601.34   20.80
   8   0   3  606.04   20.70
  -9   0  -3  921.21   31.30
   9   0   3  909.71   31.00
   9   0   3  896.71   31.10
 -10   0  -3   33.80    4.30
  10   0   3   26.80    3.40
  10   0   3   33.50    3.00
 -11   0  -3  563.04   20.40
  11   0   3  561.54   19.80
  13  -1  -3  161.68    7.70
  12  -1  -3  220.88    8.10
  12  -1  -3  231.98    9.30
  11  -1  -3  161.68    5.90
  11  -1  -3  158.18    6.90
  10  -1  -3 2280.57   76.29
   9  -1  -3    0.50    1.30
   9  -1  -3    0.80    0.80
   8  -1  -3 3841.22  132.09
   8  -1  -3 4031.40  132.59
   7  -1  -3  981.30   33.00
   6  -1  -3   17.80    1.30
   5  -1  -3  102.69    3.90
   4  -1  -3   50.09    2.40
   3  -1  -3  914.81   30.30
  -3   1   3  881.91   30.30
   1  -1  -3  215.88    7.50
  -1   1   3  210.58    7.50
  -1  -1  -3  932.51   31.40
  -1  -1  -3  926.31   31.80
   1   1   3  898.61   31.40
  -2  -1  -3 2740.33   92.49
  -2  -1  -3 2855.31   92.09
   2   1   3 2586.64   91.79
  -3  -1  -3   92.99    3.30
  -3  -1  -3   73.49    3.40
   3   1   3   79.39    3.30
   3   1   3   87.79    3.20
  -4  -1  -3  239.28    8.80
  -4  -1  -3  250.07    8.80
   4   1   3  248.28    8.80
   4   1   3  242.68    8.60
  -5  -1  -3  801.32   26.40
  -5  -1  -3  759.42   26.40
   5   1   3  763.92   26.20
   5   1   3  771.82   26.30
  -6  -1  -3  444.76   15.90
  -6  -1  -3  458.85   15.90
   6   1   3  456.85   15.70
  -7  -1  -3  150.78    6.10
  -7  -1  -3  150.58    6.20
   7   1   3  146.29    5.80
   7   1   3  137.99    5.70
  -8  -1  -3 1481.65   49.99
  -8  -1  -3 1481.15   50.19
   8   1   3 1466.45   49.80
  -9  -1  -3   58.99    4.20
   9   1   3   53.09    3.80
 -10  -1  -3 1600.14   53.99
  10   1   3 1577.84   53.69
 -11  -1  -3   53.69    8.20
  11   1   3   63.69    4.60
  14  -2  -3  674.73   24.10
  13  -2  -3  341.97   12.90
  13  -2  -3  352.46   13.30
  12  -2  -3  890.31   30.30
  12  -2  -3  836.72   30.60
  12  -2  -3  892.11   29.70
  11  -2  -3  647.64   22.40
  11  -2  -3  663.83   23.00
  10  -2  -3   18.30    2.00
  10  -2  -3   18.30    1.90
   9  -2  -3  936.21   31.80
   9  -2  -3  921.91   32.10
   9  -2  -3  959.10   32.30
   8  -2  -3 1587.04   53.09
   8  -2  -3 1551.04   52.69
   7  -2  -3  257.77    9.10
   6  -2  -3 2045.90   71.59
   6  -2  -3 2222.38   72.69
   5  -2  -3  254.47    9.10
   4  -2  -3 2951.30   99.79
  -4   2   3 2896.61   99.59
  -3   2   3 4939.21  167.08
   1  -2  -3 2426.06   83.89
  -1   2   3 2511.25   83.89
   0  -2  -3  533.25   17.90
   0   2   3  524.05   17.90
  -1  -2  -3 1228.48   41.10
  -1  -2  -3 1213.28   40.40
   1   2   3 1130.39   40.40
  -2  -2  -3 1339.77   48.70
  -2  -2  -3 1552.04   49.60
   2   2   3 1462.35   49.20
  -3  -2  -3  208.48    7.30
  -3  -2  -3  201.78    7.30
   3   2   3  190.98    7.10
  -4  -2  -3 1524.05   48.70
  -4  -2  -3 1319.67   48.50
   4   2   3 1484.05   48.40
  -5  -2  -3  843.72   30.40
  -5  -2  -3  947.01   30.50
   5   2   3  890.11   30.30
  -6  -2  -3  305.87   11.20
  -6  -2  -3  296.97   11.00
   6   2   3  309.07   10.90
  -7  -2  -3 2623.14   88.59
  -7  -2  -3 2679.13   88.79
   7   2   3 2611.14   88.39
  -8  -2  -3  359.66   13.00
  -8  -2  -3  341.57   13.30
   8   2   3  352.36   12.70
  -9  -2  -3 1339.37   45.60
   9   2   3 1334.67   45.40
 -10  -2  -3   34.10    4.70
  10   2   3   35.60    4.20
  14  -3  -3  446.96   16.60
  13  -3  -3  315.67   11.50
  13  -3  -3  324.07   12.40
  12  -3  -3  225.48    8.20
  12  -3  -3  204.78    9.10
  12  -3  -3  227.08    9.00
  11  -3  -3    6.00    1.90
  11  -3  -3    3.70    2.10
  11  -3  -3    6.40    1.30
  10  -3  -3  466.05   15.80
  10  -3  -3  408.56   15.70
   9  -3  -3 1521.35   51.29
   9  -3  -3 1503.95   50.89
   8  -3  -3    3.50    1.20
   8  -3  -3    2.60    1.00
   7  -3  -3 6048.49  206.08
   7  -3  -3 6117.19  205.38
   6  -3  -3 1185.48   40.20
   6  -3  -3 1195.78   40.30
   5  -3  -3 3326.37  111.69
  -5   3   3 3238.18  111.79
   4  -3  -3 1970.70   64.19
  -4   3   3 1769.72   63.39
   3  -3  -3  179.98    6.40
  -3   3   3  166.98    6.40
   2  -3  -3 1739.93   60.49
  -2   3   3 1809.42   61.09
   1  -3  -3  282.77   10.10
  -1   3   3  298.37   10.10
   0  -3  -3  529.95   17.80
   0   3   3  516.85   17.80
  -1  -3  -3 4794.72  157.58
   1   3   3 4537.35  157.18
  -2  -3  -3  190.28    6.90
  -2  -3  -3  197.98    7.00
   2   3   3  183.38    6.80
  -3  -3  -3 4183.48  138.09
  -3  -3  -3 4089.39  138.09
   3   3   3 3919.41  137.19
  -4  -3  -3  314.67   11.40
  -4  -3  -3  333.07   11.50
   4   3   3  313.67   11.30
  -5  -3  -3  826.92   27.00
  -5  -3  -3  715.43   26.70
   5   3   3  803.62   26.70
  -6  -3  -3  804.72   28.90
  -6  -3  -3  882.81   29.20
   6   3   3  844.72   28.80
  -7  -3  -3   79.79    4.60
  -7  -3  -3   90.09    5.10
   7   3   3   87.09    4.40
  -8  -3  -3  636.34   24.20
  -8  -3  -3  706.03   23.80
   8   3   3  695.53   23.60
  -9  -3  -3   30.90    4.40
   9   3   3   43.10    4.20
  10   3   3    8.60    2.50
  14  -4  -3    3.30    2.60
  13  -4  -3  604.24   20.70
  13  -4  -3  576.74   20.10
  13  -4  -3  550.04   20.90
  12  -4  -3  356.56   13.10
  12  -4  -3  352.76   12.60
  12  -4  -3  338.97   13.30
  11  -4  -3  588.54   20.20
  11  -4  -3  571.74   20.60
  10  -4  -3  970.80   33.30
  10  -4  -3  966.70   33.00
   9  -4  -3   69.09    3.40
   9  -4  -3   67.39    3.70
   8  -4  -3 4206.48  142.59
   8  -4  -3 4154.98  140.89
   7  -4  -3  707.33   25.00
   7  -4  -3  746.83   24.90
   6  -4  -3 3035.90   99.59
  -6   4   3 2798.22   98.49
   5  -4  -3 1019.20   33.70
  -5   4   3  964.00   33.70
   4  -4  -3    0.30    0.80
  -4   4   3    0.00    0.90
   3  -4  -3  365.56   12.70
  -3   4   3  360.96   12.80
   1  -4  -3  207.68    7.40
  -1   4   3  209.98    7.50
   0  -4  -3 5029.80  164.58
   0   4   3 4726.33  164.68
  -1  -4  -3   51.29    2.60
   1   4   3   49.70    2.50
  -2  -4  -3 5986.80  208.48
  -2  -4  -3 6533.95  209.38
   2   4   3 6047.10  208.38
  -3  -4  -3  292.67   10.40
  -3  -4  -3  302.27   10.60
   3   4   3  282.27   10.40
  -4  -4  -3  897.61   30.50
  -4  -4  -3  917.71   30.70
   4   4   3  872.61   30.40
  -5  -4  -3  469.95   16.50
  -5  -4  -3  444.36   16.10
   5   4   3  463.45   16.10
  -6  -4  -3  200.38    8.00
  -6  -4  -3  173.88    7.50
   6   4   3  193.88    7.50
  -7  -4  -3   15.90    2.70
  -7  -4  -3   13.90    2.30
   7   4   3   16.60    2.10
  -8  -4  -3  688.13   24.20
   8   4   3  694.33   24.10
  -9  -4  -3   52.09    5.30
   9   4   3   56.89    4.80
  14  -5  -3 1650.83   54.79
  14  -5  -3 1564.34   54.39
  13  -5  -3  790.72   29.40
  13  -5  -3  885.81   29.30
  13  -5  -3  836.52   28.90
  12  -5  -3  921.81   32.10
  12  -5  -3  924.41   31.70
  11  -5  -3  617.34   22.10
  11  -5  -3  635.34   21.80
  10  -5  -3    0.70    1.50
  10  -5  -3    2.40    1.30
   9  -5  -3  516.45   18.10
   9  -5  -3  510.55   18.00
   8  -5  -3  551.34   19.20
   8  -5  -3  550.54   19.20
   7  -5  -3  640.64   22.60
   7  -5  -3  663.63   22.40
  -7   5   3  640.74   22.40
   6  -5  -3 2223.98   76.79
  -6   5   3 2348.36   77.69
   5  -5  -3  508.55   17.50
  -5   5   3  497.55   17.50
   4  -5  -3 6616.84  220.78
  -4   5   3 6461.65  221.18
   3  -5  -3 3836.72  131.39
  -3   5   3 3915.61  132.19
   2  -5  -3  648.24   22.20
  -2   5   3  652.83   22.30
   1  -5  -3  436.06   15.00
  -1   5   3  430.66   15.10
   0  -5  -3   43.70    2.40
   0   5   3   44.00    2.40
  -1  -5  -3 2387.96   82.99
   1   5   3 2571.14   84.39
  -2  -5  -3 1241.18   40.60
   2   5   3 1154.98   40.40
  -3  -5  -3  129.19    5.30
  -3  -5  -3  128.79    5.60
   3   5   3  133.29    5.40
  -4  -5  -3 1189.78   38.70
  -4  -5  -3 1199.58   38.40
   4   5   3 1006.60   38.60
  -5  -5  -3  322.17   11.40
  -5  -5  -3  305.77   11.80
   5   5   3  306.57   11.40
  -6  -5  -3  170.08    7.30
  -6  -5  -3  169.98    7.90
   6   5   3  186.48    7.30
  -7  -5  -3  705.83   25.60
   7   5   3  762.32   25.60
  -8  -5  -3  138.09    6.90
   8   5   3  137.79    6.90
  15  -6  -3  995.90   34.70
  14  -6  -3 1127.69   37.60
  14  -6  -3 1045.00   37.30
  13  -6  -3  726.63   25.90
  13  -6  -3  731.63   25.50
  12  -6  -3  609.04   21.40
  12  -6  -3  606.14   21.70
  11  -6  -3   55.19    4.00
  11  -6  -3   53.99    3.80
  10  -6  -3  360.06   13.30
  10  -6  -3  373.06   13.40
   9  -6  -3  111.59    5.00
   9  -6  -3  111.09    5.00
   8  -6  -3   85.99    4.10
   8  -6  -3   87.69    4.20
  -8   6   3   80.79    4.30
   7  -6  -3 5726.73  184.48
   7  -6  -3 5220.38  182.38
  -7   6   3 5323.17  184.18
   6  -6  -3 1184.08   39.30
  -6   6   3 1131.79   39.40
  -5   6   3 2645.44   90.49
  -4   6   3 1369.76   46.40
   3  -6  -3  646.04   23.10
  -3   6   3  703.63   23.30
   2  -6  -3 1588.44   52.69
  -2   6   3 1546.95   52.79
   1  -6  -3   48.00    2.60
  -1   6   3   49.40    2.80
   0  -6  -3   29.60    2.20
   0   6   3   24.30    2.20
  -1  -6  -3 1391.36   45.70
   1   6   3 1308.97   45.50
  -2  -6  -3    2.70    1.40
   2   6   3    2.80    1.20
  -3  -6  -3 1424.66   47.10
  -3  -6  -3 1349.66   46.80
   3   6   3 1384.76   46.90
  -4  -6  -3  455.65   15.50
  -4  -6  -3  424.26   15.90
   4   6   3  433.76   15.60
  -5  -6  -3 1541.35   53.89
  -5  -6  -3 1630.64   53.39
   5   6   3 1562.14   53.39
  -6  -6  -3 1426.16   48.70
   6   6   3 1442.86   48.80
  -7  -6  -3   14.00    2.70
   7   6   3   15.10    2.70
  15  -7  -3   85.19    6.20
  14  -7  -3   55.49    5.90
  13  -7  -3 1405.46   47.60
  13  -7  -3 1380.16   47.80
  12  -7  -3  133.69    6.30
  12  -7  -3  129.79    6.40
  11  -7  -3 1309.67   44.40
  11  -7  -3 1288.77   44.40
  10  -7  -3 2231.98   75.29
  10  -7  -3 2231.78   75.29
   9  -7  -3  224.78    8.70
   9  -7  -3  214.68    8.50
  -9   7   3  218.78    8.70
   8  -7  -3 1882.11   61.29
   8  -7  -3 1816.72   61.19
  -8   7   3 1738.63   61.19
   7  -7  -3   34.60    2.70
   7  -7  -3   36.20    3.00
  -7   7   3   32.70    3.10
   6  -7  -3 1408.96   47.60
  -6   7   3 1406.96   47.80
   5  -7  -3  645.74   22.10
  -5   7   3  637.44   22.30
   4  -7  -3  351.36   12.30
  -4   7   3  343.27   12.60
   3  -7  -3 1532.65   52.09
  -3   7   3 1559.94   52.29
   2  -7  -3  943.11   32.10
  -2   7   3  947.41   32.20
   1  -7  -3  112.29    4.70
  -1   7   3  114.29    4.90
   0  -7  -3 1315.17   44.00
   0   7   3 1282.07   43.90
  -1  -7  -3  189.98    7.30
   1   7   3  178.38    7.20
  -2  -7  -3 1271.67   42.20
   2   7   3 1200.48   41.90
  -3  -7  -3  361.16   13.80
  -3  -7  -3  381.16   13.40
   3   7   3  384.36   13.60
  -4  -7  -3 1463.25   49.20
   4   7   3 1439.46   49.20
  -5  -7  -3  605.34   20.60
   5   7   3  566.94   20.70
  -6  -7  -3   61.59    4.70
   6   7   3   46.00    4.90
   7   7   3   13.20    2.90
  13  -8  -3  212.98    9.10
  12  -8  -3  773.72   26.70
  12  -8  -3  741.03   26.60
  11  -8  -3 2103.39   71.19
  11  -8  -3 2108.89   71.29
  10  -8  -3  221.78    8.90
  10  -8  -3  213.28    8.70
 -10   8   3  221.08    8.90
   9  -8  -3  959.60   33.30
   9  -8  -3  998.00   33.60
  -9   8   3  954.70   33.40
   8  -8  -3   24.90    3.10
   8  -8  -3   28.60    2.70
  -8   8   3   29.00    3.30
   7  -8  -3  286.87   10.80
   7  -8  -3  312.77   11.20
  -7   8   3  287.87   11.20
   6  -8  -3 1642.94   54.19
  -6   8   3 1569.14   54.49
   5  -8  -3   51.29    2.90
  -5   8   3   51.29    3.60
   4  -8  -3 3346.47  114.29
  -4   8   3 3401.06  114.59
   3  -8  -3 1660.43   55.89
  -3   8   3 1655.83   56.09
   2  -8  -3  810.42   27.70
  -2   8   3  806.42   27.80
   1  -8  -3 1592.64   53.69
  -1   8   3 1586.14   53.69
   0  -8  -3   46.60    3.30
   0   8   3   46.30    3.40
  -1  -8  -3  820.82   28.00
   1   8   3  796.32   27.80
  -2  -8  -3  423.96   15.70
   2   8   3  441.56   15.50
  -3  -8  -3  226.98    8.70
   3   8   3  229.78    9.10
  -4  -8  -3   85.99    4.80
   4   8   3   83.69    5.20
  -5  -8  -3   18.30    2.60
   5   8   3   16.40    2.60
   6   8   3  549.85   20.00
  13  -9  -3  423.46   15.80
  12  -9  -3  870.21   30.30
  11  -9  -3  275.47   11.00
  11  -9  -3  274.37   10.70
  10  -9  -3 1353.96   43.30
  10  -9  -3 1293.47   43.00
 -10   9   3 1120.19   44.60
   9  -9  -3  443.96   16.00
   9  -9  -3  424.36   15.60
  -9   9   3  434.26   15.90
   8  -9  -3   59.59    4.20
   8  -9  -3   52.89    3.40
  -8   9   3   55.69    4.30
   7  -9  -3 1416.76   46.00
   7  -9  -3 1296.87   45.50
  -7   9   3 1314.77   45.90
   6  -9  -3    3.00    1.30
  -6   9   3    1.40    1.80
   5  -9  -3  910.81   31.30
  -5   9   3  919.71   31.70
   4  -9  -3 1877.21   64.39
  -4   9   3 1947.11   64.79
   3  -9  -3 2295.87   73.89
  -3   9   3 2098.19   74.69
   2  -9  -3 1328.17   44.30
  -2   9   3 1279.47   44.40
   1  -9  -3    0.90    1.40
  -1   9   3    1.30    1.70
   0  -9  -3  255.67   10.10
   0   9   3  272.37   10.10
   1   9   3   38.10    3.70
   2   9   3   32.10    3.80
   3   9   3  690.23   24.30
  -4  -9  -3  235.08    9.80
   4   9   3  238.38    9.90
  -5  -9  -3  672.83   22.40
   5   9   3  583.94   22.50
  13 -10  -3  235.68   10.40
  12 -10  -3   44.90    4.20
  11 -10  -3  833.82   29.50
 -11  10   3  866.91   29.80
  10 -10  -3 1245.48   45.10
  10 -10  -3 1403.76   46.40
 -10  10   3 1324.77   45.40
   9 -10  -3  474.65   17.10
   9 -10  -3  478.05   17.70
  -9  10   3  491.65   17.70
   8 -10  -3 1741.63   57.09
   8 -10  -3 1680.63   56.59
  -8  10   3 1597.84   57.19
   7 -10  -3   17.00    2.60
   7 -10  -3   19.40    2.70
  -7  10   3   16.80    3.10
   6 -10  -3  565.24   19.70
  -6  10   3  563.34   20.40
   5 -10  -3  142.69    6.00
  -5  10   3  144.79    6.90
  -4  10   3  256.57   10.20
   3 -10  -3 1029.70   36.10
  -3  10   3 1084.39   36.40
   2 -10  -3  128.39    5.90
  -2  10   3  137.99    6.30
   1 -10  -3  639.34   23.00
  -1  10   3  639.24   22.50
   0  10   3  544.15   19.40
   1  10   3   70.09    4.90
   2  10   3  981.40   34.00
  -3 -10  -3  149.09    6.60
   3  10   3  134.09    7.20
  12 -11  -3  499.15   18.90
 -12  11   3  548.45   19.30
  11 -11  -3  963.70   34.90
 -11  11   3 1063.89   35.40
  10 -11  -3  484.35   17.70
 -10  11   3  509.85   18.40
   9 -11  -3 2057.89   69.89
  -9  11   3 2084.49   70.39
   8 -11  -3   56.59    3.80
  -8  11   3   56.69    5.20
   7 -11  -3  687.03   24.60
   7 -11  -3  692.73   23.90
  -7  11   3  686.23   24.70
   6 -11  -3   86.69    4.60
  -6  11   3   94.99    5.90
   5 -11  -3   78.49    4.40
  -5  11   3   93.09    5.60
   4 -11  -3  275.07   10.90
  -4  11   3  307.17   11.60
  -3  11   3  166.48    7.60
  -2  11   3  647.44   23.00
  -1  11   3 1379.46   47.20
   0  11   3    8.00    2.40
   1  11   3 1317.77   45.20
   2  11   3   22.30    3.10
 -12  12   3  156.48    8.20
 -11  12   3  167.38    8.50
 -10  12   3 1118.29   39.00
   9 -12  -3  487.85   18.00
  -9  12   3  512.55   18.80
   8 -12  -3  316.47   11.80
  -8  12   3  305.17   12.80
   7 -12  -3  819.52   27.90
  -7  12   3  730.93   27.70
  -6  12   3   80.39    6.00
  -5  12   3  791.82   28.20
  -4  12   3  380.06   14.70
  -3  12   3  795.92   28.20
  -2  12   3 1331.27   45.80
  -1  12   3   73.09    5.50
   0  12   3  585.44   21.30
 -12  13   3   58.69    6.60
 -11  13   3  322.27   13.40
 -10  13   3  234.28   10.90
  -9  13   3  424.86   16.80
  -7  13   3   64.19    6.60
  -6  13   3 1688.53   58.09
  -5  13   3   79.89    6.80
  -4  13   3   35.40    5.50
  -3  13   3  139.79    7.70
  -2  13   3    4.10    2.80
  -1  13   3  169.78    9.50
 -11  14   3  199.18   10.40
 -10  14   3  184.98   10.00
  -9  14   3 1116.99   39.60
  -8  14   3    2.00    3.60
  -7  14   3 1097.29   38.90
  -6  14   3  169.58    9.60
  -5  14   3   38.60    6.40
  -4  14   3   76.49    7.00
  -2  15  -4   13.70    3.20
  -3  15  -4  614.24   22.40
  -4  15  -4  348.87   14.10
  -5  15  -4   36.30    4.00
  -6  15  -4  500.95   19.30
   6 -15   4  529.75   18.40
  -7  15  -4  107.09    7.00
   7 -15   4  105.49    4.90
  -8  15  -4  280.47   11.50
  -9  15  -4  606.34   21.70
   0  14  -4  467.65   17.30
  -1  14  -4   17.10    2.90
   1 -14   4   16.10    2.90
  -2  14  -4  128.99    6.90
   2 -14   4  127.49    7.00
  -3  14  -4  834.02   29.40
  -4  14  -4    2.90    2.50
   4 -14   4    3.40    1.70
  -5  14  -4  803.22   29.20
   5 -14   4  847.32   28.40
  -6  14  -4 1099.49   38.00
   6 -14   4 1088.19   37.20
  -7  14  -4  670.23   23.70
   7 -14   4  659.73   22.90
  -8  14  -4  653.63   22.90
   8 -14   4  640.24   22.20
  -9  14  -4   68.29    4.90
   2  13  -4   14.70    2.60
   1  13  -4  573.24   20.60
   0  13  -4  321.27   12.20
   0 -13   4  306.47   12.00
  -1  13  -4  171.88    7.50
   1 -13   4  157.18    7.50
  -2  13  -4 1286.57   41.90
   2 -13   4 1195.48   41.80
   2 -13   4 1171.18   41.60
  -3  13  -4   15.10    2.50
   3 -13   4   13.10    2.60
   3 -13   4   15.50    1.90
  -4  13  -4 1555.14   52.59
   4 -13   4 1538.95   52.09
   4 -13   4 1530.65   52.59
   5 -13   4  695.33   23.90
  -6  13  -4  942.61   32.70
   6 -13   4  943.81   32.10
  -7  13  -4 1373.46   45.90
   7 -13   4 1318.07   45.40
  -8  13  -4    0.90    2.00
   8 -13   4    0.60    1.10
  -9  13  -4  235.88    9.30
   9 -13   4  245.78    8.70
 -10  13  -4  129.79    5.90
   3  12  -4    4.30    2.30
   2  12  -4 1101.99   37.70
  -2 -12   4 1086.19   37.30
   1  12  -4 1059.29   36.30
  -1 -12   4 1052.89   36.10
   0  12  -4  229.18    9.10
   0 -12   4  222.38    9.00
  -1  12  -4 1005.50   33.30
   1 -12   4  965.80   33.30
   1 -12   4  930.11   33.10
  -2  12  -4  302.77   10.90
   2 -12   4  283.47   11.00
   2 -12   4  269.57   10.50
  -3  12  -4 1160.78   45.20
   3 -12   4 1336.07   43.60
   3 -12   4 1360.06   44.00
  -4  12  -4   64.09    4.40
   4 -12   4   71.79    4.60
   4 -12   4   72.69    3.50
  -5  12  -4   87.19    5.10
   5 -12   4   92.39    4.00
   5 -12   4   87.09    5.20
  -6  12  -4  990.10   33.00
   6 -12   4  928.71   33.40
   6 -12   4  959.40   32.50
  -7  12  -4  159.98    6.70
   7 -12   4  153.68    5.90
  -8  12  -4  752.02   26.00
   8 -12   4  757.02   25.60
  -9  12  -4 1236.88   42.40
   9 -12   4 1266.37   42.10
   5  11  -4  451.35   16.90
   4  11  -4  117.19    6.20
   3  11  -4 1623.64   55.09
   2  11  -4  611.34   21.60
  -2 -11   4  612.54   21.30
   1  11  -4  147.09    6.30
  -1 -11   4  136.09    6.00
  -1 -11   4  132.79    6.30
   0  11  -4 1325.57   45.00
   0 -11   4 1312.87   45.00
   0 -11   4 1332.97   44.90
  -1  11  -4    4.60    1.60
   1 -11   4    1.30    1.70
   1 -11   4    3.60    1.30
  -2  11  -4  845.42   29.10
   2 -11   4  857.51   29.20
   2 -11   4  833.62   28.90
  -3  11  -4   24.50    3.00
   3 -11   4   24.30    2.30
   3 -11   4   20.80    3.20
  -4  11  -4  119.79    5.80
   4 -11   4  134.59    6.00
   4 -11   4  136.19    5.20
  -5  11  -4 1369.26   47.40
   5 -11   4 1417.56   47.60
   5 -11   4 1405.66   47.00
  -6  11  -4  723.03   24.10
   6 -11   4  668.23   24.40
   6 -11   4  698.23   23.70
  -7  11  -4 1346.37   44.30
   7 -11   4 1272.67   44.80
  -8  11  -4 1636.74   55.99
   8 -11   4 1693.03   55.79
  -9  11  -4  485.65   17.10
   9 -11   4  494.05   16.70
  10 -11   4  362.66   12.50
   6  10  -4  799.92   28.00
   5  10  -4    1.60    2.00
   4  10  -4  764.32   26.40
  -4 -10   4  754.42   25.80
   3  10  -4  485.45   17.40
  -3 -10   4  492.95   17.00
   2  10  -4  274.67   10.00
  -2 -10   4  256.97   10.10
   1  10  -4 1159.48   39.90
  -1 -10   4 1183.38   40.00
  -1 -10   4 1181.28   39.80
   0  10  -4  622.14   23.40
   0 -10   4  688.83   23.10
   0 -10   4  691.93   23.10
  -1  10  -4  452.45   15.40
   1 -10   4  431.36   15.40
   1 -10   4  420.36   15.20
  -2  10  -4 1548.05   52.79
   2 -10   4 1603.84   52.99
   2 -10   4 1542.55   52.69
  -3  10  -4   84.69    4.10
   3 -10   4   83.99    3.60
   3 -10   4   79.69    4.30
  -4  10  -4 1158.38   41.70
   4 -10   4 1267.07   41.40
   4 -10   4 1262.07   41.90
  -5  10  -4   84.89    4.10
   5 -10   4   80.69    3.40
   5 -10   4   75.09    4.40
  -6  10  -4  798.62   27.00
   6 -10   4  786.82   27.40
   6 -10   4  781.02   26.60
  -7  10  -4 1165.68   39.90
  -7  10  -4 1208.58   40.70
   7 -10   4 1179.88   39.60
   7 -10   4 1170.88   40.40
  -8  10  -4  184.48    8.10
  -8  10  -4  179.48    6.80
   8 -10   4  167.88    7.60
   8 -10   4  181.48    6.40
  -9  10  -4  811.12   28.00
   9 -10   4  766.62   26.60
 -10  10  -4  391.06   15.20
  10 -10   4  392.56   13.40
 -11  10  -4   21.20    3.60
 -12  10  -4  544.05   20.60
   7   9  -4 1134.29   39.10
   6   9  -4    3.50    2.20
   5   9  -4  602.04   21.30
   4   9  -4  504.75   17.90
  -4  -9   4  506.35   17.30
   3   9  -4  152.08    6.30
  -3  -9   4  152.68    5.80
  -3  -9   4  140.99    6.50
   2   9  -4 1147.49   39.80
  -2  -9   4 1186.68   39.60
  -2  -9   4 1181.48   39.90
   1   9  -4 1217.98   41.00
  -1  -9   4 1188.28   41.00
  -1  -9   4 1224.08   40.90
   0   9  -4  803.92   27.10
   0  -9   4  764.92   27.10
   0  -9   4  805.12   27.10
  -1   9  -4 3597.34  118.09
   1  -9   4 3379.26  116.89
   1  -9   4 3438.06  117.39
  -2   9  -4  137.69    5.30
   2  -9   4  128.79    5.10
   2  -9   4  127.99    5.50
  -3   9  -4 1509.75   52.99
   3  -9   4 1620.94   53.19
   3  -9   4 1593.64   52.79
  -4   9  -4   15.30    2.10
  -4   9  -4   13.60    2.20
   4  -9   4   18.40    2.40
   4  -9   4   19.20    1.50
  -5   9  -4  238.38    9.30
  -5   9  -4  247.78    8.70
   5  -9   4  228.18    9.00
   5  -9   4  238.68    8.30
  -6   9  -4  645.34   22.00
  -6   9  -4  622.44   24.10
   6  -9   4  658.83   21.70
   6  -9   4  646.34   22.50
  -7   9  -4  117.99    4.50
  -7   9  -4  112.79    5.80
   7  -9   4  112.89    4.20
   7  -9   4  108.49    5.20
  -8   9  -4  985.50   33.70
   8  -9   4  954.80   32.50
  -9   9  -4 1793.12   58.19
   9  -9   4 1681.83   56.89
   9  -9   4 1632.44   57.69
 -10   9  -4  127.29    6.90
  10  -9   4  114.49    4.50
 -11   9  -4 1561.94   52.89
  11  -9   4 1503.15   51.49
  11  -9   4 1540.85   51.49
 -12   9  -4    1.70    3.30
 -13   9  -4  532.55   20.30
   8   8  -4  864.71   30.20
   7   8  -4  288.77   11.20
   6   8  -4  221.88    8.90
   5   8  -4  468.85   16.70
   4   8  -4  210.18    8.10
  -4  -8   4  213.98    7.40
  -4  -8   4  197.28    8.30
   3   8  -4 1160.48   39.60
  -3  -8   4 1184.58   39.30
  -3  -8   4 1158.08   39.80
   2   8  -4  366.46   13.00
  -2  -8   4  369.26   12.70
  -2  -8   4  358.16   13.00
   1   8  -4  906.21   31.80
  -1  -8   4  964.00   31.70
  -1  -8   4  936.81   31.80
   0   8  -4 3337.67  108.99
   0  -8   4 3257.07  107.89
   0  -8   4 2985.40  106.69
  -1   8  -4   45.00    2.50
   1  -8   4   39.00    2.50
   1  -8   4   38.90    3.00
  -2   8  -4 2091.99   66.09
   2  -8   4 1869.31   65.09
   2  -8   4 1873.61   65.29
  -3   8  -4  548.05   18.90
  -3   8  -4  523.65   18.50
   3  -8   4  548.05   18.40
   3  -8   4  541.55   18.80
  -4   8  -4  182.48    7.20
  -4   8  -4  175.48    6.70
   4  -8   4  183.48    6.40
   4  -8   4  182.28    7.00
  -5   8  -4  639.04   21.90
  -5   8  -4  656.13   22.50
   5  -8   4  646.64   22.30
   5  -8   4  633.24   21.70
  -6   8  -4  718.03   24.70
  -6   8  -4  754.72   25.50
   6  -8   4  716.33   24.60
   6  -8   4  739.23   25.30
   7  -8   4 2350.76   77.09
   7  -8   4 2264.87   77.69
  -8   8  -4  365.76   13.80
   8  -8   4  359.86   13.40
   8  -8   4  372.26   12.50
  -9   8  -4   82.29    5.20
   9  -8   4   79.09    3.20
   9  -8   4   72.79    4.40
 -10   8  -4 1849.81   62.19
  10  -8   4 1810.62   61.09
  10  -8   4 1815.22   61.09
 -11   8  -4    2.70    2.80
  11  -8   4    3.80    1.20
  11  -8   4    4.40    1.20
 -12   8  -4  459.15   17.50
  12  -8   4  454.75   15.80
 -13   8  -4   80.89    7.00
   9   7  -4  237.58   10.10
   8   7  -4  490.45   17.80
   7   7  -4  164.78    7.20
   6   7  -4 1573.94   53.29
   5   7  -4  313.77   11.30
  -5  -7   4  299.67   11.60
   4   7  -4 1753.42   60.59
  -4  -7   4 1783.52   60.09
  -4  -7   4 1858.31   60.79
   3   7  -4  127.39    5.20
  -3  -7   4  122.49    5.30
  -3  -7   4  127.99    4.70
   2   7  -4  940.21   33.00
  -2  -7   4  984.90   33.20
  -2  -7   4  999.90   32.90
   1   7  -4  492.25   17.20
  -1  -7   4  502.45   17.20
  -1  -7   4  506.35   17.30
   0   7  -4   74.99    3.20
   0  -7   4   70.79    3.20
   0  -7   4   69.99    3.20
  -1   7  -4 1117.79   39.80
  -1   7  -4 1278.57   40.40
   1  -7   4 1172.68   39.80
   1  -7   4 1145.29   39.60
  -2   7  -4 1260.07   42.60
  -2   7  -4 1218.98   42.90
   2  -7   4 1244.28   42.80
   2  -7   4 1354.86   43.10
  -3   7  -4  429.66   14.80
  -3   7  -4  386.16   14.30
   3  -7   4  425.96   14.20
   3  -7   4  432.86   14.70
  -4   7  -4 2740.83   87.09
  -4   7  -4 2424.76   86.39
   4  -7   4 2647.54   86.59
   4  -7   4 2478.55   86.29
  -5   7  -4  645.24   22.20
  -5   7  -4  630.64   21.60
   5  -7   4  647.04   22.00
   5  -7   4  629.74   21.40
  -6   7  -4 1234.18   41.80
   6  -7   4 1254.07   41.70
   6  -7   4 1192.48   41.00
  -7   7  -4  535.85   18.80
   7  -7   4  523.45   18.50
   7  -7   4  524.65   17.80
  -8   7  -4  220.18    9.00
   8  -7   4  227.98    7.90
   8  -7   4  222.48    7.80
   8  -7   4  229.38    8.70
  -9   7  -4  381.46   14.20
   9  -7   4  378.86   13.00
   9  -7   4  378.16   13.80
   9  -7   4  376.76   13.00
 -10   7  -4  151.48    7.40
  10  -7   4  157.78    5.80
  10  -7   4  149.69    6.70
  10  -7   4  158.48    5.90
 -11   7  -4  242.68   10.30
  11  -7   4  232.28    8.50
  11  -7   4  237.48    8.70
 -12   7  -4  885.41   31.30
  12  -7   4  883.21   29.90
 -13   7  -4   45.00    6.20
  10   6  -4  299.77   12.10
   9   6  -4  477.35   17.50
   8   6  -4  358.06   13.40
   7   6  -4 1233.78   42.10
   6   6  -4  425.16   14.90
  -6  -6   4  404.66   15.10
   5   6  -4 1319.47   45.70
  -5  -6   4 1380.26   45.90
   4   6  -4  549.74   19.30
  -4  -6   4  559.94   19.40
  -4  -6   4  560.14   18.70
   3   6  -4  274.77   10.00
  -3  -6   4  277.37   10.10
  -3  -6   4  287.57    9.60
   2   6  -4  403.56   14.30
  -2  -6   4  418.86   14.10
  -2  -6   4  408.76   14.40
   1   6  -4  972.00   33.80
  -1  -6   4 1021.60   33.80
  -1  -6   4 1006.20   33.70
   0   6  -4 1239.98   39.60
   0   6  -4 1091.79   38.90
   0  -6   4 1131.29   38.90
   0  -6   4 1162.08   38.90
  -1   6  -4 2356.36   76.69
  -1   6  -4 2248.38   77.29
   1  -6   4 2109.49   75.69
   1  -6   4 2336.17   76.49
  -2   6  -4  388.96   13.50
  -2   6  -4  387.26   13.80
   2  -6   4  392.16   13.40
   2  -6   4  401.66   13.70
  -3   6  -4 4048.89  137.39
  -3   6  -4 3795.02  135.79
   3  -6   4 4072.49  135.49
   3  -6   4 4238.68  137.69
  -4   6  -4 1845.42   58.59
  -4   6  -4 1643.84   58.39
   4  -6   4 1651.33   58.19
   4  -6   4 1787.72   58.09
  -5   6  -4  797.82   26.90
   5  -6   4  780.72   26.80
   5  -6   4  768.62   26.10
  -6   6  -4 1035.40   34.80
   6  -6   4  996.80   33.90
  -7   6  -4   33.20    3.20
   7  -6   4   36.60    2.70
   7  -6   4   35.50    1.70
   7  -6   4   32.50    1.70
  -8   6  -4  119.69    5.70
   8  -6   4  115.49    5.20
   8  -6   4  115.49    4.40
   8  -6   4  115.89    4.30
  -9   6  -4 1042.60   36.10
   9  -6   4 1025.60   35.10
   9  -6   4 1063.19   35.70
   9  -6   4 1046.60   35.20
 -10   6  -4  416.26   15.60
  10  -6   4  406.76   15.00
  10  -6   4  413.16   14.30
  10  -6   4  428.16   14.50
 -11   6  -4 1852.31   63.39
  11  -6   4 1841.32   62.29
  11  -6   4 1883.91   62.49
 -12   6  -4   -0.10    2.90
  12  -6   4    0.30    1.40
 -13   6  -4  827.42   29.70
  10   5  -4  280.57   11.20
   9   5  -4  847.42   29.40
   8   5  -4 1712.83   57.99
   7   5  -4   33.20    3.20
   6   5  -4 1270.77   43.90
  -6  -5   4 1321.97   44.20
   5   5  -4 2659.13   86.39
  -5  -5   4 2430.46   85.49
   4   5  -4   69.49    3.30
  -4  -5   4   65.19    3.40
   3   5  -4 1668.33   56.49
  -3  -5   4 1728.83   55.59
  -3  -5   4 1555.94   55.49
   2   5  -4  151.58    6.00
  -2  -5   4  158.88    6.10
  -2  -5   4  179.08    5.80
   1   5  -4  376.76   13.20
   1   5  -4  366.46   13.20
  -1  -5   4  397.36   13.10
  -1  -5   4  392.26   13.20
   0   5  -4 2220.38   75.89
   0   5  -4 2198.08   74.99
   0  -5   4 2232.38   75.49
   0  -5   4 2218.28   74.89
  -1   5  -4   38.70    1.80
  -1   5  -4   37.30    2.10
   1  -5   4   38.60    2.00
   1  -5   4   36.50    1.70
  -2   5  -4 2946.61   96.89
  -2   5  -4 2732.53   95.39
   2  -5   4 2785.62   95.29
   2  -5   4 2877.51   96.39
  -3   5  -4  193.68    7.10
  -3   5  -4  182.98    6.60
   3  -5   4  189.28    7.00
   3  -5   4  193.78    6.50
  -4   5  -4  949.31   32.30
  -5   5  -4 2648.14   90.39
   5  -5   4 2638.04   89.59
  -6   5  -4    3.30    1.50
   6  -5   4    3.20    1.10
   6  -5   4    2.50    0.60
   6  -5   4    5.40    0.90
  -7   5  -4  530.35   18.60
   7  -5   4  522.95   17.90
   7  -5   4  535.95   18.40
   7  -5   4  517.25   17.80
  -8   5  -4 1517.15   51.39
   8  -5   4 1522.75   51.09
   8  -5   4 1501.25   50.49
   8  -5   4 1503.35   50.69
  -9   5  -4  113.59    5.90
   9  -5   4  109.59    5.10
   9  -5   4  114.79    4.40
   9  -5   4  112.49    4.60
 -10   5  -4 1566.34   53.29
  10  -5   4 1557.94   52.89
  10  -5   4 1570.04   52.59
  10  -5   4 1545.25   52.29
 -11   5  -4   -0.30    2.60
  11  -5   4    4.30    1.40
  11  -5   4    1.80    1.90
  11  -5   4    3.80    1.50
 -12   5  -4 1563.14   53.09
  12  -5   4 1528.15   51.89
  11   4  -4  311.47   12.30
  10   4  -4  294.07   11.40
   9   4  -4  393.26   14.40
   8   4  -4    8.00    1.80
   7   4  -4   76.79    4.10
   6   4  -4 2851.81   96.49
   5   4  -4   72.79    3.50
  -5  -4   4   70.79    3.60
   4   4  -4 4637.94  155.48
  -4  -4   4 4510.95  154.48
   3   4  -4  792.62   28.10
  -3  -4   4  877.31   28.00
  -3  -4   4  817.62   28.20
   2   4  -4 2059.89   70.29
   2   4  -4 2060.19   71.09
  -2  -4   4 2131.29   71.29
  -2  -4   4 2082.39   70.19
   1   4  -4 2185.98   75.49
   1   4  -4 2232.48   75.49
  -1  -4   4 2241.08   75.79
  -1  -4   4 2256.67   75.59
   0   4  -4  125.49    4.70
   0   4  -4  120.09    4.60
   0  -4   4  120.59    4.60
   0  -4   4  133.09    4.70
  -1   4  -4  311.07   10.60
  -1   4  -4  308.77   10.80
   1  -4   4  307.97   10.60
   1  -4   4  311.57   10.80
  -2   4  -4  251.97    8.90
  -2   4  -4  267.47    9.40
   2  -4   4  266.97    8.90
   2  -4   4  273.17    9.30
   3  -4   4  410.06   14.20
  -4   4  -4 5468.45  185.18
   4  -4   4 5442.76  183.88
  -5   4  -4  259.97    9.70
   5  -4   4  263.67    9.00
   5  -4   4  268.17    9.50
  -6   4  -4 3359.16  116.39
   6  -4   4 3492.45  114.19
   6  -4   4 3318.57  114.49
   6  -4   4 3463.75  115.39
  -7   4  -4 1614.84   54.79
   7  -4   4 1661.63   54.59
   7  -4   4 1589.94   54.29
   7  -4   4 1613.34   54.09
  -8   4  -4  331.57   12.40
   8  -4   4  329.27   11.70
   8  -4   4  328.27   11.50
   8  -4   4  342.27   12.00
   9  -4   4  208.78    7.70
   9  -4   4  206.28    7.40
   9  -4   4  199.68    7.90
 -10   4  -4   40.00    4.60
  10  -4   4   41.30    3.30
  10  -4   4   43.20    2.70
  10  -4   4   38.50    3.10
 -11   4  -4  372.16   13.90
  11  -4   4  365.86   12.70
  11  -4   4  346.37   13.10
  11  -4   4  350.66   13.20
 -12   4  -4  151.78    8.20
  12  -4   4  149.09    6.10
  12   3  -4  362.86   14.00
  11   3  -4   55.39    4.80
  10   3  -4  448.96   16.30
   9   3  -4  209.98    8.40
   8   3  -4  316.07   11.60
   7   3  -4 1446.36   48.90
   6   3  -4   34.90    2.60
   5   3  -4 1949.60   65.49
   4   3  -4  972.30   32.90
   3   3  -4  478.75   15.80
   3   3  -4  470.75   16.10
  -3  -3   4  456.15   15.80
   2   3  -4 3420.86  114.89
   2   3  -4 3378.46  113.79
  -2  -3   4 3416.86  113.79
  -2  -3   4 3326.27  114.59
   1   3  -4   23.10    1.30
   1   3  -4   22.00    1.40
  -1  -3   4   27.90    1.30
   0   3  -4  199.88    7.00
   0   3  -4  203.28    7.20
   0  -3   4  202.58    7.10
  -1   3  -4 2178.58   72.79
  -1   3  -4 2077.59   73.49
   1  -3   4 2253.37   73.89
  -2   3  -4    7.90    1.30
   2  -3   4    7.30    1.10
  -3   3  -4 4374.86  154.08
   3  -3   4 4737.83  154.28
  -4   3  -4 1283.97   46.20
   4  -3   4 1453.85   46.00
   4  -3   4 1345.27   46.10
   4  -3   4 1399.66   45.80
  -5   3  -4 3786.72  128.49
   5  -3   4 3801.42  128.29
   5  -3   4 3715.53  125.99
  -6   3  -4  898.81   31.00
   6  -3   4  900.01   30.40
   6  -3   4  918.91   30.80
  -7   3  -4  360.86   13.10
   7  -3   4  365.26   12.80
   7  -3   4  356.46   12.40
  -8   3  -4  545.85   19.60
   8  -3   4  556.74   18.90
   8  -3   4  566.84   19.30
  -9   3  -4  280.47   10.80
   9  -3   4  281.07    9.90
   9  -3   4  272.87   10.20
 -10   3  -4   21.40    2.80
  10  -3   4   17.90    2.80
  10  -3   4   18.00    2.50
 -11   3  -4  431.06   16.00
  11  -3   4  408.26   15.30
  11  -3   4  431.36   14.90
 -12   3  -4   20.40    3.70
  12   2  -4  434.86   16.20
  11   2  -4 1440.26   49.10
  10   2  -4 1162.28   39.80
   9   2  -4  612.24   21.40
   8   2  -4  987.20   34.10
   7   2  -4   93.09    4.40
   6   2  -4  403.76   14.20
   5   2  -4  847.82   28.80
   4   2  -4 1027.40   34.70
   3   2  -4 3057.29  101.69
   3   2  -4 3013.10  102.89
   2   2  -4 4551.64  150.08
   2   2  -4 4525.75  151.08
  -2  -2   4 4355.06  150.08
   1   2  -4 1030.50   35.10
  -1  -2   4 1014.70   34.70
  -1   2  -4 1015.80   33.20
  -1   2  -4  988.70   32.40
   1  -2   4  871.01   32.20
  -2   2  -4 4569.54  152.38
   2  -2   4 4435.26  151.88
  -3   2  -4  201.18    6.80
  -3   2  -4  202.08    7.20
   3  -2   4  190.78    6.70
   3  -2   4  202.38    7.10
  -4   2  -4  717.93   24.60
   4  -2   4  742.43   24.50
   4  -2   4  700.03   24.10
  -5   2  -4 1765.02   61.09
   5  -2   4 1866.91   61.09
  -6   2  -4   24.00    2.50
   6  -2   4   20.20    1.60
   6  -2   4   21.70    1.90
  -7   2  -4 1372.16   47.00
   7  -2   4 1378.06   46.50
   7  -2   4 1409.76   46.80
  -8   2  -4  912.81   31.40
   8  -2   4  921.81   31.20
   8  -2   4  905.01   30.80
  -9   2  -4   13.50    2.40
   9  -2   4   10.90    1.70
   9  -2   4    9.80    1.50
 -10   2  -4 1538.05   51.39
  10  -2   4 1475.55   50.99
  10  -2   4 1505.05   50.69
 -11   2  -4   29.00    5.00
  11  -2   4   26.00    3.40
  11  -2   4   29.50    3.40
 -12   2  -4  616.44   22.40
  12  -2   4  610.44   21.30
  13   1  -4    3.80    2.60
  12   1  -4 1613.34   54.89
  11   1  -4  914.21   31.70
  10   1  -4  478.05   17.10
   9   1  -4  604.54   21.10
   8   1  -4   66.69    3.80
   7   1  -4  872.71   29.80
   6   1  -4 2677.33   91.69
   5   1  -4  130.89    5.10
   5   1  -4  132.09    4.50
   3   1  -4   13.50    0.90
   2   1  -4 3565.14  119.89
   1   1  -4 4660.63  162.38
   1   1  -4 5082.79  162.58
  -1  -1   4 4762.32  162.48
   0   1  -4 1046.10   35.70
   0   1  -4 1043.70   35.20
   0  -1   4 1020.60   35.30
   0  -1   4 1046.50   35.60
  -1   1  -4 1243.08   42.60
  -1   1  -4 1279.77   43.30
   1  -1   4 1269.97   42.90
  -2   1  -4  161.78    6.10
  -2   1  -4  174.58    5.80
   2  -1   4  169.18    6.10
   2  -1   4  166.68    5.80
  -3   1  -4   48.20    2.50
  -3   1  -4   54.19    2.00
   3  -1   4   50.09    2.00
   3  -1   4   50.19    2.30
  -4   1  -4 1244.28   42.80
  -4   1  -4 1277.07   42.50
   4  -1   4 1260.87   42.70
   4  -1   4 1287.07   42.70
  -5   1  -4  585.24   19.90
  -5   1  -4  577.84   19.60
   5  -1   4  559.64   19.40
  -6   1  -4 4854.01  161.78
  -6   1  -4 4916.31  162.78
   6  -1   4 4634.54  161.28
   6  -1   4 4769.42  160.88
  -7   1  -4 1586.34   53.59
   7  -1   4 1575.14   53.09
   7  -1   4 1591.34   53.39
  -8   1  -4 1256.27   43.20
   8  -1   4 1262.87   42.70
   8  -1   4 1284.27   43.00
  -9   1  -4 1166.08   39.30
   9  -1   4 1124.79   39.00
   9  -1   4 1144.09   38.70
 -10   1  -4    4.10    2.70
  10  -1   4    0.80    1.60
  10  -1   4    2.40    1.70
 -11   1  -4   88.19    6.50
  11  -1   4   80.49    4.80
  11  -1   4   92.49    4.70
  13   0  -4  538.25   19.60
  12   0  -4  329.87   12.40
  12   0  -4  310.57   11.10
  11   0  -4    2.70    2.00
  11   0  -4    3.40    0.80
  10   0  -4 1657.83   55.79
  10   0  -4 1639.44   55.09
   9   0  -4 1137.69   38.50
   9   0  -4 1123.59   37.90
   8   0  -4  925.21   31.40
   8   0  -4  912.71   30.80
   7   0  -4 1792.12   63.99
   7   0  -4 2013.90   64.19
   6   0  -4  140.79    5.10
   3   0  -4 2193.28   74.69
   2   0  -4  166.88    6.10
  -2   0   4  162.98    6.20
   1   0  -4   21.90    1.50
   1   0  -4   28.60    1.60
  -1   0   4   23.30    1.60
   0   0  -4 8424.66  280.97
   0   0  -4 8262.37  280.17
   0   0   4 8428.06  280.37
  -1   0  -4 1091.19   35.50
  -1   0  -4  948.41   35.30
   1   0   4 1139.69   35.80
   1   0   4 1016.40   35.30
  -2   0  -4  423.36   14.00
  -2   0  -4  396.36   14.20
   2   0   4  427.96   14.20
   2   0   4  402.26   14.00
  -3   0  -4 4252.87  151.28
  -3   0  -4 4523.45  150.18
   3   0   4 4365.66  149.79
   3   0   4 4709.93  150.88
  -4   0  -4  509.85   18.00
  -4   0  -4  532.15   17.70
   4   0   4  508.05   17.60
   4   0   4  522.75   17.90
  -5   0  -4 2779.02   90.49
  -5   0  -4 2743.23   89.49
   5   0   4 2666.23   89.39
   5   0   4 2405.26   90.09
  -6   0  -4   53.39    3.50
  -6   0  -4   60.99    3.20
   6   0   4   53.09    3.10
   6   0   4   62.69    2.90
  -7   0  -4 1184.28   40.00
  -7   0  -4 1175.08   40.10
   7   0   4 1188.38   39.90
   7   0   4 1155.28   39.60
  -8   0  -4 1069.89   36.10
   8   0   4 1048.50   35.80
   8   0   4 1035.10   35.60
  -9   0  -4   47.20    4.30
   9   0   4   43.50    3.20
   9   0   4   42.20    3.40
 -10   0  -4   70.79    5.50
  10   0   4   71.99    4.30
 -11   0  -4  247.28   10.60
  11   0   4  247.78    9.60
  14  -1  -4   32.20    5.20
  13  -1  -4  168.08    7.90
  12  -1  -4    1.10    2.10
  12  -1  -4    0.70    1.00
  11  -1  -4 1458.35   49.70
  11  -1  -4 1507.25   50.39
  10  -1  -4  884.11   30.80
  10  -1  -4  895.01   30.00
   9  -1  -4 1288.07   43.20
   9  -1  -4 1287.77   43.80
   8  -1  -4 2765.82   93.29
   7  -1  -4   77.59    3.10
   6  -1  -4 1033.00   34.60
   6  -1  -4 1027.00   35.00
   5  -1  -4   63.79    2.90
   4  -1  -4  187.38    6.80
   3  -1  -4  985.50   32.50
  -3   1   4  937.21   32.50
   2  -1  -4 4974.70  162.88
  -2   1   4 4683.13  162.88
   1  -1  -4 9211.38  300.87
  -1   1   4 8738.33  300.87
   0  -1  -4 9882.01  328.67
   0  -1  -4 9531.25  327.97
   0   1   4 9999.00  328.37
  -1  -1  -4  630.74   21.40
  -1  -1  -4  633.14   21.30
   1   1   4  624.74   21.30
  -2  -1  -4 3394.16  112.29
  -2  -1  -4 3284.97  113.19
   2   1   4 3310.97  112.19
  -3  -1  -4    4.50    1.10
  -3  -1  -4    2.50    0.80
   3   1   4    2.40    0.90
   3   1   4    2.70    0.70
  -4  -1  -4  825.12   29.60
  -4  -1  -4  922.31   29.50
   4   1   4  872.21   29.50
   4   1   4  862.01   29.30
  -5  -1  -4   16.30    2.30
   5   1   4   19.50    2.00
   5   1   4   22.30    1.90
  -6  -1  -4  225.28    8.80
  -6  -1  -4  231.78    8.70
   6   1   4  234.68    8.40
  -7  -1  -4  674.53   23.70
  -7  -1  -4  685.03   23.70
   7   1   4  683.33   23.30
  -8  -1  -4  521.45   19.10
  -8  -1  -4  543.55   19.10
   8   1   4  539.75   18.60
  -9  -1  -4  661.03   23.30
   9   1   4  655.03   22.80
 -10  -1  -4 1224.88   41.50
  10   1   4 1182.48   40.90
  14  -2  -4  816.92   28.80
  13  -2  -4   49.90    4.80
  13  -2  -4   46.80    2.80
  12  -2  -4  766.22   26.70
  12  -2  -4  822.12   26.40
  12  -2  -4  668.43   26.30
  11  -2  -4  346.97   12.80
  11  -2  -4  346.27   12.10
  11  -2  -4  335.17   13.00
  10  -2  -4 1284.77   43.30
  10  -2  -4 1261.27   42.80
  10  -2  -4 1268.67   43.50
   9  -2  -4 1900.01   64.39
   9  -2  -4 1913.11   63.89
   8  -2  -4  283.67   10.10
   8  -2  -4  292.27   10.60
   7  -2  -4 2582.64   90.79
   7  -2  -4 2836.12   91.69
   6  -2  -4 2417.36   81.99
   4  -2  -4 2849.01   97.09
  -4   2   4 2825.42   97.09
   3  -2  -4  694.63   23.50
  -3   2   4  688.53   23.60
   2  -2  -4 3973.30  131.89
  -2   2   4 3810.52  132.19
   1  -2  -4  622.14   21.20
  -1   2   4  628.54   21.30
   0  -2  -4 2097.09   72.19
   0   2   4 2173.08   72.69
  -1  -2  -4 1641.04   55.89
  -1  -2  -4 1665.73   55.39
   1   2   4 1606.94   55.69
  -2  -2  -4    8.40    1.50
  -2  -2  -4    4.30    0.90
   2   2   4    4.10    0.80
  -3  -2  -4  641.64   21.80
  -3  -2  -4  646.74   21.70
   3   2   4  615.64   21.50
  -4  -2  -4 1261.47   41.30
  -4  -2  -4 1160.08   41.20
   4   2   4 1238.28   41.10
  -5  -2  -4  556.04   20.60
  -5  -2  -4  622.54   20.60
   5   2   4  602.74   20.30
  -6  -2  -4  912.11   30.50
  -6  -2  -4  844.62   30.40
   6   2   4  902.71   30.10
  -7  -2  -4  157.58    7.00
  -7  -2  -4  161.78    7.10
   7   2   4  168.48    6.60
  -8  -2  -4  612.24   23.20
  -8  -2  -4  665.83   23.10
   8   2   4  678.63   22.60
  -9  -2  -4 1249.77   43.40
  -9  -2  -4 1168.78   43.00
   9   2   4 1310.47   42.30
 -10  -2  -4  112.89    6.70
  10   2   4  100.59    5.70
  14  -3  -4    1.00    2.50
  13  -3  -4  932.91   31.80
  13  -3  -4  890.31   31.00
  12  -3  -4  168.88    7.40
  12  -3  -4  162.58    7.60
  12  -3  -4  165.38    6.50
  11  -3  -4  195.68    8.30
  11  -3  -4  199.78    7.50
  11  -3  -4  196.78    8.20
  10  -3  -4  756.02   26.40
   9  -3  -4  342.87   12.40
   9  -3  -4  333.87   12.00
   8  -3  -4 1645.64   55.79
   8  -3  -4 1658.43   55.59
   7  -3  -4 4251.27  140.69
   7  -3  -4 3994.50  138.79
   6  -3  -4  242.08    8.90
   5  -3  -4 4063.59  139.79
  -5   3   4 4193.78  140.69
   4  -3  -4    5.10    0.90
  -4   3   4    4.50    1.00
   3  -3  -4 2218.98   75.69
   2  -3  -4 1082.89   36.30
  -2   3   4 1071.69   36.40
   1  -3  -4 1078.69   37.50
  -1   3   4 1149.39   37.60
   0  -3  -4 2854.81   96.59
   0   3   4 2838.92   96.79
  -1  -3  -4  923.81   30.70
  -1  -3  -4  901.11   30.60
   1   3   4  893.41   30.60
  -2  -3  -4  282.77    9.80
  -2  -3  -4  273.07    9.80
   2   3   4  266.17    9.60
  -3  -3  -4 4567.94  149.99
  -3  -3  -4 4410.96  149.88
   3   3   4 4326.27  149.29
  -4  -3  -4   14.10    2.20
   4   3   4   10.50    1.30
  -5  -3  -4  993.10   35.00
  -5  -3  -4 1074.69   35.20
   5   3   4 1012.90   34.80
  -6  -3  -4   74.99    4.50
  -6  -3  -4   89.39    4.80
   6   3   4   90.79    4.30
  -7  -3  -4  472.85   17.40
  -7  -3  -4  474.05   17.60
   7   3   4  505.45   17.10
  -8  -3  -4  164.68    8.30
  -8  -3  -4  175.48    7.90
   8   3   4  181.48    7.40
  -9  -3  -4    8.00    3.90
   9   3   4    9.20    2.30
  14  -4  -4  542.45   19.80
  13  -4  -4  505.15   18.10
  13  -4  -4  529.05   18.80
  12  -4  -4   19.60    2.60
  12  -4  -4   20.90    2.60
  11  -4  -4  640.14   22.80
  11  -4  -4  648.34   22.30
  10  -4  -4  251.17    9.70
  10  -4  -4  246.88    9.20
   9  -4  -4 1572.04   53.19
   9  -4  -4 1564.64   52.89
   8  -4  -4 2788.02   95.99
   8  -4  -4 2789.42   93.59
   7  -4  -4  253.27    9.20
  -7   4   4  246.08    9.30
   6  -4  -4 3853.31  128.19
  -6   4   4 3653.43  127.69
  -5   4   4  263.47    9.60
   4  -4  -4  726.63   23.90
  -4   4   4  666.83   23.90
   3  -4  -4  690.43   23.40
  -3   4   4  676.73   23.50
   2  -4  -4   53.29    2.60
   1  -4  -4 2444.96   84.89
  -1   4   4 2590.34   85.89
   0  -4  -4 1440.46   48.20
   0   4   4 1427.96   48.20
  -1  -4  -4  961.80   31.80
   1   4   4  912.71   31.70
  -2  -4  -4 3974.00  134.39
  -2  -4  -4 4051.29  133.79
   2   4   4 3834.82  133.59
  -3  -4  -4  304.37   10.80
  -3  -4  -4  297.87   10.90
   3   4   4  291.57   10.60
  -4  -4  -4  882.51   30.10
  -4  -4  -4  898.51   30.00
   4   4   4  845.82   29.80
  -5  -4  -4  622.04   22.20
  -5  -4  -4  642.34   22.00
  -6  -4  -4  311.97   12.20
  -6  -4  -4  307.67   11.80
   6   4   4  332.87   11.70
  -7  -4  -4   15.00    2.70
  -7  -4  -4   20.90    3.50
   7   4   4   19.40    2.30
  -8  -4  -4  169.78    8.20
   8   4   4  188.78    7.90
  15  -5  -4  660.43   23.80
  14  -5  -4  821.02   28.30
  14  -5  -4  784.42   27.80
  13  -5  -4   54.89    4.90
  13  -5  -4   50.89    3.80
  12  -5  -4 1861.61   61.39
  12  -5  -4 1768.42   61.69
  11  -5  -4  168.58    6.80
  11  -5  -4  161.18    7.20
  10  -5  -4  503.75   17.70
  10  -5  -4  499.65   17.90
   9  -5  -4  901.71   30.80
   9  -5  -4  896.41   30.90
   8  -5  -4  569.54   19.60
   8  -5  -4  578.34   19.70
  -8   5   4  542.35   19.70
   7  -5  -4 1366.06   46.00
  -7   5   4 1349.77   46.10
   6  -5  -4 1996.50   65.99
  -6   5   4 1925.61   66.09
   5  -5  -4  182.78    7.40
  -5   5   4  187.58    7.20
   4  -5  -4 2975.40   95.39
  -4   5   4 2629.64   93.89
  -3   5   4   68.19    3.40
  -2   5   4 1000.50   34.00
   1  -5  -4 1476.95   49.80
  -1   5   4 1480.35   49.80
   0  -5  -4 1277.27   43.00
   0   5   4 1269.87   43.00
  -1  -5  -4 1573.84   51.89
   1   5   4 1505.05   51.79
  -2  -5  -4    4.50    1.30
  -2  -5  -4    5.60    1.20
   2   5   4    3.50    1.20
  -3  -5  -4  913.91   30.90
  -3  -5  -4  924.71   31.20
   3   5   4  882.11   30.90
  -4  -5  -4  492.95   16.70
  -4  -5  -4  464.25   16.90
   4   5   4  457.95   16.60
  -5  -5  -4   26.00    3.80
  -5  -5  -4   29.60    3.20
   5   5   4   20.80    3.20
  -6  -5  -4  494.85   17.90
   6   5   4  504.35   17.80
  -7  -5  -4  263.37   11.20
   7   5   4  304.17   11.10
  -8  -5  -4  287.87   11.80
   8   5   4  282.17   11.30
  15  -6  -4 1519.05   52.09
  14  -6  -4    6.00    2.20
  13  -6  -4 1730.83   57.39
  13  -6  -4 1650.23   57.79
  12  -6  -4  232.38    9.20
  12  -6  -4  232.08    9.60
  11  -6  -4  746.23   26.50
  11  -6  -4  765.92   26.30
  10  -6  -4  994.10   33.70
  10  -6  -4  967.50   33.80
   9  -6  -4  145.39    6.00
   9  -6  -4  136.69    6.10
   8  -6  -4  649.34   22.10
   8  -6  -4  630.24   22.10
  -8   6   4  625.74   22.20
   7  -6  -4 1342.97   44.30
  -7   6   4 1266.97   44.40
   6  -6  -4  144.19    5.70
  -6   6   4  133.09    5.90
   5  -6  -4 5011.10  166.88
  -5   6   4 4811.12  167.48
   4  -6  -4    2.90    1.00
  -4   6   4    3.10    1.30
   3  -6  -4 1123.09   38.00
   2  -6  -4  355.26   12.60
  -2   6   4  362.56   12.80
   1  -6  -4  876.61   30.10
  -1   6   4  891.81   30.10
   0  -6  -4  227.78    8.40
   0   6   4  222.88    8.40
  -1  -6  -4  267.17    9.80
   1   6   4  265.17    9.80
  -2  -6  -4  319.07   11.50
  -2  -6  -4  334.07   11.90
   2   6   4  315.87   11.80
  -3  -6  -4  740.73   25.50
  -3  -6  -4  713.63   25.20
   3   6   4  740.33   25.20
  -4  -6  -4    5.20    1.70
  -4  -6  -4    3.10    1.90
   4   6   4    1.80    1.70
  -5  -6  -4 1131.79   37.40
   5   6   4 1052.69   37.30
  -6  -6  -4  168.08    7.50
   6   6   4  152.18    7.30
  -7  -6  -4  353.66   14.10
   7   6   4  359.06   13.60
  14  -7  -4  797.32   28.00
  13  -7  -4  654.83   22.80
  13  -7  -4  629.44   23.10
  12  -7  -4   76.59    4.70
  12  -7  -4   74.29    4.90
  11  -7  -4 1126.89   38.20
  11  -7  -4 1092.79   38.20
  10  -7  -4  475.65   16.90
  10  -7  -4  458.45   16.80
   9  -7  -4  621.34   21.80
   9  -7  -4  624.84   21.70
  -9   7   4  610.84   21.80
   8  -7  -4 1075.99   36.40
   8  -7  -4 1051.59   36.30
  -8   7   4 1056.69   36.40
   7  -7  -4  222.38    8.50
  -7   7   4  218.48    8.70
   6  -7  -4 3007.80   99.29
  -6   7   4 2916.81   99.49
   5  -7  -4    2.90    1.10
  -5   7   4    4.30    1.60
   4  -7  -4 2336.17   79.19
  -4   7   4 2384.36   79.49
   3  -7  -4 1351.46   46.20
  -3   7   4 1385.16   46.50
   2  -7  -4   90.29    4.10
  -2   7   4   96.49    4.50
   1  -7  -4  263.37    9.60
  -1   7   4  260.17    9.70
   0  -7  -4  547.05   19.10
   0   7   4  547.95   19.10
  -1  -7  -4  392.76   14.20
   1   7   4  395.86   14.10
  -2  -7  -4  767.72   27.40
  -2  -7  -4  824.42   27.80
   2   7   4  809.12   27.60
  -3  -7  -4   37.00    4.00
  -3  -7  -4   43.80    3.30
   3   7   4   32.90    3.60
  -4  -7  -4 2033.30   68.09
   4   7   4 2003.00   68.09
   5   7   4   36.70    4.40
  -6  -7  -4  147.49    7.10
   6   7   4  126.39    7.00
  13  -8  -4   14.90    2.70
  12  -8  -4 2288.17   75.19
  12  -8  -4 2150.88   75.09
  11  -8  -4  485.25   17.50
  11  -8  -4  475.75   17.50
  10  -8  -4 1333.07   46.50
  10  -8  -4 1393.76   46.70
   9  -8  -4  342.27   12.70
   9  -8  -4  349.87   12.90
  -9   8   4  341.07   12.90
   8  -8  -4  492.45   17.40
   8  -8  -4  479.55   17.20
  -8   8   4  479.95   17.50
   7  -8  -4  843.42   28.80
  -7   8   4  830.02   29.10
   6  -8  -4  152.28    6.10
  -6   8   4  148.09    6.70
   5  -8  -4  784.72   27.20
  -5   8   4  802.72   27.60
   4  -8  -4 1065.29   36.10
  -4   8   4 1056.09   36.40
   3  -8  -4  345.07   12.50
  -3   8   4  351.96   12.80
   2  -8  -4 1696.63   57.49
  -2   8   4 1711.23   57.59
   1  -8  -4  836.22   28.60
  -1   8   4  823.82   28.60
   0  -8  -4  282.07   10.70
   0   8   4  285.97   10.70
  -1  -8  -4 1198.08   41.50
   1   8   4 1232.18   41.40
   2   8   4   33.80    3.70
   3   8   4  532.55   19.00
  -4  -8  -4  145.19    6.70
   4   8   4  143.29    7.00
  -5  -8  -4   54.19    4.70
   5   8   4   39.70    4.90
  12  -9  -4  418.56   15.60
  11  -9  -4 1130.49   39.10
  11  -9  -4 1135.59   39.30
 -11   9   4 1143.89   39.30
  10  -9  -4  413.26   15.50
  10  -9  -4  426.86   15.80
 -10   9   4  437.86   15.90
   9  -9  -4  160.58    7.20
   9  -9  -4  153.98    6.70
  -9   9   4  153.48    7.30
   8  -9  -4  300.37   11.50
   8  -9  -4  323.77   12.00
   7  -9  -4  238.28    9.10
  -7   9   4  235.88    9.70
   6  -9  -4  233.38    8.90
  -6   9   4  233.08    9.50
   5  -9  -4  999.00   34.10
  -5   9   4  998.00   36.00
   4  -9  -4  147.99    6.30
  -4   9   4  155.38    7.00
   3  -9  -4 2478.25   83.79
  -3   9   4 2509.15   84.09
   2  -9  -4  394.56   14.50
  -2   9   4  412.46   14.70
   1  -9  -4  619.04   22.00
  -1   9   4  634.34   22.00
   0  -9  -4  981.10   33.90
   0   9   4  968.90   33.60
   1   9   4   13.70    2.30
  -2  -9  -4   38.10    3.40
   2   9   4   39.80    4.30
  -3  -9  -4  143.29    6.60
   3   9   4  148.19    7.20
  -4  -9  -4    3.40    2.50
   4   9   4    0.90    2.50
  12 -10  -4  381.46   15.10
 -12  10   4  413.26   15.30
  11 -10  -4  937.31   34.20
 -11  10   4 1041.90   34.60
  10 -10  -4  306.07   12.10
 -10  10   4  338.97   12.80
   9 -10  -4  584.64   21.80
   9 -10  -4  591.34   21.30
  -9  10   4  637.64   21.90
   8 -10  -4  738.93   26.00
   8 -10  -4  753.12   26.50
  -8  10   4  751.32   26.50
   7 -10  -4   56.19    3.70
  -7  10   4   55.79    4.80
   6 -10  -4 1317.57   45.90
  -6  10   4 1386.96   46.50
   5 -10  -4   67.59    4.10
  -5  10   4   77.39    5.00
   4 -10  -4 1861.51   64.49
  -4  10   4 1964.00   64.99
   3 -10  -4  156.88    7.00
  -3  10   4  180.08    7.60
   2 -10  -4   12.90    2.30
  -2  10   4   19.40    2.50
  -1  10   4  409.46   15.10
   0  10   4   53.99    4.50
   1  10   4   92.39    5.70
  -2 -10  -4  608.24   21.40
   2  10   4  613.34   21.90
  -3 -10  -4    3.30    2.40
   3  10   4   -0.60    2.60
 -12  11   4 1431.06   49.30
 -11  11   4  331.07   13.30
  10 -11  -4 1322.87   47.30
 -10  11   4 1455.35   48.00
   9 -11  -4 1145.59   40.80
  -9  11   4 1239.18   41.50
   8 -11  -4  325.67   12.40
  -8  11   4  342.67   13.40
   7 -11  -4  571.74   21.00
  -7  11   4  622.44   21.90
  -6  11   4    7.50    2.60
   5 -11  -4  342.77   13.60
  -5  11   4  404.06   14.50
  -4  11   4  100.39    6.00
  -3  11   4    9.60    2.50
  -2  11   4 1103.39   38.20
  -1  11   4  697.23   24.80
   0  11   4  559.14   20.30
   1  11   4  828.02   29.20
  -2 -11  -4   18.20    2.70
 -13  12   4  533.75   20.20
 -12  12   4   60.39    6.30
 -11  12   4 1228.78   42.80
 -10  12   4  438.26   17.00
  -9  12   4  208.78    9.90
  -8  12   4  584.44   21.80
  -7  12   4   52.69    5.80
  -6  12   4   33.20    5.30
  -5  12   4 1002.80   35.20
  -4  12   4   10.60    2.70
  -3  12   4 1189.08   41.20
  -2  12   4  964.00   33.80
  -1  12   4  583.34   21.30
   0  12   4  390.76   15.30
 -12  13   4  283.87   12.60
 -11  13   4  152.48    8.70
 -10  13   4   -2.20    3.40
  -9  13   4  714.33   26.20
  -8  13   4  729.83   26.80
  -7  13   4  276.27   12.30
  -6  13   4 1308.27   45.70
  -5  13   4   85.89    6.90
  -4  13   4  398.86   15.80
  -3  13   4   34.60    5.70
  -2  13   4  260.97   11.50
 -11  14   4   76.19    7.80
 -10  14   4  383.86   16.10
  -9  14   4  375.26   15.90
  -8  14   4  432.76   17.60
  -7  14   4 1352.16   47.40
  -6  14   4   19.30    4.20
  -5  14   4  239.18   11.40
  -2  15  -5  165.98    8.50
  -3  15  -5  906.01   31.90
  -4  15  -5   10.90    3.10
  -5  15  -5  742.13   26.60
  -6  15  -5  251.27   10.80
   6 -15   5  249.08    9.50
  -7  15  -5    1.50    2.80
  -8  15  -5  484.75   17.70
   0  14  -5  337.47   13.20
  -1  14  -5   13.90    2.70
   1 -14   5   13.20    2.80
  -2  14  -5  189.08    8.50
   2 -14   5  180.28    8.40
  -3  14  -5  131.49    6.90
  -4  14  -5  458.05   17.50
   4 -14   5  486.65   16.80
  -5  14  -5 1000.80   35.30
   5 -14   5 1029.90   34.60
  -6  14  -5    3.70    2.70
   6 -14   5    2.80    1.40
  -7  14  -5 1234.38   41.50
   7 -14   5 1188.08   41.00
  -8  14  -5  143.09    6.70
   2  13  -5  900.51   31.40
   1  13  -5  663.63   23.50
   0  13  -5   28.30    4.10
   0 -13   5   24.50    4.00
  -1  13  -5  393.56   14.30
   1 -13   5  375.56   14.30
  -2  13  -5  251.47    9.60
   2 -13   5  229.78    9.20
   2 -13   5  231.48    9.60
  -3  13  -5  158.78    7.20
   3 -13   5  150.48    6.40
   3 -13   5  155.58    7.20
  -4  13  -5 1474.85   54.59
   4 -13   5 1646.54   54.09
   4 -13   5 1688.43   54.79
  -5  13  -5   -0.50    2.30
   5 -13   5    1.30    1.30
  -6  13  -5 1936.81   64.89
   6 -13   5 1901.71   64.39
  -7  13  -5  352.66   12.90
   7 -13   5  339.97   12.20
  -8  13  -5  280.27   10.70
   8 -13   5  296.87   10.30
  -9  13  -5  248.18    9.40
   4  12  -5   43.20    5.00
   3  12  -5   20.60    2.80
   2  12  -5 1378.16   46.50
  -2 -12   5 1343.87   46.10
   1  12  -5  158.58    7.00
  -1 -12   5  144.09    6.60
   0  12  -5 1844.02   61.39
   0 -12   5 1763.62   61.39
   0 -12   5 1831.62   61.29
  -1  12  -5  516.95   17.40
   1 -12   5  465.05   17.30
   1 -12   5  474.25   17.20
  -2  12  -5  454.85   15.80
   2 -12   5  422.56   15.50
   2 -12   5  432.86   15.80
  -3  12  -5  665.43   23.60
   3 -12   5  673.03   23.30
   3 -12   5  688.43   23.70
  -4  12  -5   80.89    4.80
   4 -12   5   92.49    4.10
   4 -12   5   92.39    5.10
  -5  12  -5  903.31   30.70
   5 -12   5  856.81   30.80
   5 -12   5  904.71   30.20
  -6  12  -5  311.37   11.40
   6 -12   5  295.27   10.70
  -7  12  -5  224.98    8.70
   7 -12   5  231.88    8.20
  -8  12  -5  783.82   27.30
   8 -12   5  813.02   27.00
  -9  12  -5  396.06   14.00
   9 -12   5  400.66   13.70
   5  11  -5  128.99    6.70
   4  11  -5   54.89    4.60
   3  11  -5  719.53   25.00
  -3 -11   5  705.93   24.50
   2  11  -5  212.18    8.40
  -2 -11   5  202.58    8.00
   1  11  -5 1721.53   57.19
  -1 -11   5 1730.33   56.99
  -1 -11   5 1616.44   57.19
   0  11  -5  251.27    9.40
   0 -11   5  246.08    9.30
   0 -11   5  234.78    9.30
   1 -11   5  910.21   31.40
   1 -11   5  929.61   31.60
  -2  11  -5  933.31   32.30
   2 -11   5  941.71   32.10
   2 -11   5  954.50   32.40
  -3  11  -5   55.69    3.60
   3 -11   5   55.99    3.90
   3 -11   5   58.79    3.00
  -4  11  -5  292.37   11.50
   4 -11   5  331.27   11.20
   4 -11   5  321.77   11.80
  -5  11  -5  918.11   31.10
   5 -11   5  889.01   31.30
   5 -11   5  914.51   30.70
  -6  11  -5    1.70    1.50
   6 -11   5    2.00    0.90
   6 -11   5    3.10    2.00
  -7  11  -5 1560.44   54.29
  -7  11  -5 1659.03   55.29
   7 -11   5 1624.24   54.09
  -8  11  -5  431.16   15.10
  -8  11  -5  437.86   16.40
   8 -11   5  434.66   14.80
  -9  11  -5 1503.25   51.19
   9 -11   5 1468.15   49.70
 -10  11  -5  358.76   14.40
 -11  11  -5    2.20    3.10
 -12  11  -5  148.79    8.90
   6  10  -5  648.44   23.10
   5  10  -5  278.27   10.90
   4  10  -5  656.63   23.10
  -4 -10   5  660.63   22.40
   3  10  -5   35.30    3.50
  -3 -10   5   33.30    2.70
   2  10  -5 1178.48   40.20
  -2 -10   5 1193.18   40.00
  -2 -10   5 1166.88   40.30
   1  10  -5  387.96   14.00
  -1 -10   5  395.06   13.80
  -1 -10   5  387.46   14.00
   0  10  -5  161.68    6.30
   0 -10   5  153.18    6.30
   0 -10   5  148.09    6.20
  -1  10  -5 1075.19   36.90
   1 -10   5 1081.29   36.90
   1 -10   5 1099.19   36.80
  -2  10  -5  702.33   24.30
   2 -10   5  708.73   24.40
   2 -10   5  708.33   24.10
  -3  10  -5  236.68    9.00
   3 -10   5  248.78    8.70
   3 -10   5  244.68    9.30
  -4  10  -5  647.74   22.90
   4 -10   5  669.43   23.20
   4 -10   5  681.63   22.70
  -5  10  -5    2.90    1.30
  -5  10  -5    1.70    1.80
   5 -10   5    2.10    1.60
   5 -10   5    2.20    0.80
  -6  10  -5 1545.75   52.29
  -6  10  -5 1586.24   53.09
   6 -10   5 1544.95   51.99
   6 -10   5 1542.65   52.79
  -7  10  -5  548.95   19.00
  -7  10  -5  577.84   20.10
   7 -10   5  569.54   18.80
   7 -10   5  526.35   19.70
  -8  10  -5 1866.31   62.99
   8 -10   5 1830.72   61.69
  -9  10  -5  974.60   34.00
   9 -10   5  965.70   32.50
 -10  10  -5    2.60    2.80
  10 -10   5    0.20    0.70
  10 -10   5    0.30    0.90
 -11  10  -5  204.28    9.90
 -12  10  -5  320.37   13.80
   7   9  -5  880.61   30.70
   6   9  -5  611.54   21.70
   5   9  -5  707.63   24.70
   4   9  -5   26.80    3.30
  -4  -9   5   26.80    2.00
   3   9  -5  379.56   13.50
  -3  -9   5  383.86   13.00
  -3  -9   5  359.96   13.60
   2   9  -5  978.90   33.50
  -2  -9   5 1000.00   33.30
  -2  -9   5  970.30   33.60
   1   9  -5    4.90    1.30
  -1  -9   5    2.20    1.30
  -1  -9   5    5.20    1.30
   0   9  -5 1637.84   55.19
   0  -9   5 1651.23   55.19
   0  -9   5 1626.64   55.19
  -1   9  -5 1324.87   44.80
   1  -9   5 1340.07   44.90
   1  -9   5 1316.87   44.70
  -2   9  -5 2166.38   68.49
   2  -9   5 2032.50   68.09
   2  -9   5 1871.41   67.99
  -3   9  -5 1245.78   42.60
  -3   9  -5 1147.99   42.20
   3  -9   5 1285.97   42.10
   3  -9   5 1324.57   42.50
  -4   9  -5  260.67    9.60
  -4   9  -5  269.67   10.20
   4  -9   5  272.07   10.00
   4  -9   5  267.47    9.30
  -5   9  -5 1306.57   44.10
  -5   9  -5 1348.97   44.80
   5  -9   5 1285.37   44.60
   5  -9   5 1308.07   43.90
  -6   9  -5   44.10    2.40
  -6   9  -5   46.60    3.90
   6  -9   5   46.40    2.00
   6  -9   5   43.60    3.30
  -7   9  -5   64.19    4.60
   7  -9   5   62.49    3.90
   7  -9   5   62.09    2.50
  -8   9  -5 1399.66   47.00
   8  -9   5 1380.56   45.70
   8  -9   5 1321.57   46.60
  -9   9  -5   15.00    2.70
   9  -9   5   16.50    1.60
 -10   9  -5  879.51   30.70
  10  -9   5  855.11   29.10
 -11   9  -5 1020.40   36.00
  11  -9   5 1026.10   34.70
 -12   9  -5   85.69    7.00
   8   8  -5  444.46   16.50
   7   8  -5  178.58    7.90
   6   8  -5  798.42   27.70
   5   8  -5   72.09    4.30
   4   8  -5  259.47    9.70
  -4  -8   5  247.48    9.90
  -4  -8   5  262.07    8.90
   3   8  -5 1248.68   43.30
  -3  -8   5 1290.37   43.20
  -3  -8   5 1268.17   42.60
   2   8  -5   10.70    1.50
  -2  -8   5   11.60    1.80
  -2  -8   5   11.40    1.50
   1   8  -5 1983.20   64.29
  -1  -8   5 1859.11   63.49
  -1  -8   5 1841.92   63.69
   0   8  -5  947.61   32.20
   0  -8   5  953.00   32.20
   0  -8   5  950.20   32.20
  -1   8  -5  914.51   30.90
  -1   8  -5  916.91   31.10
   1  -8   5  906.21   31.10
   1  -8   5  909.81   30.80
  -2   8  -5 3104.29   99.39
  -2   8  -5 2701.33   98.49
   2  -8   5 2844.82   98.49
   2  -8   5 3114.29   99.59
  -3   8  -5  125.99    5.40
  -3   8  -5  117.19    4.80
   3  -8   5  126.39    5.20
   3  -8   5  133.79    4.70
  -4   8  -5  537.95   18.70
  -4   8  -5  531.15   18.10
   4  -8   5  527.95   17.90
   4  -8   5  525.15   18.50
  -5   8  -5  154.48    5.60
  -5   8  -5  151.28    6.50
   5  -8   5  155.78    5.40
   5  -8   5  150.48    6.20
  -6   8  -5   40.40    3.50
  -6   8  -5   38.90    1.90
   6  -8   5   36.50    1.60
   6  -8   5   35.70    2.90
  -7   8  -5  894.41   31.10
   7  -8   5  890.41   30.00
   7  -8   5  903.61   30.80
  -8   8  -5  181.88    7.90
   8  -8   5  175.78    7.40
  -9   8  -5 1810.62   60.69
   9  -8   5 1761.62   60.39
   9  -8   5 1771.92   59.39
 -10   8  -5 1185.38   39.80
  10  -8   5 1118.59   38.30
  10  -8   5 1126.29   38.20
 -11   8  -5  564.44   20.90
  11  -8   5  558.74   19.00
 -12   8  -5  642.14   23.70
   9   7  -5  176.58    8.20
   8   7  -5  141.09    6.80
   7   7  -5  553.44   19.70
   6   7  -5  764.02   26.50
   5   7  -5  351.96   12.50
  -5  -7   5  335.87   12.70
   4   7  -5 2018.60   72.89
  -4  -7   5 2147.49   72.29
  -4  -7   5 2265.17   71.89
   3   7  -5  108.49    4.70
  -3  -7   5  112.79    4.10
  -3  -7   5  107.79    4.80
   2   7  -5 1154.08   40.30
  -2  -7   5 1212.18   40.40
  -2  -7   5 1217.08   40.10
   1   7  -5   65.89    3.10
  -1  -7   5   67.19    3.00
  -1  -7   5   65.29    3.10
   0   7  -5  287.87   10.50
   0   7  -5  290.67   10.30
   0  -7   5  295.17   10.30
   0  -7   5  300.77   10.40
  -1   7  -5 3843.02  133.29
  -1   7  -5 4000.40  132.39
   1  -7   5 3935.31  132.49
   1  -7   5 3893.01  132.79
  -2   7  -5  506.55   17.70
  -2   7  -5  510.55   17.30
   2  -7   5  521.55   17.30
   2  -7   5  496.05   17.60
  -3   7  -5  664.33   24.50
  -3   7  -5  742.23   25.00
   3  -7   5  738.03   24.40
   3  -7   5  759.32   24.90
  -4   7  -5 3221.58  104.49
  -4   7  -5 3166.18  105.99
   4  -7   5 3210.78  103.99
   4  -7   5 2812.12  103.79
  -5   7  -5   18.30    2.70
  -5   7  -5   18.30    1.20
   5  -7   5   18.30    1.00
   5  -7   5   17.70    2.20
  -6   7  -5  954.60   33.00
   6  -7   5  962.20   32.80
   7  -7   5  432.46   15.40
  -8   7  -5 1221.98   41.90
   8  -7   5 1215.88   41.50
  -9   7  -5  700.13   24.30
   9  -7   5  654.93   23.80
   9  -7   5  691.33   22.90
 -10   7  -5  707.83   24.90
  10  -7   5  684.23   23.50
  10  -7   5  697.33   23.40
 -11   7  -5  437.16   16.60
  11  -7   5  431.86   14.80
 -12   7  -5   63.99    6.40
  10   6  -5  280.17   11.40
   9   6  -5   98.09    5.80
   8   6  -5  934.11   32.30
   7   6  -5  992.60   34.10
   6   6  -5  865.31   29.60
  -6  -6   5  855.11   29.80
   5   6  -5 1486.55   53.49
  -5  -6   5 1660.43   53.39
   4   6  -5   21.70    2.30
  -4  -6   5   22.80    2.50
   3   6  -5  858.31   29.60
  -3  -6   5  865.21   29.20
  -3  -6   5  884.91   29.70
   2   6  -5  410.36   14.70
  -2  -6   5  430.36   14.50
  -2  -6   5  429.26   14.80
   1   6  -5   74.49    3.20
   1   6  -5   72.79    3.20
  -1  -6   5   74.59    3.30
  -1  -6   5   76.59    3.10
   0   6  -5 2036.50   67.49
   0   6  -5 1840.12   66.79
   0  -6   5 2059.19   67.79
   0  -6   5 2039.80   67.59
  -1   6  -5 3190.78  111.89
  -1   6  -5 3345.87  111.79
   1  -6   5 3375.06  111.79
   1  -6   5 3346.77  112.19
  -2   6  -5 1821.72   61.29
  -2   6  -5 1731.23   61.09
   2  -6   5 1948.11   61.39
   2  -6   5 1774.42   61.09
  -3   6  -5 5533.65  190.48
  -3   6  -5 5398.06  188.08
   3  -6   5 5750.62  187.88
   3  -6   5 5789.52  190.18
  -4   6  -5  493.35   17.80
   4  -6   5  519.85   17.60
  -5   6  -5 1943.01   65.59
   5  -6   5 1945.11   65.39
  -6   6  -5   76.29    4.20
   6  -6   5   82.09    3.90
  -7   6  -5  375.06   13.70
   7  -6   5  369.96   13.40
  -8   6  -5  431.66   15.80
   8  -6   5  423.36   14.60
   8  -6   5  427.76   14.50
   8  -6   5  436.56   15.40
  -9   6  -5    1.00    2.20
   9  -6   5    3.30    0.90
   9  -6   5    2.00    0.80
   9  -6   5    1.00    1.50
 -10   6  -5  681.03   23.90
  10  -6   5  635.94   23.30
  10  -6   5  667.03   22.50
  10  -6   5  677.13   22.70
 -11   6  -5 1039.80   36.30
  11  -6   5 1069.49   35.50
  11  -6   5 1000.10   34.80
 -12   6  -5  152.68    8.50
  11   5  -5 1047.10   37.70
  10   5  -5    4.60    2.30
   9   5  -5 1787.62   60.59
   8   5  -5  650.73   22.80
   7   5  -5   97.99    4.80
   6   5  -5 2092.49   70.39
   5   5  -5  497.15   17.30
  -5  -5   5  494.45   17.50
   4   5  -5  544.85   19.20
  -4  -5   5  566.44   19.30
   3   5  -5 1415.66   49.20
  -3  -5   5 1525.15   49.30
  -3  -5   5 1449.76   49.30
   2   5  -5  125.39    4.70
   2   5  -5  126.89    4.90
  -2  -5   5  129.49    4.60
  -2  -5   5  128.89    5.00
   1   5  -5 2380.16   80.99
   1   5  -5 2335.07   80.59
  -1  -5   5 2420.96   80.79
  -1  -5   5 2349.26   80.19
   0   5  -5   38.50    1.90
   0   5  -5   37.10    2.10
   0  -5   5   38.50    1.90
   0  -5   5   35.40    1.90
  -1   5  -5 4359.46  148.69
  -1   5  -5 4320.77  147.59
   1  -5   5 4424.66  147.59
   1  -5   5 4478.85  148.29
  -2   5  -5 4127.29  141.19
  -2   5  -5 3972.50  138.99
   2  -5   5 4140.79  138.99
   2  -5   5 4367.76  140.89
  -3   5  -5  579.64   18.90
   3  -5   5  505.15   19.10
  -4   5  -5 2818.02   91.69
   4  -5   5 2544.55   89.79
  -5   5  -5   79.79    4.00
   5  -5   5   84.19    3.80
  -6   5  -5  440.26   15.80
   6  -5   5  443.96   15.50
  -7   5  -5  924.91   31.90
   7  -5   5  931.01   31.60
   7  -5   5  924.71   30.90
   7  -5   5  914.81   31.00
  -8   5  -5  248.98   11.10
   8  -5   5  276.37   10.10
   8  -5   5  274.57    9.40
   8  -5   5  275.27    9.30
  -9   5  -5  910.41   31.70
   9  -5   5  906.31   31.20
   9  -5   5  914.11   30.70
   9  -5   5  903.71   30.50
 -10   5  -5 1313.47   44.00
  10  -5   5 1277.67   42.80
  10  -5   5 1217.58   43.40
  10  -5   5 1291.97   43.00
 -11   5  -5  215.58    9.80
  11  -5   5  210.78    7.70
 -12   5  -5  933.21   33.10
  11   4  -5    4.90    2.40
  10   4  -5  773.82   27.10
   9   4  -5   85.19    4.90
   8   4  -5    9.70    1.90
   7   4  -5  394.36   14.10
   6   4  -5  991.10   33.80
   5   4  -5  423.96   14.90
   4   4  -5 4878.91  165.28
   3   4  -5  391.76   13.60
   3   4  -5  380.56   13.20
  -3  -4   5  394.46   13.20
   2   4  -5 4070.39  137.59
   2   4  -5 4052.89  136.79
  -2  -4   5 4073.49  136.59
   1   4  -5  340.17   11.70
   1   4  -5  340.77   11.70
  -1  -4   5  340.77   11.70
   0   4  -5  499.55   17.20
   0   4  -5  502.35   17.30
   0  -4   5  519.55   17.30
  -1   4  -5  749.92   26.90
  -1   4  -5  841.12   26.90
   1  -4   5  784.42   26.80
   2  -4   5    9.40    1.40
  -3   4  -5 3741.13  127.19
   3  -4   5 3710.23  126.29
  -4   4  -5 1394.76   47.60
   4  -4   5 1423.76   47.50
  -5   4  -5   99.29    4.60
   5  -4   5  109.19    4.40
  -6   4  -5 3752.02  126.29
   6  -4   5 3791.12  124.89
   6  -4   5 3595.74  123.09
   6  -4   5 3612.14  123.49
  -7   4  -5  221.88    8.80
   7  -4   5  222.68    7.90
   7  -4   5  228.18    8.40
   7  -4   5  219.98    7.70
  -8   4  -5 1450.95   54.39
   8  -4   5 1626.04   53.09
   8  -4   5 1620.64   53.69
   8  -4   5 1651.53   53.29
  -9   4  -5   15.00    2.60
   9  -4   5   15.40    2.00
   9  -4   5   19.30    1.90
   9  -4   5   20.10    2.30
 -10   4  -5  799.82   27.20
  10  -4   5  742.63   26.60
  10  -4   5  760.22   26.60
  10  -4   5  764.32   26.00
 -11   4  -5  848.52   29.70
  11  -4   5  826.92   28.40
 -12   4  -5   35.00    4.40
  12   3  -5   87.79    5.90
  11   3  -5  102.79    5.90
  10   3  -5  580.14   20.60
   9   3  -5    1.40    1.70
   8   3  -5 1058.69   36.20
   7   3  -5  306.77   11.20
   6   3  -5 1941.91   65.29
   5   3  -5 4218.58  143.29
   4   3  -5  400.76   14.00
   3   3  -5 4316.17  137.79
   3   3  -5 4185.18  139.19
  -3  -3   5 3831.02  137.79
   2   3  -5  253.17    8.80
   2   3  -5  258.77    9.00
  -2  -3   5  255.87    8.80
   1   3  -5   15.40    1.20
   1   3  -5   18.10    1.20
  -1  -3   5   12.50    1.00
   0   3  -5 1777.22   61.99
   0   3  -5 1875.91   61.99
   0  -3   5 1827.22   62.19
  -1   3  -5  615.64   20.90
  -1   3  -5  609.04   20.50
  -1   3  -5  623.54   20.80
   1  -3   5  597.84   20.80
  -2   3  -5  580.44   19.70
   2  -3   5  568.54   19.60
  -3   3  -5 2890.71   98.19
   3  -3   5 2890.41   97.39
  -4   3  -5  424.26   14.90
   4  -3   5  424.06   14.80
  -5   3  -5 3909.31  129.59
   5  -3   5 3578.54  126.59
   5  -3   5 3885.41  128.89
  -6   3  -5   38.60    3.00
   6  -3   5   35.80    1.80
   6  -3   5   38.20    2.50
  -7   3  -5 1724.93   58.59
   7  -3   5 1717.03   57.79
   7  -3   5 1749.72   58.29
  -8   3  -5   20.10    2.60
   8  -3   5   20.90    1.90
   8  -3   5   19.20    2.60
  -9   3  -5    2.00    2.30
   9  -3   5    4.60    1.60
   9  -3   5    3.50    1.20
 -10   3  -5  403.06   15.10
  10  -3   5  386.06   14.40
  10  -3   5  397.76   13.80
 -11   3  -5  666.53   23.90
  11  -3   5  647.24   22.50
  12   2  -5   49.00    4.90
  11   2  -5 1978.00   66.99
  10   2  -5   89.39    5.10
   9   2  -5 1573.74   53.39
   7   2  -5 1938.01   65.29
   6   2  -5  969.80   33.00
   5   2  -5  158.78    6.10
   4   2  -5 2090.99   71.79
   3   2  -5 6994.40  237.58
   3   2  -5 7128.29  236.18
   2   2  -5  705.73   23.00
  -2  -2   5  661.43   23.10
   1   2  -5 5235.38  174.68
  -1  -2   5 5144.09  174.48
   0   2  -5   72.29    2.70
   0   2  -5   65.79    2.80
   0  -2   5   70.69    2.80
  -1   2  -5 2322.17   77.29
  -1   2  -5 2300.47   78.69
   1  -2   5 2282.27   78.29
  -2   2  -5 1289.07   41.20
  -2   2  -5 1133.09   41.40
   2  -2   5 1198.68   41.30
   2  -2   5 1296.77   41.30
  -3   2  -5  164.38    5.60
  -3   2  -5  158.78    6.10
   3  -2   5  161.98    6.00
  -4   2  -5 3288.07  113.49
  -4   2  -5 3461.85  112.69
   4  -2   5 3406.76  114.59
   4  -2   5 3252.07  112.09
  -5   2  -5    6.30    1.40
   5  -2   5    5.40    1.10
  -6   2  -5  981.30   33.40
   6  -2   5  987.70   33.20
   6  -2   5  959.70   32.80
  -7   2  -5  750.22   25.80
   7  -2   5  736.93   25.00
   7  -2   5  734.73   25.40
  -8   2  -5  178.88    7.60
   8  -2   5  176.38    6.50
   8  -2   5  173.48    7.00
  -9   2  -5  429.16   15.50
   9  -2   5  399.36   14.90
   9  -2   5  418.76   14.50
 -10   2  -5  138.39    7.20
  10  -2   5  138.79    5.70
  10  -2   5  134.99    6.20
 -11   2  -5  292.07   12.00
  11  -2   5  273.97   10.40
  13   1  -5  296.77   12.00
  12   1  -5 1769.72   60.19
  11   1  -5   76.89    5.10
  10   1  -5 2139.79   72.19
   9   1  -5  889.91   30.60
   8   1  -5  329.97   12.00
   7   1  -5   77.39    3.80
   6   1  -5    9.60    0.90
   6   1  -5    7.80    1.30
   4   1  -5 4204.98  141.09
   3   1  -5  291.67   10.20
   2   1  -5 9377.66  314.67
   1   1  -5 1509.65   49.50
   1   1  -5 1450.45   49.99
  -1  -1   5 1370.86   49.30
   0   1  -5 6591.84  215.98
   0   1  -5 6021.80  216.68
   0  -1   5 6593.64  216.18
   0  -1   5 6572.14  217.08
  -1   1  -5  209.28    7.40
  -1   1  -5  214.58    7.80
   1  -1   5  225.58    7.50
  -2   1  -5  420.16   14.30
  -2   1  -5  412.36   14.70
   2  -1   5  438.36   14.70
   2  -1   5  418.46   14.40
  -3   1  -5  963.20   33.20
  -3   1  -5 1012.60   32.90
   3  -1   5  988.60   33.10
   3  -1   5  949.21   32.80
  -4   1  -5  712.53   25.00
  -4   1  -5  757.62   24.70
   4  -1   5  723.53   24.90
   4  -1   5  727.83   24.60
  -5   1  -5  169.18    6.10
  -5   1  -5  166.98    6.60
   5  -1   5  163.28    6.40
   5  -1   5  164.88    5.90
  -6   1  -5 2282.77   77.19
  -6   1  -5 2270.97   76.79
   6  -1   5 2332.07   76.79
   6  -1   5 2282.67   76.99
  -7   1  -5    0.80    1.80
   7  -1   5    1.90    1.40
   7  -1   5    1.00    1.10
  -8   1  -5 1425.36   48.00
   8  -1   5 1395.96   47.60
   8  -1   5 1393.66   47.20
  -9   1  -5  217.78    9.10
   9  -1   5  208.48    8.40
   9  -1   5  215.38    8.00
 -10   1  -5  180.98    8.40
  10  -1   5  171.58    7.00
  10  -1   5  161.38    7.20
 -11   1  -5  165.58    8.70
  11  -1   5  167.28    6.90
  13   0  -5  777.42   27.50
  12   0  -5    0.30    2.40
  11   0  -5  320.47   12.00
  11   0  -5  309.47   10.80
  10   0  -5 1089.39   37.20
  10   0  -5 1130.29   38.00
   9   0  -5   39.40    3.40
   9   0  -5   43.90    2.00
   8   0  -5 1632.24   54.39
   8   0  -5 1620.84   54.99
   7   0  -5  602.74   20.40
   4   0  -5   53.69    2.60
   3   0  -5 5953.60  200.88
   2   0  -5 1414.36   49.90
   2   0  -5 1512.75   50.19
  -2   0   5 1454.65   49.90
   1   0  -5 6135.49  203.18
   1   0  -5 5925.81  203.38
  -1   0   5 6066.79  203.28
   0   0  -5 3254.57  108.89
   0   0   5 3221.28  109.29
   0   0   5 3213.08  109.59
  -1   0  -5  387.36   13.60
  -1   0  -5  371.46   13.40
   1   0   5  410.96   13.70
   1   0   5  404.96   13.40
  -2   0  -5  645.24   23.10
  -2   0  -5  702.33   22.90
   2   0   5  689.93   23.10
   2   0   5  675.33   22.90
  -3   0  -5  616.14   20.30
  -3   0  -5  553.24   20.50
   3   0   5  634.74   20.50
   3   0   5  583.94   20.10
  -4   0  -5  635.44   21.10
  -4   0  -5  582.34   21.30
   4   0   5  641.94   21.30
   4   0   5  612.64   20.90
  -5   0  -5 2118.09   74.39
  -5   0  -5 2227.88   74.19
   5   0   5 2206.38   74.29
   5   0   5 2297.87   74.39
  -6   0  -5   96.29    4.80
   6   0   5   97.99    4.00
   6   0   5   94.19    4.40
  -7   0  -5 1529.55   51.89
  -7   0  -5 1518.65   52.09
   7   0   5 1528.55   51.49
   7   0   5 1551.84   51.79
  -8   0  -5  486.75   17.60
   8   0   5  468.65   17.00
   8   0   5  490.05   16.80
  -9   0  -5  146.79    7.10
   9   0   5  139.69    6.00
   9   0   5  132.19    6.10
 -10   0  -5  169.88    8.60
  10   0   5  170.48    7.00
  14  -1  -5   88.89    6.50
  13  -1  -5    3.30    2.50
  12  -1  -5  652.73   23.10
  12  -1  -5  646.14   22.00
  11  -1  -5 1300.97   44.50
  11  -1  -5 1351.26   45.30
  10  -1  -5  138.39    5.20
  10  -1  -5  142.09    6.30
   9  -1  -5 4381.76  147.69
   9  -1  -5 4298.57  145.89
   8  -1  -5 1169.78   39.90
   8  -1  -5 1206.78   40.50
   7  -1  -5 1179.58   40.40
   7  -1  -5 1195.78   39.90
   5  -1  -5 2086.69   71.49
   4  -1  -5 1224.78   41.30
   3  -1  -5 1097.49   36.20
  -3   1   5 1050.69   36.30
   2  -1  -5  643.94   21.70
  -2   1   5  633.94   21.70
   1  -1  -5 1704.93   56.69
   1  -1  -5 1558.14   55.79
  -1   1   5 1733.63   57.19
   0  -1  -5  475.55   16.30
   0  -1  -5  484.25   16.40
   0   1   5  468.85   16.30
  -1  -1  -5  524.95   18.20
  -1  -1  -5  545.15   18.40
   1   1   5  539.45   18.20
  -2  -1  -5  512.35   17.40
  -2  -1  -5  508.35   17.60
   2   1   5  507.85   17.30
  -3  -1  -5 1043.80   33.60
  -3  -1  -5  959.40   33.70
   3   1   5  979.00   33.40
  -4  -1  -5 1343.37   43.30
  -4  -1  -5 1210.28   43.50
   4   1   5 1300.47   43.20
  -5  -1  -5    1.00    1.50
  -5  -1  -5    3.50    1.20
   5   1   5    3.60    1.10
  -6  -1  -5  833.62   30.00
  -6  -1  -5  896.41   29.90
   6   1   5  882.51   29.60
  -7  -1  -5 1161.28   40.30
  -7  -1  -5 1168.88   40.20
   7   1   5 1200.88   39.80
  -8  -1  -5  232.38    9.50
   8   1   5  233.08    9.30
  -9  -1  -5  398.56   15.20
   9   1   5  398.36   14.30
 -10  -1  -5  408.86   15.50
  10   1   5  390.16   14.50
  14  -2  -5  228.18   10.10
  13  -2  -5  377.86   13.20
  13  -2  -5  296.17   12.20
  12  -2  -5 1455.95   51.19
  12  -2  -5 1639.14   53.09
  12  -2  -5 1419.66   50.49
  11  -2  -5   20.30    2.10
  11  -2  -5   17.90    2.30
  11  -2  -5   19.30    2.50
  10  -2  -5 3522.95  118.99
  10  -2  -5 3564.64  118.39
   9  -2  -5  772.22   26.60
   9  -2  -5  759.42   26.00
   8  -2  -5  958.30   32.60
   8  -2  -5  969.50   33.00
   7  -2  -5 2173.38   73.09
   6  -2  -5    2.60    1.10
   5  -2  -5  647.34   22.10
  -5   2   5  637.34   22.10
   4  -2  -5 1009.60   33.90
  -4   2   5  996.00   34.00
   3  -2  -5    8.60    1.30
  -3   2   5    8.60    1.50
   2  -2  -5 3885.31  131.09
  -2   2   5 3852.51  131.39
   1  -2  -5    1.90    0.70
  -1   2   5    5.60    1.40
   0  -2  -5 4336.17  145.29
   0  -2  -5 4167.28  144.69
   0   2   5 4380.46  145.09
  -1  -2  -5 2705.93   91.59
  -1  -2  -5 2639.94   90.89
   1   2   5 2722.63   91.09
  -2  -2  -5 1737.43   60.09
  -2  -2  -5 1832.62   60.19
   2   2   5 1802.32   60.19
  -3  -2  -5  443.46   15.30
  -3  -2  -5  442.86   15.20
   3   2   5  426.56   15.10
  -4  -2  -5   16.50    2.20
  -4  -2  -5   17.60    2.40
   4   2   5   16.00    2.00
  -5  -2  -5   16.60    2.00
  -5  -2  -5   18.30    2.60
   5   2   5   17.40    2.30
  -6  -2  -5  298.07   12.00
  -6  -2  -5  325.67   12.00
   6   2   5  345.37   11.60
  -7  -2  -5    3.70    2.20
  -7  -2  -5    7.70    2.10
  -8  -2  -5 1018.40   37.40
  -8  -2  -5 1105.99   37.40
   8   2   5 1118.09   36.80
  -9  -2  -5  212.88    9.70
   9   2   5  214.38    8.60
  14  -3  -5  309.97   12.60
  13  -3  -5  803.22   27.80
  13  -3  -5  825.92   28.60
  12  -3  -5  487.95   19.00
  12  -3  -5  534.65   18.90
  12  -3  -5  542.05   18.20
  11  -3  -5  617.64   21.10
  11  -3  -5  601.44   21.70
  10  -3  -5  193.08    7.90
   9  -3  -5  158.78    6.10
   9  -3  -5  152.48    6.60
   8  -3  -5 2580.94   85.89
   8  -3  -5 2544.25   86.09
   7  -3  -5  164.98    6.60
  -6   3   5 1277.47   43.30
  -5   3   5 4158.08  141.69
   4  -3  -5  157.08    5.90
  -4   3   5  143.69    5.90
   3  -3  -5 4056.39  130.99
  -3   3   5 3622.64  129.99
   2  -3  -5   60.29    2.80
  -2   3   5   62.59    3.00
   1  -3  -5  394.06   13.80
  -1   3   5  407.46   14.00
   0  -3  -5 4466.55  152.68
   0   3   5 4575.14  153.08
  -1  -3  -5  290.27   10.20
  -1  -3  -5  286.37   10.20
   1   3   5  276.47   10.10
  -2  -3  -5  635.64   21.40
  -2  -3  -5  620.84   21.40
   2   3   5  612.84   21.30
  -3  -3  -5  561.44   19.10
  -3  -3  -5  554.74   19.10
   3   3   5  530.45   18.80
  -4  -3  -5  286.47   10.70
  -4  -3  -5  301.47   10.70
   4   3   5  287.97   10.50
  -5  -3  -5  154.18    6.70
  -5  -3  -5  157.98    6.80
   5   3   5  163.78    6.40
  -6  -3  -5  143.99    6.70
  -6  -3  -5  141.59    6.60
   6   3   5  156.28    6.20
  -7  -3  -5 1240.08   42.10
  -7  -3  -5 1075.49   42.30
   7   3   5 1349.47   41.60
  -8  -3  -5   97.09    6.60
   8   3   5  110.99    5.60
  -9  -3  -5  443.56   17.00
   9   3   5  449.06   16.30
  14  -4  -5 1021.40   35.00
  14  -4  -5  983.70   35.30
  13  -4  -5   67.19    5.20
  13  -4  -5   61.09    3.80
  12  -4  -5   58.79    4.70
  12  -4  -5   63.39    3.60
  11  -4  -5  196.88    7.60
  11  -4  -5  196.38    8.30
  10  -4  -5   26.00    3.10
  10  -4  -5   28.90    2.50
   9  -4  -5 1718.83   57.59
   9  -4  -5 1695.43   57.79
   8  -4  -5 1993.10   67.19
   7  -4  -5 4386.56  148.89
  -7   4   5 4438.26  150.68
   6  -4  -5 2863.81   92.29
  -6   4   5 2577.54   91.29
   5  -4  -5 1426.36   50.59
  -5   4   5 1550.44   50.39
   4  -4  -5 2434.16   82.99
   3  -4  -5   21.00    1.90
  -3   4   5   23.10    2.10
   2  -4  -5  592.04   20.70
  -2   4   5  619.74   20.90
   1  -4  -5  192.28    7.40
  -1   4   5  210.08    7.50
   0  -4  -5  205.68    7.60
   0   4   5  212.08    7.70
  -1  -4  -5 1365.96   45.00
  -1  -4  -5 1302.07   44.90
   1   4   5 1332.37   44.90
  -2  -4  -5 1731.83   55.89
  -2  -4  -5 1632.44   55.89
   2   4   5 1613.34   55.79
  -3  -4  -5  571.54   20.00
  -3  -4  -5  580.94   20.00
   3   4   5  569.64   19.80
  -4  -4  -5 2397.96   78.49
  -4  -4  -5 2323.67   78.59
   4   4   5 2281.07   78.29
  -5  -4  -5   16.60    2.20
  -5  -4  -5   15.80    2.30
   5   4   5   10.30    1.80
  -6  -4  -5  334.77   13.50
  -6  -4  -5  363.06   13.30
   6   4   5  369.56   13.00
  -7  -4  -5   17.50    3.00
   7   4   5   22.70    3.80
  -8  -4  -5   32.40    5.20
   8   4   5   39.70    4.60
  15  -5  -5  801.62   28.50
  14  -5  -5  793.72   27.80
  14  -5  -5  809.82   28.40
  13  -5  -5  234.88    9.20
  12  -5  -5 1419.66   47.00
  12  -5  -5 1341.97   47.40
  11  -5  -5  233.98    8.90
  11  -5  -5  228.58    9.40
  10  -5  -5 1613.44   54.09
  10  -5  -5 1584.24   54.29
   9  -5  -5    7.50    1.50
   9  -5  -5    8.80    1.70
   8  -5  -5 1576.14   52.89
  -8   5   5 1546.35   52.99
   7  -5  -5  766.02   26.00
  -7   5   5  742.33   26.10
   6  -5  -5  569.94   19.60
  -6   5   5  549.05   19.70
   5  -5  -5 1376.46   45.60
  -5   5   5 1312.87   45.60
   4  -5  -5  866.61   29.30
  -4   5   5  852.21   29.50
   3  -5  -5   49.30    2.70
  -3   5   5   48.80    3.00
   2  -5  -5  890.01   30.90
  -2   5   5  931.31   31.10
   1  -5  -5  416.06   14.70
  -1   5   5  429.16   14.80
   0  -5  -5 1996.40   66.39
   0   5   5 1956.10   66.39
  -1  -5  -5  517.55   17.80
   1   5   5  503.55   17.70
  -2  -5  -5 1041.50   35.00
  -2  -5  -5 1016.30   34.90
   2   5   5 1020.40   34.90
  -3  -5  -5 1938.91   61.29
  -3  -5  -5 1928.61   61.09
   3   5   5 1564.74   61.59
  -4  -5  -5    7.40    1.80
  -4  -5  -5    5.00    1.90
   4   5   5    3.40    1.70
  -5  -5  -5  134.89    6.90
  -5  -5  -5  150.68    6.50
   5   5   5  140.39    6.40
  -6  -5  -5  216.98    9.00
   6   5   5  214.58    8.80
  -7  -5  -5   63.69    5.60
   7   5   5   71.19    5.10
  15  -6  -5 1131.09   39.40
  14  -6  -5  954.90   33.00
  13  -6  -5 1867.11   63.29
  12  -6  -5  136.09    6.80
  12  -6  -5  142.19    6.30
  11  -6  -5 1579.94   53.99
  11  -6  -5 1587.54   53.79
  10  -6  -5   10.20    2.00
  10  -6  -5   12.90    1.90
   9  -6  -5  158.48    6.60
   9  -6  -5  151.28    6.40
  -9   6   5  147.59    6.70
   8  -6  -5  627.94   22.20
  -8   6   5  640.94   22.30
   7  -6  -5  421.46   14.80
  -7   6   5  404.36   14.90
   6  -6  -5  914.31   30.90
  -6   6   5  888.21   31.00
   5  -6  -5 1616.04   53.89
  -5   6   5 1576.24   54.09
   4  -6  -5  473.25   16.60
  -4   6   5  480.35   16.90
   3  -6  -5 2023.30   68.59
  -3   6   5 2059.19   68.79
   2  -6  -5   67.99    3.50
  -2   6   5   73.89    3.80
   1  -6  -5 1682.83   56.69
  -1   6   5 1680.83   56.69
   0  -6  -5   35.60    2.80
   0   6   5   39.70    3.00
  -1  -6  -5  149.19    6.30
   1   6   5  158.18    6.30
  -2  -6  -5  476.55   17.10
  -2  -6  -5  496.85   17.40
   2   6   5  494.05   17.30
  -3  -6  -5   83.59    4.30
  -3  -6  -5   71.59    4.70
   3   6   5   74.49    4.30
  -4  -6  -5  459.95   15.90
  -4  -6  -5  402.66   16.10
   4   6   5  453.45   15.80
  -5  -6  -5 1817.42   60.49
   5   6   5 1752.62   60.39
  -6  -6  -5  188.88    8.20
   6   6   5  161.08    7.90
  14  -7  -5  777.52   27.30
  13  -7  -5   -1.00    2.00
  12  -7  -5  561.74   20.80
  12  -7  -5  594.64   20.70
  11  -7  -5  241.68   10.00
  11  -7  -5  256.57    9.90
  10  -7  -5  163.38    7.10
  10  -7  -5  164.28    7.10
 -10   7   5  163.18    7.40
   9  -7  -5  671.93   23.70
   9  -7  -5  680.23   23.70
  -9   7   5  679.73   23.90
   8  -7  -5  416.96   15.20
  -8   7   5  424.86   15.40
   7  -7  -5 2482.45   81.89
  -7   7   5 2382.66   81.99
   6  -7  -5 1876.81   61.39
  -6   7   5 1759.22   61.59
   5  -7  -5  388.56   13.90
  -5   7   5  393.86   14.30
   4  -7  -5 3954.30  134.39
  -4   7   5 3977.60  135.39
   3  -7  -5   29.80    2.60
  -3   7   5   31.80    3.10
   2  -7  -5  529.05   18.80
  -2   7   5  551.54   19.00
   1  -7  -5   50.29    3.20
  -1   7   5   53.19    3.60
   0  -7  -5  224.48    8.70
   0   7   5  227.68    8.70
  -1  -7  -5  399.76   14.70
   1   7   5  411.66   14.60
  -2  -7  -5  889.91   31.10
  -2  -7  -5  891.21   31.40
   2   7   5  943.31   31.30
  -3  -7  -5  625.24   23.00
   3   7   5  672.33   22.80
  -4  -7  -5 1508.55   50.59
   4   7   5 1470.45   50.59
  -5  -7  -5  166.78    7.50
   5   7   5  144.59    7.40
  12  -8  -5 1221.58   42.00
  12  -8  -5 1218.88   42.10
  11  -8  -5  337.87   12.70
  11  -8  -5  325.17   12.70
  10  -8  -5 2788.92   91.99
  10  -8  -5 2736.63   91.89
 -10   8   5 2653.33   91.99
   9  -8  -5    7.60    2.10
   9  -8  -5    8.50    1.80
  -9   8   5    6.70    2.30
   8  -8  -5 1717.73   57.89
  -8   8   5 1700.13   58.29
   7  -8  -5  146.89    6.20
  -7   8   5  137.89    6.60
  -6   8   5   95.19    5.20
   5  -8  -5 1235.28   42.60
  -5   8   5 1275.47   43.00
   4  -8  -5  462.45   16.90
  -4   8   5  497.65   17.30
   3  -8  -5  287.17   10.60
   2  -8  -5 1299.77   44.60
  -2   8   5 1329.47   44.80
   1  -8  -5  138.79    6.20
  -1   8   5  143.99    6.30
   0  -8  -5  597.14   21.60
   0   8   5  635.84   21.70
  -1  -8  -5  572.54   21.40
   1   8   5  623.44   21.10
  -2  -8  -5  449.16   16.30
   2   8   5  467.85   16.60
  -3  -8  -5  314.47   12.00
   3   8   5  315.67   12.20
  -4  -8  -5  226.98    9.30
   4   8   5  220.98    9.50
  -5  -8  -5  657.63   23.30
  12  -9  -5  207.68   10.30
  11  -9  -5 1555.34   54.49
  11  -9  -5 1619.94   54.69
 -11   9   5 1613.64   54.59
  10  -9  -5   62.09    4.80
  10  -9  -5   63.19    4.50
 -10   9   5   66.89    5.20
   9  -9  -5 1053.09   36.80
   9  -9  -5 1047.50   36.50
  -9   9   5 1085.99   36.90
   8  -9  -5  180.38    7.40
  -8   9   5  173.58    8.00
   7  -9  -5   12.50    1.70
  -7   9   5   13.70    2.30
   6  -9  -5   97.19    4.70
  -6   9   5   92.09    5.50
   5  -9  -5 1127.09   39.40
  -5   9   5 1186.78   39.90
   4  -9  -5  501.55   18.10
  -4   9   5  525.15   18.60
   3  -9  -5 2432.66   83.79
  -3   9   5 2553.34   84.19
   2  -9  -5   27.00    3.30
  -2   9   5   39.70    3.90
   1  -9  -5 1687.23   58.19
  -1   9   5 1741.23   58.19
   0   9   5  206.68    8.60
   1   9   5  203.88    8.70
  -2  -9  -5   59.49    4.20
   2   9   5   58.79    5.10
  -3  -9  -5    9.10    2.50
   3   9   5   10.20    2.80
 -12  10   5  229.18   10.30
  11 -10  -5  381.86   16.20
 -11  10   5  359.36   14.40
  10 -10  -5  124.99    6.30
 -10  10   5  132.39    7.20
   9 -10  -5 1064.89   37.90
  -9  10   5 1141.89   38.50
   8 -10  -5  101.19    5.20
  -8  10   5  103.69    6.20
   7 -10  -5  658.23   23.90
  -7  10   5  711.63   24.60
   6 -10  -5  361.66   13.80
  -6  10   5  400.16   14.60
   5 -10  -5  139.39    6.40
  -5  10   5  159.68    7.40
   4 -10  -5 1589.94   56.99
  -4  10   5 1777.22   57.49
  -3  10   5  162.88    7.60
  -2  10   5  946.51   32.90
  -1  10   5  352.56   13.40
   0  10   5    3.20    2.30
   1  10   5  251.77   10.50
  -2 -10  -5  355.26   13.10
   2  10   5  337.27   13.60
 -12  11   5  659.53   24.10
 -11  11   5   67.09    6.20
 -10  11   5 2186.18   74.49
  -9  11   5   91.69    6.70
  -8  11   5  899.11   31.90
  -7  11   5  511.65   19.10
  -6  11   5  467.05   17.60
  -5  11   5  450.75   17.00
  -4  11   5  106.49    6.40
  -3  11   5  236.58   10.20
  -2  11   5  660.33   23.70
  -1  11   5   23.60    3.20
   0  11   5 1209.18   41.80
   1  11   5  233.78   10.60
 -13  12   5  337.37   14.20
 -12  12   5  106.59    7.70
 -11  12   5 1492.15   51.69
 -10  12   5    5.00    3.30
  -9  12   5 1276.87   44.60
  -8  12   5  513.45   19.60
  -7  12   5   79.49    6.50
  -6  12   5  308.47   12.90
  -5  12   5  432.16   16.70
  -4  12   5   56.69    5.70
  -3  12   5  369.06   14.60
  -2  12   5   38.80    5.50
  -1  12   5 1015.00   35.60
 -12  13   5  338.87   14.50
 -11  13   5    6.00    3.70
 -10  13   5  323.07   14.10
  -9  13   5  878.21   31.80
  -8  13   5    1.80    3.60
  -7  13   5  543.25   20.90
  -6  13   5  370.26   15.20
  -5  13   5  333.67   13.90
  -4  13   5  406.16   16.20
  -3  13   5  108.89    7.70
 -10  14   5  493.25   19.80
  -9  14   5   52.39    7.60
  -8  14   5 1113.49   39.80
  -7  14   5  390.66   16.30
  -6  14   5  342.87   15.00
  -2  15  -6  770.42   27.50
  -3  15  -6  428.16   16.30
  -4  15  -6  311.27   12.70
  -5  15  -6 1049.59   36.50
   5 -15   6 1040.80   35.80
  -6  15  -6   29.60    5.00
  -7  15  -6   22.40    3.60
   0  14  -6   38.30    4.90
  -1  14  -6  531.35   18.80
   1 -14   6  497.25   18.60
  -2  14  -6   99.79    6.10
   2 -14   6  106.09    7.60
  -3  14  -6   52.19    5.10
   3 -14   6   56.19    3.90
  -4  14  -6  695.03   25.30
   4 -14   6  734.93   24.80
  -5  14  -6  569.94   20.50
   5 -14   6  558.34   19.60
  -6  14  -6  634.54   22.30
   6 -14   6  623.84   21.70
  -7  14  -6  872.81   30.10
   2  13  -6 1082.39   37.40
   1  13  -6  249.68   10.20
   0  13  -6  173.68    7.50
   0 -13   6  160.48    7.40
  -1  13  -6   67.59    4.70
   1 -13   6   58.99    4.70
  -2  13  -6    1.40    1.90
   2 -13   6   -2.10    2.20
   2 -13   6    1.30    1.60
  -3  13  -6  906.71   31.90
   3 -13   6  928.71   32.00
   3 -13   6  928.21   31.50
  -4  13  -6  447.66   17.20
   4 -13   6  502.35   16.70
  -5  13  -6 1010.20   34.40
   5 -13   6  982.70   33.80
  -6  13  -6 1570.44   51.99
   6 -13   6 1498.05   51.59
  -7  13  -6   26.20    3.40
   7 -13   6   27.50    2.30
  -8  13  -6  734.93   25.20
   4  12  -6  233.58    9.80
   3  12  -6  798.42   27.90
   2  12  -6  668.33   23.10
  -2 -12   6  639.54   22.60
   1  12  -6  190.48    7.80
  -1 -12   6  172.28    7.40
   0  12  -6  958.40   31.80
   0 -12   6  942.61   31.70
   0 -12   6  865.31   31.70
  -1  12  -6   14.10    2.10
   1 -12   6    9.40    2.20
   1 -12   6   11.60    1.80
   2 -12   6  903.01   30.90
   2 -12   6  901.21   31.20
  -3  12  -6  294.57   11.30
   3 -12   6  312.87   11.00
   3 -12   6  303.27   11.60
  -4  12  -6  937.41   33.70
   4 -12   6  975.80   33.90
   4 -12   6 1035.60   33.40
  -5  12  -6  809.82   27.30
   5 -12   6  741.13   27.60
   5 -12   6  812.12   26.80
  -6  12  -6   29.30    3.20
   6 -12   6   30.90    2.60
  -7  12  -6  779.32   27.20
   7 -12   6  817.52   27.00
  -8  12  -6  399.36   14.20
  -8  12  -6  408.66   15.90
   8 -12   6  412.06   13.90
  -9  12  -6   14.20    3.30
 -10  12  -6  350.16   14.40
 -11  12  -6   22.70    4.70
   5  11  -6    6.00    2.40
   4  11  -6  219.78    9.20
   3  11  -6  226.58    9.10
  -3 -11   6  221.88    8.30
   2  11  -6  609.84   21.40
  -2 -11   6  602.54   21.00
   1  11  -6 3226.48  106.59
  -1 -11   6 3072.69  106.59
  -1 -11   6 3231.88  106.39
   0  11  -6   60.79    3.80
   0 -11   6   52.89    3.50
   0 -11   6   50.79    3.70
  -1  11  -6 1043.50   35.10
   1 -11   6  998.10   35.00
   1 -11   6 1045.10   35.20
  -2  11  -6  249.97    9.40
   2 -11   6  243.18    9.60
   2 -11   6  251.77    9.10
  -3  11  -6   14.50    1.80
   3 -11   6   15.30    2.10
   3 -11   6   14.70    2.10
  -4  11  -6  248.28    9.60
   4 -11   6  270.27    9.20
   4 -11   6  253.77    9.90
  -5  11  -6  240.18    8.70
  -5  11  -6  227.48    9.40
   5 -11   6  234.48    8.10
   5 -11   6  206.18    9.00
  -6  11  -6  861.01   29.40
  -6  11  -6  898.21   30.40
   6 -11   6  803.82   29.90
   6 -11   6  894.41   29.20
  -7  11  -6 1569.84   54.79
  -7  11  -6 1667.33   55.99
   7 -11   6 1669.53   54.69
  -8  11  -6    2.10    2.70
   8 -11   6    3.30    0.80
  -9  11  -6 1144.89   40.00
 -10  11  -6   36.80    5.90
 -11  11  -6  290.47   12.80
   6  10  -6   34.70    4.60
   5  10  -6  416.86   15.40
   4  10  -6  476.75   16.90
  -4 -10   6  462.15   16.00
   3  10  -6  713.83   24.80
  -3 -10   6  709.73   24.20
   2  10  -6 2745.13   90.39
  -2 -10   6 2636.44   90.49
  -2 -10   6 2690.93   90.19
   1  10  -6   31.30    3.00
  -1 -10   6   29.70    2.90
  -1 -10   6   26.90    2.70
   0  10  -6 1184.88   41.10
   0 -10   6 1212.68   41.20
   0 -10   6 1244.68   41.20
  -1  10  -6  788.62   27.10
   1 -10   6  785.92   27.10
   1 -10   6  795.22   27.00
  -2  10  -6   15.50    2.30
   2 -10   6   15.90    2.60
   2 -10   6   13.40    1.90
  -3  10  -6  512.15   17.80
  -3  10  -6  455.15   17.20
   3 -10   6  519.45   17.60
  -4  10  -6   78.69    6.10
  -4  10  -6   91.69    4.20
   4 -10   6  102.29    3.80
   4 -10   6   94.19    4.60
  -5  10  -6  652.63   23.10
  -5  10  -6  650.93   22.20
   5 -10   6  656.33   22.00
   5 -10   6  640.14   22.70
  -6  10  -6 1902.81   64.79
  -6  10  -6 1949.70   65.79
   6 -10   6 2018.20   64.69
   6 -10   6 1875.91   65.49
  -7  10  -6  294.17   11.30
  -7  10  -6  271.57    9.70
   7 -10   6  251.67   10.60
   7 -10   6  292.77    9.50
  -8  10  -6 2066.19   70.29
  -9  10  -6  671.03   24.30
 -10  10  -6  305.97   12.80
 -11  10  -6  147.29    8.60
 -12  10  -6    2.90    3.80
   7   9  -6  273.47   11.00
   6   9  -6 1518.75   51.69
   5   9  -6  320.37   12.00
   4   9  -6  271.87   10.40
  -4  -9   6  273.97   11.10
  -4  -9   6  274.07    9.50
   3   9  -6  408.96   14.30
  -3  -9   6  382.46   14.40
  -3  -9   6  402.66   13.80
   2   9  -6   30.20    3.40
  -2  -9   6   29.70    2.30
  -2  -9   6   30.60    2.90
   1   9  -6  430.36   14.70
  -1  -9   6  400.36   14.80
  -1  -9   6  415.36   14.70
   0   9  -6 1736.73   58.59
   0  -9   6 1766.12   58.69
   0  -9   6 1727.23   58.69
  -1   9  -6  132.39    5.80
  -1   9  -6  138.39    5.40
   1  -9   6  138.49    5.60
   1  -9   6  133.39    5.30
  -2   9  -6 3755.22  128.89
  -2   9  -6 3911.51  130.19
   2  -9   6 4049.49  128.59
   2  -9   6 3568.44  127.79
  -3   9  -6  570.64   21.60
  -3   9  -6  651.23   22.20
   3  -9   6  647.74   22.00
   3  -9   6  662.03   21.50
  -4   9  -6  894.81   31.40
  -4   9  -6  890.71   30.70
   4  -9   6  927.21   30.60
   4  -9   6  923.11   31.20
  -5   9  -6 1073.59   36.00
  -5   9  -6 1005.30   37.30
   5  -9   6 1108.39   35.90
   5  -9   6 1094.49   36.60
  -6   9  -6  259.67   10.10
  -6   9  -6  245.88    8.70
   6  -9   6  259.27    8.60
   6  -9   6  245.78    9.60
  -7   9  -6 1655.23   55.29
   7  -9   6 1586.04   54.99
  -8   9  -6  245.78   10.60
   8  -9   6  271.17   12.00
  -9   9  -6  640.64   23.20
 -10   9  -6  775.42   27.80
 -11   9  -6  162.88    8.80
 -12   9  -6  224.98   11.00
   8   8  -6   59.09    5.10
   7   8  -6  989.90   34.20
   6   8  -6  532.75   19.00
   5   8  -6   79.69    4.40
  -5  -8   6   70.89    4.70
   4   8  -6  183.48    7.30
  -4  -8   6  187.18    6.50
  -4  -8   6  177.28    7.50
  -3  -8   6  233.58    9.00
  -3  -8   6  236.18    8.30
   2   8  -6   76.09    3.70
  -2  -8   6   71.59    3.80
  -2  -8   6   74.29    3.30
   1   8  -6 3866.11  127.29
  -1  -8   6 3947.81  127.49
  -1  -8   6 3493.55  125.89
   0   8  -6   94.39    4.20
   0   8  -6   93.89    4.00
   0  -8   6   90.29    4.40
   0  -8   6   94.89    4.00
  -1   8  -6 3391.86  112.89
  -1   8  -6 3247.68  112.99
   1  -8   6 3346.77  112.39
   1  -8   6 3309.87  112.29
  -2   8  -6  334.07   12.00
  -2   8  -6  340.17   12.50
   2  -8   6  348.97   12.30
   2  -8   6  356.46   12.00
  -3   8  -6  422.56   14.90
  -3   8  -6  375.76   14.20
   3  -8   6  432.86   14.70
   3  -8   6  425.76   14.10
  -4   8  -6  620.64   21.80
  -4   8  -6  625.84   21.00
   4  -8   6  621.04   20.90
   4  -8   6  615.94   21.50
  -5   8  -6   19.80    1.40
  -5   8  -6   21.00    3.20
   5  -8   6   20.30    1.10
   5  -8   6   20.70    2.50
  -6   8  -6  853.11   29.70
   6  -8   6  856.81   29.40
  -7   8  -6  162.38    7.30
   7  -8   6  157.48    6.70
  -8   8  -6  211.48    8.90
   8  -8   6  193.58    8.20
  -9   8  -6 2024.00   68.89
 -10   8  -6   81.19    6.20
 -11   8  -6 1100.29   38.70
 -12   8  -6  355.86   14.90
   9   7  -6    1.90    2.40
   8   7  -6  479.35   17.40
   7   7  -6  540.15   19.20
   6   7  -6  150.68    6.50
   5   7  -6 1083.89   36.90
  -5  -7   6 1081.99   37.20
  -4  -7   6 1855.41   60.69
  -4  -7   6 1772.32   61.29
   3   7  -6  696.83   24.30
  -3  -7   6  730.53   24.50
  -3  -7   6  700.53   23.90
   2   7  -6 2122.39   68.49
  -2  -7   6 1919.11   66.89
  -2  -7   6 1960.60   67.19
   1   7  -6   47.90    2.60
   1   7  -6   51.19    2.60
  -1  -7   6   48.20    2.70
  -1  -7   6   47.50    2.50
   0   7  -6 2216.88   74.09
   0   7  -6 2250.87   74.59
   0  -7   6 2132.09   73.19
   0  -7   6 2151.88   73.29
  -1   7  -6  490.05   17.40
  -1   7  -6  502.85   17.10
   1  -7   6  505.85   17.10
  -2   7  -6  584.34   20.60
  -2   7  -6  612.14   21.10
   2  -7   6  641.24   21.00
   2  -7   6  602.54   20.60
  -3   7  -6 2194.28   75.39
  -3   7  -6 2182.68   75.19
   3  -7   6 2180.38   75.19
   3  -7   6 2401.86   75.29
  -4   7  -6   92.49    4.70
  -4   7  -6   94.89    3.40
   4  -7   6   95.79    4.30
  -5   7  -6   73.49    4.20
   5  -7   6   76.49    3.80
  -6   7  -6  699.23   26.40
   6  -7   6  789.02   25.80
  -7   7  -6  107.39    5.60
   7  -7   6  104.19    5.00
  -8   7  -6 1794.02   60.69
   8  -7   6 1769.62   60.29
  -9   7  -6    3.40    2.50
   9  -7   6    2.70    3.30
 -10   7  -6 1559.24   53.59
 -11   7  -6  409.76   16.10
 -12   7  -6   28.70    4.20
  10   6  -6   31.70    4.80
   9   6  -6   20.20    2.60
   8   6  -6 1806.32   61.19
   7   6  -6  101.89    5.20
   6   6  -6 4845.92  164.68
   4   6  -6 1888.41   65.79
  -4  -6   6 1900.11   65.89
  -4  -6   6 2081.19   65.59
   3   6  -6 1150.28   39.60
  -3  -6   6 1201.58   39.70
  -3  -6   6 1160.28   39.20
   2   6  -6    1.40    0.80
   2   6  -6    1.60    0.90
  -2  -6   6    1.30    1.00
  -2  -6   6    1.90    0.70
   1   6  -6  578.24   19.80
   1   6  -6  565.74   19.80
  -1  -6   6  588.94   19.70
  -1  -6   6  584.94   19.90
   0   6  -6  887.21   30.70
   0   6  -6  880.21   30.50
   0  -6   6  931.01   30.60
   0  -6   6  918.11   30.50
  -1   6  -6   10.00    1.40
  -1   6  -6    9.90    1.20
   1  -6   6    7.90    1.10
   1  -6   6    7.60    1.10
  -2   6  -6 3354.36  116.49
  -2   6  -6 3422.76  116.99
   2  -6   6 3612.24  116.79
   2  -6   6 3499.15  117.09
  -3   6  -6  642.14   23.10
   3  -6   6  692.63   22.90
  -4   6  -6 2677.03   91.89
   4  -6   6 2794.02   91.69
  -5   6  -6 1383.66   47.10
   5  -6   6 1385.86   46.80
  -6   6  -6   84.69    4.60
   6  -6   6   85.39    4.10
  -7   6  -6  959.20   33.30
   7  -6   6  964.80   32.90
  -8   6  -6   11.40    2.50
   8  -6   6   10.80    2.00
  -9   6  -6  246.78   10.10
   9  -6   6  227.58    9.30
 -10   6  -6  332.17   13.40
  10  -6   6  332.57   11.30
 -11   6  -6    0.50    3.20
 -12   6  -6  768.32   28.00
  11   5  -6  339.07   14.70
  10   5  -6  118.29    6.40
   9   5  -6 1909.41   64.69
   8   5  -6   48.40    3.90
   7   5  -6 1548.05   52.49
   6   5  -6  396.16   14.20
   5   5  -6  474.65   16.60
   4   5  -6  857.81   28.50
  -4  -5   6  810.12   27.90
   3   5  -6   64.49    3.20
   3   5  -6   64.79    2.70
  -3  -5   6   64.59    2.60
   2   5  -6 2661.23   93.09
   2   5  -6 2815.92   92.99
  -2  -5   6 2759.22   92.79
   1   5  -6 2752.42   92.69
   1   5  -6 2718.83   92.39
  -1  -5   6 2696.93   91.89
   0   5  -6    3.40    1.00
   0   5  -6    5.30    1.10
   0  -5   6    3.90    0.90
  -1   5  -6 3177.18  107.89
  -1   5  -6 3090.19  108.59
   1  -5   6 3358.66  109.19
  -2   5  -6  675.63   22.30
  -2   5  -6  630.24   21.80
   2  -5   6  637.64   22.50
  -3   5  -6 5285.77  184.28
   3  -5   6 5569.64  183.78
  -4   5  -6 3125.39  100.99
   4  -5   6 2782.12   98.79
  -5   5  -6  443.86   16.00
   5  -5   6  452.85   15.70
  -6   5  -6 1219.98   41.50
   6  -5   6 1208.48   41.20
   7  -5   6  362.46   13.10
  -8   5  -6   26.60    4.00
   8  -5   6   26.60    3.00
  -9   5  -6  267.17   10.70
   9  -5   6  259.57    9.10
   9  -5   6  261.17    8.90
   9  -5   6  240.48    9.80
 -10   5  -6   20.30    3.40
  10  -5   6   26.30    2.00
  10  -5   6   26.50    2.30
 -11   5  -6  989.70   34.90
  11   4  -6  447.36   16.60
  10   4  -6  848.72   29.60
   9   4  -6  124.29    6.00
   8   4  -6  350.66   12.90
   7   4  -6   22.70    2.90
   6   4  -6    5.30    1.40
   5   4  -6 2886.11   98.29
   4   4  -6 2196.48   74.69
   4   4  -6 2252.87   75.99
   3   4  -6 1672.43   56.59
   3   4  -6 1650.43   56.09
  -3  -4   6 1651.43   55.89
   2   4  -6 2630.04   87.99
   2   4  -6 2552.94   88.39
  -2  -4   6 2611.54   87.89
   1   4  -6   67.79    2.90
   1   4  -6   66.59    2.90
  -1  -4   6   66.19    2.80
   0   4  -6 2262.07   76.69
   0   4  -6 2198.68   75.69
   0  -4   6 2262.87   76.29
  -1   4  -6   53.89    2.10
  -1   4  -6   51.29    2.60
   1  -4   6   53.09    2.50
  -2   4  -6 3537.35  121.89
   2  -4   6 3609.64  121.19
  -3   4  -6  576.54   20.00
   3  -4   6  578.84   19.90
  -4   4  -6   95.79    4.40
   4  -4   6   96.09    4.10
  -5   4  -6 1400.96   48.60
   5  -4   6 1464.15   48.40
  -6   4  -6  884.51   30.40
   6  -4   6  877.71   30.10
  -7   4  -6  138.29    7.20
   7  -4   6  151.68    6.20
   7  -4   6  154.58    5.50
   7  -4   6  153.48    5.30
  -8   4  -6 1203.18   40.20
   8  -4   6 1148.79   39.30
   8  -4   6 1147.79   39.10
   8  -4   6 1168.28   39.70
  -9   4  -6  178.18    8.20
   9  -4   6  177.78    6.70
   9  -4   6  182.78    6.40
   9  -4   6  162.78    7.20
 -10   4  -6  856.81   29.70
  10  -4   6  814.02   28.60
  10  -4   6  839.62   28.30
 -11   4  -6  145.49    8.40
  12   3  -6  150.48    7.60
  11   3  -6  368.46   14.00
  10   3  -6   14.30    2.30
   9   3  -6  385.26   14.20
   8   3  -6 2123.19   71.59
   7   3  -6  492.85   17.40
   6   3  -6 2954.60   98.99
   5   3  -6 1379.56   46.60
   4   3  -6 2712.93   91.09
   4   3  -6 2710.93   92.69
   3   3  -6 2546.65   85.69
   3   3  -6 2667.53   85.29
  -3  -3   6 2354.16   85.09
   2   3  -6  919.91   31.50
   2   3  -6  941.81   31.40
  -2  -3   6  931.61   31.40
   1   3  -6 1442.66   50.29
   1   3  -6 1518.85   50.99
  -1  -3   6 1491.75   50.69
   0   3  -6   38.10    1.70
   0   3  -6   40.10    2.10
   0  -3   6   37.70    1.90
  -1   3  -6   28.10    1.90
  -1   3  -6   25.40    1.20
   1  -3   6   23.50    1.60
  -2   3  -6  913.71   30.90
   2  -3   6  904.81   30.80
   3  -3   6    4.60    0.90
  -4   3  -6 2830.32  100.89
   4  -3   6 3194.08  102.49
  -5   3  -6 1218.88   40.60
   5  -3   6 1144.99   39.80
   5  -3   6 1213.28   40.40
  -6   3  -6  654.73   22.20
   6  -3   6  610.84   21.30
   6  -3   6  634.84   21.90
  -7   3  -6 1823.22   62.69
   7  -3   6 1854.41   61.79
   7  -3   6 1872.41   62.39
  -8   3  -6   81.39    5.10
   8  -3   6   81.19    3.40
   8  -3   6   77.39    4.20
  -9   3  -6  118.29    6.60
   9  -3   6  116.49    4.60
   9  -3   6  107.79    5.40
 -10   3  -6  250.97   10.90
  10  -3   6  251.47    9.10
 -11   3  -6    5.60    3.70
  11  -3   6    7.50    2.10
  12   2  -6  418.06   15.70
  11   2  -6  927.91   32.30
  10   2  -6  715.93   25.10
   9   2  -6 2024.10   68.29
   8   2  -6  113.19    5.90
   7   2  -6 2373.56   79.79
   6   2  -6 1309.77   44.30
   5   2  -6 2170.38   73.39
   5   2  -6 2198.38   74.59
   4   2  -6 1711.03   57.89
   3   2  -6   49.40    2.20
   2   2  -6  794.32   26.50
  -2  -2   6  774.22   26.50
   1   2  -6 2294.57   76.09
   1   2  -6 2184.38   75.79
  -1  -2   6 2231.88   76.19
   0   2  -6    4.90    0.80
   0   2  -6    6.40    0.90
   0  -2   6    5.00    0.80
  -1   2  -6 2624.84   89.49
  -1   2  -6 2580.34   87.79
   1  -2   6 2653.63   88.99
   1  -2   6 2585.24   87.99
  -2   2  -6  299.87   10.20
  -2   2  -6  302.77   10.70
   2  -2   6  296.17   10.30
   2  -2   6  299.87   10.60
  -3   2  -6 1111.69   38.60
  -3   2  -6 1196.98   38.30
   3  -2   6 1118.99   38.10
   3  -2   6 1133.69   38.50
  -4   2  -6 1123.09   36.90
  -4   2  -6 1110.09   37.40
   4  -2   6 1108.59   37.30
   4  -2   6 1059.49   36.80
  -5   2  -6  857.71   29.10
  -5   2  -6  907.61   29.80
   5  -2   6  871.61   29.50
   5  -2   6  820.52   29.00
  -6   2  -6 1502.85   50.89
   6  -2   6 1470.45   50.09
   6  -2   6 1516.75   50.59
  -7   2  -6    5.40    2.10
   7  -2   6    6.60    1.10
   7  -2   6    7.50    1.70
  -8   2  -6  263.27   10.50
   8  -2   6  269.77    9.30
   8  -2   6  252.07    9.90
  -9   2  -6  336.77   12.90
   9  -2   6  334.27   11.60
   9  -2   6  315.47   12.20
 -10   2  -6   -1.90    3.00
  10  -2   6    1.30    1.50
 -11   2  -6  211.58   10.60
  11  -2   6  232.98    9.80
  13   1  -6  692.03   24.80
  12   1  -6 1537.15   52.49
  11   1  -6  621.34   22.10
  10   1  -6 1807.42   61.19
   9   1  -6  676.93   23.60
   8   1  -6 2315.97   77.89
   7   1  -6   20.20    1.20
   7   1  -6   19.40    2.40
   5   1  -6 2134.29   71.99
   4   1  -6  617.14   20.90
   3   1  -6 1077.79   38.30
   3   1  -6 1197.58   39.20
   2   1  -6 7347.46  239.38
   2   1  -6 6880.01  238.98
   1   1  -6 1086.59   38.70
   1   1  -6 1142.59   38.60
  -1  -1   6 1117.29   38.70
  -1  -1   6 1248.78   39.50
   0   1  -6 5042.80  164.98
   0   1  -6 4646.73  165.78
   0  -1   6 4862.71  165.08
   0  -1   6 5076.19  165.98
  -1   1  -6   82.89    3.20
   1  -1   6   86.29    3.60
   1  -1   6   86.29    3.30
  -2   1  -6  506.75   18.20
  -2   1  -6  527.25   17.80
   2  -1   6  532.55   18.10
   2  -1   6  538.55   17.80
  -3   1  -6  221.88    7.60
  -3   1  -6  209.18    8.10
   3  -1   6  217.08    8.00
   3  -1   6  220.58    7.60
  -4   1  -6  274.87    9.50
  -4   1  -6  261.97   10.00
   4  -1   6  267.17    9.40
   4  -1   6  283.07    9.90
  -5   1  -6  523.25   18.80
  -5   1  -6  541.65   18.30
   5  -1   6  524.15   18.20
   5  -1   6  551.84   18.70
  -6   1  -6  598.44   21.30
  -6   1  -6  607.74   20.80
   6  -1   6  602.34   21.00
   6  -1   6  606.34   20.50
  -7   1  -6  295.37   12.40
   7  -1   6  313.47   10.90
   7  -1   6  317.97   11.40
  -8   1  -6  895.51   30.80
   8  -1   6  886.51   29.80
   8  -1   6  857.01   30.30
  -9   1  -6   48.40    5.00
   9  -1   6   47.00    3.80
   9  -1   6   46.10    3.30
 -10   1  -6  518.85   18.90
  10  -1   6  482.45   17.90
  13   0  -6  226.18   10.00
  12   0  -6  215.28    9.30
  11   0  -6 1303.87   44.10
  11   0  -6 1274.97   43.10
  10   0  -6   23.60    3.50
  10   0  -6   19.60    1.50
   9   0  -6  310.07   10.70
   8   0  -6  545.15   18.50
   6   0  -6 1035.80   35.30
   5   0  -6 1060.79   36.00
   4   0  -6 4319.17  146.69
   3   0  -6 4020.90  138.09
   3   0  -6 4160.08  138.79
   2   0  -6 1342.47   48.00
   2   0  -6 1484.05   48.90
  -2   0   6 1468.05   48.80
   1   0  -6 2056.99   70.99
   1   0  -6 2111.99   70.79
  -1   0   6 2053.69   70.69
   0   0  -6  126.99    5.00
   0   0  -6  132.29    4.80
   0   0   6  134.69    4.90
  -1   0  -6  731.23   24.60
  -1   0  -6  692.23   24.30
   1   0   6  729.53   24.40
   1   0   6  735.03   24.60
  -2   0  -6 2534.65   86.39
  -2   0  -6 2540.05   85.09
   2   0   6 2487.25   84.89
  -3   0  -6  124.39    5.40
  -3   0  -6  136.29    5.00
   3   0   6  142.59    5.40
   3   0   6  132.79    4.90
  -4   0  -6   87.79    4.40
  -4   0  -6   98.19    3.90
   4   0   6   93.19    4.20
   4   0   6   97.19    3.70
  -5   0  -6 1253.17   45.00
  -5   0  -6 1351.36   44.70
   5   0   6 1361.46   44.90
   5   0   6 1335.47   44.50
  -6   0  -6  542.15   20.10
  -6   0  -6  571.44   19.80
   6   0   6  581.64   19.90
   6   0   6  580.44   19.50
  -7   0  -6 1476.55   50.89
   7   0   6 1519.45   50.49
   7   0   6 1509.35   50.89
  -8   0  -6    6.30    2.60
  -8   0  -6    5.40    2.00
   8   0   6    4.60    1.60
   8   0   6    4.60    1.80
  -9   0  -6  805.92   28.60
 -10   0  -6   25.10    4.10
  10   0   6   23.80    3.50
  14  -1  -6   33.80    5.40
  13  -1  -6  173.18    8.40
  12  -1  -6  719.33   25.20
  12  -1  -6  704.03   24.10
  11  -1  -6  480.95   16.90
  11  -1  -6  438.16   17.10
  11  -1  -6  474.25   15.90
  10  -1  -6  112.19    5.50
  10  -1  -6  112.59    4.30
  10  -1  -6   98.79    5.60
   9  -1  -6 3119.29  110.09
   9  -1  -6 3436.06  110.29
   8  -1  -6   40.00    3.10
   8  -1  -6   46.20    2.30
   7  -1  -6 4716.43  159.18
   6  -1  -6   34.50    2.40
   5  -1  -6 4237.88  143.59
  -3   1   6   12.70    1.70
   2  -1  -6  946.21   31.70
  -2   1   6  926.61   31.80
   1  -1  -6  273.37    9.40
   1  -1  -6  256.07    9.40
  -1   1   6  272.77    9.50
   0  -1  -6 1129.79   37.80
   0  -1  -6 1121.99   38.00
   0   1   6 1120.09   37.90
  -1  -1  -6 1337.27   48.40
  -1  -1  -6 1570.24   49.90
   1   1   6 1428.36   48.50
  -2  -1  -6  103.39    4.20
  -2  -1  -6  108.59    4.50
   2   1   6  104.29    4.10
  -3  -1  -6  902.61   31.20
  -3  -1  -6  917.31   30.90
   3   1   6  920.71   30.80
  -4  -1  -6 1459.95   50.29
  -4  -1  -6 1526.75   50.09
   4   1   6 1474.95   49.90
  -5  -1  -6  539.75   18.70
  -5  -1  -6  517.35   18.90
   5   1   6  548.85   18.40
  -6  -1  -6  868.01   29.40
  -6  -1  -6  817.62   29.60
   6   1   6  877.91   29.10
  -7  -1  -6    2.70    1.80
  -7  -1  -6    1.60    2.20
   7   1   6    5.10    1.60
  -8  -1  -6  269.27   11.20
  -8  -1  -6  288.07   11.60
   8   1   6  292.57   10.60
  -9  -1  -6  148.59    8.20
   9   1   6  163.58    6.80
  14  -2  -6   37.80    5.40
  13  -2  -6  507.95   17.90
  13  -2  -6  528.05   19.00
  12  -2  -6  758.02   26.50
  12  -2  -6  745.03   25.60
  11  -2  -6  485.25   16.30
  11  -2  -6  455.15   17.20
  10  -2  -6 3293.97  109.39
  10  -2  -6 3251.07  109.99
   9  -2  -6  131.89    5.10
   9  -2  -6  122.39    5.80
   8  -2  -6 2932.41   98.49
   7  -2  -6  136.29    5.70
   6  -2  -6   69.49    3.40
   5  -2  -6   47.10    2.60
  -5   2   6   46.30    2.80
   4  -2  -6  458.65   15.80
  -4   2   6  446.26   15.90
   3  -2  -6  257.87    9.00
  -3   2   6  238.88    9.00
   2  -2  -6 2462.35   83.69
  -2   2   6 2469.25   84.19
   1  -2  -6 1098.09   37.50
  -1   2   6 1125.99   37.60
   0  -2  -6 5221.18  173.28
   0  -2  -6 5110.09  173.78
   0   2   6 5088.59  173.48
  -1  -2  -6   25.50    2.10
  -1  -2  -6   16.00    1.80
   1   2   6   20.80    1.90
  -2  -2  -6 2905.51   99.59
  -2  -2  -6 3089.39  100.89
   2   2   6 2839.12   99.39
  -3  -2  -6  204.28    7.60
  -3  -2  -6  191.98    7.40
   3   2   6  193.48    7.20
  -4  -2  -6   38.70    2.90
  -4  -2  -6   42.20    3.20
   4   2   6   38.40    2.60
  -5  -2  -6  827.32   28.30
  -5  -2  -6  802.82   28.40
   5   2   6  832.52   28.00
  -6  -2  -6   40.10    4.80
  -6  -2  -6   54.79    4.00
   6   2   6   58.99    3.50
  -7  -2  -6   61.09    4.80
  -7  -2  -6   56.39    5.00
   7   2   6   68.69    4.10
  -8  -2  -6  866.31   32.90
  -8  -2  -6  940.21   33.00
   8   2   6 1019.60   32.30
  -9  -2  -6   12.90    3.60
   9   2   6    9.80    2.30
  14  -3  -6  870.21   30.70
  13  -3  -6  418.16   14.80
  13  -3  -6  421.86   15.80
  12  -3  -6 1846.92   62.59
  12  -3  -6 1801.62   61.39
  11  -3  -6  621.64   21.20
  11  -3  -6  606.84   21.90
  10  -3  -6  120.29    5.80
  10  -3  -6  115.19    5.30
   9  -3  -6 1398.16   47.40
   9  -3  -6 1407.86   47.80
   8  -3  -6  839.92   29.00
   7  -3  -6   80.99    4.00
   6  -3  -6 2253.47   75.79
  -6   3   6 2258.37   75.89
  -5   3   6  363.96   13.00
   4  -3  -6 1414.86   46.70
  -4   3   6 1349.96   46.80
   3  -3  -6 1349.47   44.50
  -3   3   6 1288.67   44.60
   2  -3  -6   14.50    1.70
  -2   3   6   14.50    1.90
   1  -3  -6 2357.16   81.99
  -1   3   6 2546.45   83.69
   0  -3  -6   46.90    2.70
   0  -3  -6   53.99    2.80
   0   3   6   55.79    2.90
  -1  -3  -6 1341.67   46.40
  -1  -3  -6 1388.26   46.50
   1   3   6 1400.46   46.40
  -2  -3  -6  416.16   14.60
  -2  -3  -6  405.76   14.50
   2   3   6  419.56   14.40
  -3  -3  -6  162.78    6.70
  -3  -3  -6  182.48    6.80
   3   3   6  164.08    6.50
  -4  -3  -6  503.95   17.30
  -4  -3  -6  479.45   17.30
   4   3   6  485.85   17.00
  -5  -3  -6  573.44   20.80
  -5  -3  -6  598.54   20.80
   5   3   6  597.74   20.50
  -6  -3  -6  253.87   10.70
  -6  -3  -6  275.57   10.70
   6   3   6  288.47   10.30
  -7  -3  -6 1112.99   39.50
  -7  -3  -6 1080.39   39.50
   7   3   6 1238.48   39.10
  -8  -3  -6   90.99    6.80
   8   3   6  100.59    5.60
  15  -4  -6 1103.09   38.50
  14  -4  -6   92.69    6.40
  13  -4  -6  947.91   32.50
  12  -4  -6   41.40    4.40
  12  -4  -6   51.89    3.30
  11  -4  -6   17.10    2.50
  11  -4  -6   14.00    2.20
  10  -4  -6  522.25   18.70
  10  -4  -6  521.75   18.30
   9  -4  -6 1463.25   48.60
   9  -4  -6 1389.16   48.20
   8  -4  -6    6.60    1.50
   7  -4  -6 8148.08  270.87
  -7   4   6 7899.71  271.87
   6  -4  -6  377.86   13.40
  -6   4   6  366.56   13.50
   5  -4  -6 2216.68   72.49
  -5   4   6 2096.59   72.59
   4  -4  -6  213.48    8.00
   3  -4  -6   44.30    2.60
  -3   4   6   45.40    2.90
   2  -4  -6 1689.53   56.09
  -2   4   6 1642.34   56.19
   1  -4  -6  296.97   10.60
  -1   4   6  296.17   10.70
   0  -4  -6  383.46   13.60
   0   4   6  391.96   13.70
  -1  -4  -6 1555.84   52.39
  -1  -4  -6 1548.65   52.39
   1   4   6 1554.94   52.29
  -2  -4  -6  267.37    9.70
  -2  -4  -6  260.37    9.70
   2   4   6  252.97    9.50
  -3  -4  -6 1271.97   42.70
  -3  -4  -6 1246.88   42.80
   3   4   6 1254.37   42.60
  -4  -4  -6  396.96   13.80
  -4  -4  -6  361.06   13.90
  -5  -4  -6  493.55   18.80
  -5  -4  -6  548.65   18.90
   5   4   6  528.65   18.40
  -6  -4  -6  439.96   17.70
  -6  -4  -6  511.55   17.70
   6   4   6  494.85   17.20
  -7  -4  -6   41.10    5.30
   7   4   6   40.00    4.30
  15  -5  -6  146.19    8.10
  14  -5  -6    6.90    2.10
  13  -5  -6  359.36   13.30
  12  -5  -6  270.67   10.10
  12  -5  -6  256.67   10.70
  11  -5  -6  556.14   19.50
  11  -5  -6  549.54   19.90
  10  -5  -6 1352.76   47.20
  10  -5  -6 1412.86   47.00
   9  -5  -6  701.73   24.50
   8  -5  -6 3335.87  115.69
  -8   5   6 3567.84  117.79
   6  -5  -6 1422.66   46.80
  -6   5   6 1338.27   46.90
   5  -5  -6  939.71   30.90
  -5   5   6  860.81   30.90
   4  -5  -6    0.20    1.10
  -4   5   6    1.50    1.40
   3  -5  -6  309.97   11.20
  -3   5   6  313.57   11.40
   2  -5  -6  563.14   19.40
  -2   5   6  560.54   19.60
   1  -5  -6  168.18    6.40
  -1   5   6  158.18    6.50
   0  -5  -6 1914.71   63.99
   0   5   6 1889.21   63.99
  -1  -5  -6    6.80    1.40
   1   5   6    4.80    1.40
  -2  -5  -6 2075.39   70.69
  -2  -5  -6 2155.48   70.89
   2   5   6 2073.69   70.69
  -3  -5  -6  773.42   27.60
  -3  -5  -6  821.12   27.50
   3   5   6  795.72   27.40
  -4  -5  -6  353.36   12.70
  -4  -5  -6  323.67   12.80
   4   5   6  340.27   12.50
  -5  -5  -6   74.09    4.80
   5   5   6   54.79    4.40
  -6  -5  -6   31.20    4.60
   6   5   6   23.90    4.10
  -7  -5  -6   20.90    3.50
   7   5   6   19.70    3.00
  14  -6  -6 1667.03   56.69
  13  -6  -6  788.12   27.50
  12  -6  -6  988.00   33.90
  12  -6  -6  979.70   34.30
  11  -6  -6  684.63   24.50
  11  -6  -6  697.33   24.20
  10  -6  -6   83.39    4.50
  10  -6  -6   81.59    4.80
   9  -6  -6  172.88    7.30
  -9   6   6  170.48    7.50
   8  -6  -6  109.19    5.30
  -8   6   6  115.79    5.60
   7  -6  -6  317.27   11.60
  -7   6   6  306.87   11.80
   6  -6  -6 1598.34   53.09
  -6   6   6 1538.05   53.29
   5  -6  -6  456.55   15.90
  -5   6   6  442.96   16.20
   4  -6  -6 1987.80   67.49
  -4   6   6 2022.00   67.69
   3  -6  -6 1208.68   40.80
  -3   6   6 1198.38   41.00
   2  -6  -6  456.15   16.10
  -2   6   6  462.45   16.30
   1  -6  -6 1089.09   37.60
  -1   6   6 1123.49   37.70
   0  -6  -6   71.99    4.10
   0   6   6   85.29    4.20
  -1  -6  -6 1406.96   47.40
  -1  -6  -6 1365.76   47.20
   1   6   6 1412.36   47.30
  -2  -6  -6 1127.59   41.10
  -2  -6  -6 1214.48   41.00
   2   6   6 1249.28   40.80
  -3  -6  -6    4.90    1.90
  -3  -6  -6    2.00    2.10
   3   6   6    2.20    1.90
  -4  -6  -6  262.37   10.20
   4   6   6  259.67   10.20
  -5  -6  -6  302.97   11.50
   5   6   6  283.17   11.40
  -6  -6  -6  180.08    8.30
   6   6   6  161.48    8.10
  14  -7  -6  517.85   18.90
  13  -7  -6  467.15   17.10
  12  -7  -6  517.75   18.50
  12  -7  -6  505.35   18.80
  11  -7  -6  125.39    6.10
  11  -7  -6  125.89    6.30
  10  -7  -6   68.69    4.40
  10  -7  -6   74.79    4.60
 -10   7   6   69.39    5.00
   9  -7  -6  431.66   16.00
  -9   7   6  448.26   16.30
   8  -7  -6   89.39    4.70
  -8   7   6   84.89    5.00
   7  -7  -6 2378.76   79.19
  -7   7   6 2318.37   79.39
   6  -7  -6  445.86   15.80
  -6   7   6  439.96   16.10
   5  -7  -6 1434.06   48.90
  -5   7   6 1455.25   49.30
   4  -7  -6 1497.35   50.99
  -4   7   6 1519.35   51.29
   3  -7  -6  596.84   20.90
  -3   7   6  605.84   21.20
   2  -7  -6  955.00   32.00
  -2   7   6  915.71   32.30
   1  -7  -6  105.99    5.10
  -1   7   6  115.09    5.40
   0  -7  -6   75.39    4.40
   0   7   6   80.09    4.50
  -1  -7  -6  409.66   15.70
  -1  -7  -6  439.36   15.50
   1   7   6  454.65   15.70
  -2  -7  -6   19.30    3.20
  -2  -7  -6   22.60    3.30
   2   7   6   25.50    3.70
  -3  -7  -6 1586.34   53.69
   3   7   6 1577.14   53.69
  -4  -7  -6  403.56   14.60
   4   7   6  384.86   14.70
  -5  -7  -6  530.45   18.70
   5   7   6  496.25   18.80
  12  -8  -6  331.47   12.90
  11  -8  -6  897.61   31.80
  11  -8  -6  897.41   31.90
 -11   8   6  946.11   32.10
  10  -8  -6 1769.52   59.79
  10  -8  -6 1734.93   59.79
 -10   8   6 1767.62   59.99
   9  -8  -6  203.68    8.40
  -9   8   6  200.88    8.80
   8  -8  -6 1352.56   45.70
  -8   8   6 1324.37   46.00
   7  -8  -6   75.39    4.30
  -7   8   6   76.89    4.90
   6  -8  -6 1823.72   60.19
  -6   8   6 1736.83   60.69
   5  -8  -6  530.95   18.90
  -5   8   6  542.95   19.40
   4  -8  -6  300.47   11.30
  -4   8   6  315.07   11.80
   3  -8  -6  526.55   18.80
  -3   8   6  544.25   19.20
   2  -8  -6  312.47   12.10
  -2   8   6  349.17   12.50
   1  -8  -6  179.98    7.70
  -1   8   6  199.28    8.00
   0  -8  -6  452.45   17.30
   0   8   6  507.45   17.30
  -1  -8  -6  138.99    6.20
   1   8   6  141.59    6.60
  -2  -8  -6 1167.18   41.30
   2   8   6 1254.47   41.60
  -3  -8  -6  111.29    6.00
   3   8   6  108.99    6.40
  -4  -8  -6  568.94   19.80
   4   8   6  522.65   19.90
 -11   9   6 1459.65   50.29
  10  -9  -6  161.28    7.60
  10  -9  -6  156.18    7.40
 -10   9   6  165.38    7.90
   9  -9  -6  697.33   25.20
  -9   9   6  737.03   25.70
   8  -9  -6   17.80    2.20
  -8   9   6   14.00    2.50
   7  -9  -6   58.89    3.90
  -7   9   6   61.89    4.90
   6  -9  -6  895.31   31.40
  -6   9   6  928.01   31.90
   5  -9  -6   42.90    3.50
  -5   9   6   48.10    4.40
   4  -9  -6 1163.48   40.90
  -4   9   6 1236.88   41.40
   3  -9  -6  872.41   31.50
  -3   9   6  956.90   31.90
   2  -9  -6  701.23   25.00
  -2   9   6  698.13   24.70
  -1   9   6  847.12   29.60
   0   9   6   25.00    2.90
  -1  -9  -6  359.86   13.30
   1   9   6  362.36   13.80
  -2  -9  -6   10.90    2.50
   2   9   6   14.30    2.80
  -3  -9  -6  123.99    6.60
   3   9   6  111.39    6.90
 -12  10   6  958.30   34.30
 -11  10   6  152.68    8.40
 -10  10   6  602.14   22.10
  -9  10   6  207.28    9.60
   8 -10  -6    9.00    2.10
  -8  10   6    6.90    2.60
   7 -10  -6  575.54   21.30
  -7  10   6  635.64   22.10
   6 -10  -6   39.00    3.70
  -6  10   6   49.50    4.90
  -5  10   6 1456.75   50.09
  -4  10   6  871.61   30.60
  -3  10   6  609.74   21.90
  -2  10   6 1222.78   42.20
  -1  10   6    7.90    2.50
   0  10   6   74.99    5.80
  -1 -10  -6  113.29    6.00
   1  10   6  111.69    6.90
  -2 -10  -6    2.00    2.60
 -13  11   6  221.88   10.80
 -12  11   6    9.30    3.30
 -11  11   6  533.85   20.30
 -10  11   6 1332.97   46.40
  -9  11   6  303.17   12.90
  -8  11   6 1358.86   47.20
  -7  11   6    2.00    2.80
  -6  11   6 1012.40   35.60
  -5  11   6   41.90    5.30
  -4  11   6  161.18    8.10
  -3  11   6  947.01   33.30
  -2  11   6   47.60    5.40
  -1  11   6  367.46   14.50
   0  11   6  577.94   21.30
 -13  12   6   96.29    7.90
 -12  12   6  659.83   24.60
 -11  12   6  762.92   27.90
 -10  12   6  416.86   16.90
  -9  12   6 1630.24   56.39
  -8  12   6    6.60    3.20
  -7  12   6  358.36   14.70
  -6  12   6   28.50    3.70
  -4  12   6  345.37   14.00
  -3  12   6    7.50    3.00
  -2  12   6  583.54   21.60
 -11  13   6  108.19    8.60
 -10  13   6  419.06   17.30
  -9  13   6  162.58    9.70
  -8  13   6  107.09    8.30
  -7  13   6  316.97   13.80
  -6  13   6   14.20    3.70
  -5  13   6  436.56   17.30
  -4  13   6  216.28   12.40
  -3  15  -7   90.29    6.70
  -4  15  -7 1189.38   41.10
  -5  15  -7  465.05   17.40
  -6  15  -7  131.99    6.90
   0  14  -7  255.07   10.50
  -1  14  -7 1296.27   43.50
   1 -14   7 1235.88   43.30
  -2  14  -7   54.59    4.90
  -3  14  -7  742.93   26.20
   3 -14   7  741.73   25.70
  -4  14  -7  742.63   26.30
   4 -14   7  752.82   25.80
  -5  14  -7   19.20    2.90
   5 -14   7   18.40    2.70
  -6  14  -7  966.60   33.30
   2  13  -7  771.22   27.10
   1  13  -7  497.95   18.10
   0  13  -7  634.74   21.90
   0 -13   7  594.54   21.60
  -1  13  -7   86.39    5.10
   1 -13   7   80.39    4.60
   1 -13   7   83.39    5.00
  -2  13  -7  209.08    8.60
   2 -13   7  211.78    8.70
   2 -13   7  206.58    8.20
  -3  13  -7  363.16   15.70
   3 -13   7  439.46   14.50
   3 -13   7  405.26   15.00
  -4  13  -7    2.40    2.10
   4 -13   7    2.10    1.40
  -5  13  -7 2042.80   68.39
   5 -13   7 2013.40   68.09
  -6  13  -7  722.33   24.80
   6 -13   7  716.43   24.50
  -7  13  -7  572.64   19.80
  -9  13  -7   73.19    6.90
   4  12  -7  679.93   24.20
   3  12  -7  484.35   17.70
   2  12  -7   56.39    4.40
  -2 -12   7   46.50    3.80
   1  12  -7  219.58    8.70
  -1 -12   7  204.88    8.30
   0  12  -7  272.37    9.90
   0 -12   7  251.37    9.80
   0 -12   7  238.18    9.70
  -1  12  -7   85.19    4.60
   1 -12   7   80.69    4.60
   1 -12   7   79.49    4.30
  -2  12  -7  817.72   28.40
   2 -12   7  840.32   28.30
   2 -12   7  816.22   28.60
  -3  12  -7   13.50    2.10
   3 -12   7   14.20    2.30
   3 -12   7   15.20    2.30
  -4  12  -7 1712.03   58.19
   4 -12   7 1670.13   58.49
   4 -12   7 1792.12   57.99
  -5  12  -7  563.84   21.00
  -5  12  -7  590.64   20.20
   5 -12   7  583.84   19.90
  -6  12  -7 1030.10   35.80
  -6  12  -7 1006.10   34.70
   6 -12   7 1036.70   34.50
  -7  12  -7 1115.19   38.00
  -7  12  -7 1042.30   36.50
   7 -12   7 1096.99   36.40
  -8  12  -7   20.40    3.60
  -9  12  -7  218.08   10.30
 -10  12  -7   85.29    7.00
   5  11  -7  514.45   18.70
   4  11  -7  276.47   11.00
   3  11  -7  202.98    8.30
  -3 -11   7  188.38    7.30
   2  11  -7  898.11   31.00
  -2 -11   7  902.11   30.70
   1  11  -7 2262.87   75.99
  -1 -11   7 2254.57   75.79
  -1 -11   7 2255.47   76.09
   0  11  -7  451.85   15.80
   0 -11   7  446.56   15.70
   0 -11   7  429.26   15.70
  -1  11  -7 1745.33   58.89
   1 -11   7 1775.72   58.99
   1 -11   7 1717.73   58.89
  -2  11  -7  109.89    5.00
   2 -11   7  113.69    5.30
   2 -11   7  113.09    4.80
  -3  11  -7  330.87   13.00
  -3  11  -7  375.16   13.60
   3 -11   7  361.26   13.30
   3 -11   7  387.86   12.80
  -4  11  -7  143.89    5.90
  -4  11  -7  138.59    6.80
   4 -11   7  146.29    5.50
   4 -11   7  129.19    6.20
  -5  11  -7  280.97   10.90
  -5  11  -7  269.87    9.80
   5 -11   7  249.68   10.30
   5 -11   7  276.27    9.50
  -6  11  -7  873.41   30.60
  -6  11  -7  936.81   31.90
   6 -11   7  912.01   30.50
  -7  11  -7   73.59    5.80
  -7  11  -7   76.49    3.20
  -8  11  -7  511.35   19.20
  -9  11  -7  664.13   24.30
 -10  11  -7    5.00    3.40
   6  10  -7   18.80    2.80
   5  10  -7  591.64   21.10
   4  10  -7  146.99    6.50
  -4 -10   7  137.99    5.30
   3  10  -7 2588.14   86.49
  -3 -10   7 2534.05   85.99
  -3 -10   7 2590.14   86.79
   2  10  -7 2204.58   73.69
  -2 -10   7 2174.18   73.79
   1  10  -7  886.41   33.90
  -1 -10   7 1004.20   33.40
  -1 -10   7 1036.50   33.20
   0  10  -7 2006.40   67.99
   0 -10   7 2029.60   68.09
   0 -10   7 2033.10   67.99
  -1  10  -7   85.89    4.10
   1 -10   7   86.89    4.00
   1 -10   7   83.79    4.20
  -2  10  -7  724.83   25.80
  -2  10  -7  760.82   26.30
   2 -10   7  763.82   26.10
   2 -10   7  777.32   25.80
  -3  10  -7   97.19    5.90
  -3  10  -7   93.99    4.40
   3 -10   7  111.69    4.20
   3 -10   7  104.49    4.90
  -4  10  -7  115.19    4.80
  -4  10  -7  114.89    5.80
   4 -10   7  111.99    5.30
   4 -10   7  112.89    4.40
  -5  10  -7 1530.35   51.49
  -5  10  -7 1557.44   52.49
   5 -10   7 1542.65   51.39
   5 -10   7 1516.25   52.19
  -6  10  -7  856.41   28.70
   6 -10   7  770.52   28.20
  -7  10  -7  921.11   32.30
  -8  10  -7 1285.47   44.50
  -9  10  -7   91.99    6.70
 -10  10  -7  706.33   25.80
 -11  10  -7    5.60    3.50
   7   9  -7   93.99    5.90
   6   9  -7 1656.03   56.29
   5   9  -7    3.50    1.90
   4   9  -7 1542.65   51.39
  -4  -9   7 1527.65   50.69
  -4  -9   7 1476.25   51.59
   3   9  -7   20.80    3.10
  -3  -9   7   23.80    2.00
  -3  -9   7   23.70    3.20
  -2  -9   7  894.61   30.20
  -2  -9   7  890.21   30.70
   1   9  -7 1112.19   38.30
  -1  -9   7 1130.99   38.40
  -1  -9   7 1147.29   38.20
   0   9  -7  237.48    9.10
   0   9  -7  244.88    8.90
   0  -9   7  241.08    8.90
   0  -9   7  239.78    8.90
  -1   9  -7 1118.59   38.50
  -1   9  -7 1117.69   38.80
   1  -9   7 1162.48   38.70
   1  -9   7 1158.78   38.50
  -2   9  -7 2158.58   73.79
  -2   9  -7 2043.40   73.39
   2  -9   7 2195.78   73.69
   2  -9   7 2367.26   73.79
  -3   9  -7  398.16   14.60
  -3   9  -7  425.86   15.30
   3  -9   7  435.16   14.50
   3  -9   7  432.56   15.10
  -4   9  -7 2322.37   78.89
   4  -9   7 2425.46   79.09
   4  -9   7 2332.07   79.39
  -5   9  -7   14.80    2.30
  -5   9  -7   16.70    1.50
   5  -9   7   19.60    2.90
  -6   9  -7  910.31   31.10
   6  -9   7  867.41   30.60
  -7   9  -7 1054.19   35.20
   7  -9   7  963.30   34.70
  -8   9  -7  161.98    8.00
  -9   9  -7 1291.27   44.80
 -10   9  -7  143.89    8.20
 -11   9  -7   41.60    6.30
   8   8  -7  210.98    9.20
   7   8  -7 2008.10   67.99
   6   8  -7    4.70    2.00
   5   8  -7  350.56   12.90
   4   8  -7   23.30    2.90
  -4  -8   7   24.10    3.10
  -4  -8   7   24.30    1.70
   3   8  -7    3.20    1.60
  -3  -8   7    2.90    0.90
  -3  -8   7    4.10    1.40
   2   8  -7  789.92   28.10
  -2  -8   7  853.81   28.30
  -2  -8   7  825.02   27.90
   1   8  -7  871.31   30.40
   1   8  -7  883.21   30.40
  -1  -8   7  898.91   30.50
  -1  -8   7  919.41   30.30
   0   8  -7 1220.98   41.80
   0   8  -7 1221.18   42.00
   0  -8   7 1262.77   41.90
   0  -8   7 1259.47   41.90
  -1   8  -7 3988.40  134.29
  -1   8  -7 3950.80  135.19
   1  -8   7 3938.41  133.49
   1  -8   7 4010.20  134.19
  -2   8  -7   92.99    4.00
  -2   8  -7   99.49    4.80
   2  -8   7  100.59    3.90
   2  -8   7  105.79    4.50
  -3   8  -7 2325.07   80.49
  -3   8  -7 2329.37   80.79
   3  -8   7 2393.86   80.69
   3  -8   7 2556.44   80.79
  -4   8  -7   15.20    2.10
  -4   8  -7   17.00    1.40
   4  -8   7   16.90    2.50
  -5   8  -7  950.80   33.50
   5  -8   7  982.90   33.10
  -6   8  -7   95.19    5.40
   6  -8   7   93.09    4.80
  -7   8  -7   37.80    4.20
   7  -8   7   36.70    3.50
  -8   8  -7 1017.50   35.50
  -9   8  -7 1086.29   38.00
 -10   8  -7  110.89    7.60
 -11   8  -7  795.82   28.90
   9   7  -7  208.48    9.10
   8   7  -7  852.41   29.70
   7   7  -7  428.56   15.60
   6   7  -7  235.18    9.20
   5   7  -7 1081.19   36.90
  -4  -7   7  262.87    9.10
   3   7  -7 1015.60   35.40
  -3  -7   7 1065.79   35.50
  -3  -7   7 1043.80   35.00
   2   7  -7  448.46   15.80
   2   7  -7  450.45   15.90
  -2  -7   7  472.15   16.00
  -2  -7   7  454.95   15.70
   1   7  -7 2181.38   77.89
   1   7  -7 2382.36   78.69
  -1  -7   7 2492.35   78.39
  -1  -7   7 2247.88   77.99
   0   7  -7 2839.52   91.29
   0   7  -7 2804.52   91.59
   0  -7   7 2420.36   89.89
   0  -7   7 2665.23   89.69
  -1   7  -7  251.27    9.40
  -1   7  -7  248.88    8.90
   1  -7   7  263.67    9.20
   1  -7   7  248.68    8.90
  -2   7  -7 2032.50   69.99
  -2   7  -7 2067.69   69.89
   2  -7   7 2138.39   69.89
  -3   7  -7  302.57   10.60
  -3   7  -7  307.87   11.50
   3  -7   7  322.07   11.30
  -4   7  -7   71.39    4.20
   4  -7   7   73.09    3.70
  -5   7  -7  376.36   13.70
   5  -7   7  361.66   13.30
  -6   7  -7  154.78    7.00
   6  -7   7  159.18    6.50
  -7   7  -7  887.71   31.00
   7  -7   7  887.51   30.60
  -8   7  -7  816.12   28.30
   8  -7   7  782.72   27.80
  -9   7  -7  290.37   12.00
 -10   7  -7 1595.84   54.99
 -11   7  -7   19.80    4.10
  10   6  -7  116.09    6.60
   9   6  -7  300.87   11.80
   8   6  -7  905.61   31.40
   7   6  -7  501.75   17.90
   6   6  -7 4863.01  164.78
   4   6  -7 3427.36  116.29
  -4  -6   7 3407.06  114.59
   3   6  -7  388.96   13.70
   3   6  -7  386.06   13.40
  -3  -6   7  391.26   13.30
   2   6  -7 1230.98   41.50
   2   6  -7 1230.98   41.60
  -2  -6   7 1239.48   41.40
   1   6  -7  275.27    9.80
   1   6  -7  281.07    9.80
  -1  -6   7  270.97    9.70
   0   6  -7  302.87   10.90
   0   6  -7  299.17   10.60
   0  -6   7  312.87   10.70
  -1   6  -7  889.31   30.30
  -1   6  -7  878.91   30.70
   1  -6   7  933.81   30.60
  -2   6  -7 3659.93  122.29
  -2   6  -7 3463.25  119.99
   2  -6   7 3625.14  120.59
  -3   6  -7  177.88    7.20
   3  -6   7  189.28    7.00
  -4   6  -7 2057.49   70.29
   4  -6   7 2110.39   70.09
  -5   6  -7  154.28    6.70
   5  -6   7  157.78    6.30
  -6   6  -7  521.25   18.70
   6  -6   7  521.25   18.30
  -7   6  -7  123.69    6.20
   7  -6   7  113.39    5.40
  -8   6  -7  575.14   20.00
   8  -6   7  517.35   19.30
  -9   6  -7  967.10   34.00
 -10   6  -7   53.49    6.10
 -11   6  -7  211.68   10.60
  11   5  -7    0.80    3.00
  10   5  -7  508.05   18.50
   9   5  -7  364.26   13.70
   8   5  -7  517.05   18.50
   7   5  -7 1805.62   61.09
   6   5  -7   26.80    2.90
   5   5  -7 3463.15  116.89
   4   5  -7  261.27    9.30
   4   5  -7  260.27    8.80
  -4  -5   7  243.18    8.80
   3   5  -7  243.88    8.70
   3   5  -7  242.38    9.00
  -3  -5   7  255.07    8.60
   2   5  -7  426.76   14.70
   2   5  -7  418.46   14.60
  -2  -5   7  421.86   14.50
   1   5  -7  674.93   22.90
   1   5  -7  668.33   23.00
  -1  -5   7  680.83   22.90
   0   5  -7  669.73   23.00
   0   5  -7  672.03   23.30
   0  -5   7  701.93   23.20
  -1   5  -7 3887.01  132.29
  -1   5  -7 3866.91  130.19
  -2   5  -7  758.72   26.80
   2  -5   7  805.92   26.70
  -3   5  -7 4412.46  147.19
   3  -5   7 4217.18  145.19
  -4   5  -7  592.74   21.00
   4  -5   7  607.34   20.70
  -5   5  -7  418.76   15.40
   5  -5   7  433.76   15.10
   6  -5   7  192.38    7.50
  -7   5  -7   33.80    3.90
   7  -5   7   31.60    3.00
  -8   5  -7  142.49    7.10
   8  -5   7  134.79    6.20
  -9   5  -7  184.28    8.80
 -10   5  -7  509.35   19.20
  10  -5   7  505.15   17.40
 -11   5  -7  964.70   34.40
  11   4  -7  833.32   29.20
  10   4  -7  282.17   11.20
   9   4  -7  567.64   20.20
   8   4  -7  941.21   32.40
   7   4  -7  353.56   12.90
   6   4  -7 1425.26   48.30
   5   4  -7 1211.78   41.10
   4   4  -7    3.80    1.10
   4   4  -7    4.30    0.70
   3   4  -7 2308.37   77.59
   3   4  -7 2212.78   76.59
  -3  -4   7 2283.27   76.89
   2   4  -7  924.41   31.20
   2   4  -7  924.61   31.30
  -2  -4   7  929.61   31.20
   1   4  -7 1272.17   41.60
   1   4  -7 1221.98   41.40
  -1  -4   7 1194.78   41.30
   0   4  -7  578.74   20.00
   0   4  -7  577.54   19.80
   0  -4   7  594.44   19.90
  -1   4  -7  949.51   32.30
  -1   4  -7  928.21   31.90
  -1   4  -7  962.70   32.00
   1  -4   7  962.30   32.20
  -2   4  -7 2094.69   70.39
   2  -4   7 2094.89   70.29
  -3   4  -7  437.56   15.60
   3  -4   7  443.56   15.40
  -4   4  -7  525.35   18.60
   4  -4   7  534.35   18.40
  -5   4  -7 1708.43   57.59
   5  -4   7 1689.93   57.29
  -6   4  -7  183.18    8.70
   6  -4   7  207.58    7.70
  -7   4  -7   60.59    4.60
   7  -4   7   61.69    3.70
  -8   4  -7  293.87   11.50
   8  -4   7  290.17   10.00
   8  -4   7  283.47    9.80
   8  -4   7  269.47   10.70
  -9   4  -7  406.56   15.50
   9  -4   7  396.86   13.70
   9  -4   7  398.46   13.90
 -10   4  -7  723.03   26.00
  10  -4   7  712.13   24.30
 -11   4  -7   69.89    7.30
  12   3  -7 1057.89   36.80
  11   3  -7  783.32   27.60
  10   3  -7   82.89    5.30
   9   3  -7  274.97   10.60
   8   3  -7    9.10    1.80
   7   3  -7   40.20    3.20
   6   3  -7 2312.37   77.69
   5   3  -7   92.79    4.20
   5   3  -7   93.99    3.40
   4   3  -7 4726.83  158.98
   4   3  -7 4737.23  160.28
   3   3  -7  734.13   24.20
   3   3  -7  723.93   24.40
  -3  -3   7  687.43   24.20
   2   3  -7 5100.19  177.28
  -2  -3   7 5415.56  177.08
   1   3  -7 1029.30   34.60
   1   3  -7 1027.40   34.70
  -1  -3   7 1027.50   34.70
   0   3  -7  438.06   15.00
   0   3  -7  421.36   14.70
   0  -3   7  434.96   14.90
  -1   3  -7  239.98    8.10
  -1   3  -7  229.68    8.60
   1  -3   7  233.88    8.50
  -2   3  -7  715.53   24.60
  -3   3  -7  469.75   16.70
   3  -3   7  478.75   16.50
  -4   3  -7 3088.39  109.79
   4  -3   7 3463.15  111.09
  -5   3  -7   37.70    3.40
   5  -3   7   37.70    1.80
   5  -3   7   39.50    2.70
  -6   3  -7 1332.17   45.40
   6  -3   7 1294.07   44.10
   6  -3   7 1336.17   44.80
  -7   3  -7 1115.09   37.70
   7  -3   7 1083.59   37.20
   7  -3   7 1070.29   36.50
  -8   3  -7  133.89    6.80
   8  -3   7  127.19    4.90
   8  -3   7  125.69    5.90
  -9   3  -7   51.89    5.70
   9  -3   7   58.19    3.00
 -10   3  -7   -1.70    3.30
  10  -3   7    1.90    1.50
  13   2  -7  642.94   24.60
  12   2  -7  413.06   15.70
  11   2  -7   21.60    3.00
  10   2  -7 1175.18   40.30
   9   2  -7 1011.70   34.80
   8   2  -7   31.40    3.20
   7   2  -7 2838.32   96.49
   6   2  -7 1033.40   34.90
   6   2  -7 1013.20   34.20
   5   2  -7 1543.55   52.19
   4   2  -7  618.64   20.90
   3   2  -7 1673.73   57.29
   2   2  -7 1859.61   59.19
   2   2  -7 1706.13   57.99
  -2  -2   7 1601.74   57.79
   1   2  -7  707.53   24.80
   1   2  -7  725.63   24.70
  -1  -2   7  754.72   24.90
   0   2  -7  281.57    9.50
   0   2  -7  268.17    9.80
   0  -2   7  274.77    9.80
  -1   2  -7  140.59    5.70
  -1   2  -7  156.58    5.30
   1  -2   7  153.38    5.40
   1  -2   7  147.19    5.70
  -2   2  -7   77.29    3.10
  -2   2  -7   85.29    3.90
   2  -2   7   86.09    3.70
   2  -2   7   87.79    3.20
  -3   2  -7 2132.69   71.29
  -3   2  -7 2034.70   71.49
   3  -2   7 2083.59   71.39
   3  -2   7 2252.87   71.49
  -4   2  -7   77.79    4.10
  -4   2  -7   79.19    3.10
   4  -2   7   75.29    3.70
   4  -2   7   77.29    3.10
  -5   2  -7 2344.87   79.59
  -5   2  -7 2380.86   80.29
   5  -2   7 2397.36   79.69
   5  -2   7 2406.26   80.09
  -6   2  -7  679.23   25.10
  -6   2  -7  682.63   23.40
   6  -2   7  682.73   23.20
   6  -2   7  701.13   23.80
  -7   2  -7    7.20    2.50
   7  -2   7    6.80    1.10
   7  -2   7    7.40    1.80
  -8   2  -7  682.93   23.90
   8  -2   7  678.53   22.60
   8  -2   7  631.94   23.20
  -9   2  -7   82.99    6.30
   9  -2   7   84.99    4.00
 -10   2  -7   41.30    4.70
  10  -2   7   40.30    3.40
  13   1  -7  529.55   19.60
  12   1  -7   12.40    2.80
  11   1  -7 1619.84   55.19
  10   1  -7 2503.25   84.39
   9   1  -7 1003.50   34.50
   8   1  -7 1478.55   48.90
   8   1  -7 1459.05   49.70
   8   1  -7 1454.45   49.10
   7   1  -7  535.85   18.10
   6   1  -7 1025.20   34.40
   5   1  -7   53.79    3.00
   5   1  -7   58.79    2.40
   4   1  -7   31.80    1.70
   4   1  -7   27.40    2.10
   3   1  -7 3345.27  113.59
   3   1  -7 3361.16  113.79
   2   1  -7 1572.74   50.59
   2   1  -7 1398.76   49.90
   1   1  -7 1198.08   41.70
   1   1  -7 1249.68   41.60
  -1  -1   7 1230.48   41.70
  -1  -1   7 1275.27   41.70
   0   1  -7 3197.58  106.89
   0   1  -7 3196.98  108.39
   0  -1   7 3158.08  106.89
   0  -1   7 3125.49  107.09
  -1   1  -7  150.68    6.00
  -1   1  -7  155.38    5.60
   1  -1   7  160.58    5.70
  -2   1  -7  723.33   25.70
  -2   1  -7  733.33   26.10
   2  -1   7  786.82   25.80
   2  -1   7  807.92   26.10
  -3   1  -7   22.80    1.60
   3  -1   7   25.10    1.70
   3  -1   7   29.30    2.30
  -4   1  -7  883.71   30.20
  -4   1  -7  862.31   30.70
   4  -1   7  882.61   30.10
   4  -1   7  947.61   30.60
  -5   1  -7  778.12   26.50
  -5   1  -7  748.83   27.10
   5  -1   7  786.82   26.40
   5  -1   7  808.92   26.90
  -6   1  -7    6.80    1.30
   6  -1   7    5.10    1.70
   6  -1   7    5.00    1.10
  -7   1  -7 1350.26   46.50
  -7   1  -7 1405.86   47.10
   7  -1   7 1351.66   46.70
   7  -1   7 1385.86   46.20
  -8   1  -7  187.38    8.60
   8  -1   7  169.28    7.50
   8  -1   7  186.38    6.90
  -9   1  -7   12.80    3.30
   9  -1   7   13.30    1.80
 -10   1  -7  881.91   31.60
  13   0  -7    5.70    2.80
  12   0  -7 1397.16   47.90
  11   0  -7  643.74   22.10
  11   0  -7  672.33   23.40
  10   0  -7 2437.16   82.29
  10   0  -7 2442.96   81.49
   9   0  -7  465.05   15.70
   9   0  -7  454.75   16.50
   8   0  -7   71.79    4.10
   7   0  -7  569.04   19.90
   6   0  -7  569.44   19.80
   5   0  -7  261.77   10.30
   4   0  -7 4663.13  158.48
   3   0  -7  291.87   10.70
   3   0  -7  317.77   10.90
  -3   0   7  308.67   11.00
   2   0  -7 6216.58  205.48
   2   0  -7 5916.91  205.38
  -2   0   7 6147.28  205.58
   1   0  -7 3997.40  135.59
   1   0  -7 4079.09  134.99
  -1   0   7 3917.51  135.39
   0   0  -7   44.00    2.10
   0   0  -7   45.10    2.50
   0   0   7   44.70    2.30
  -1   0  -7  292.57   10.70
  -1   0  -7  294.97   10.40
   1   0   7  309.37   10.50
   1   0   7  304.47   10.80
  -2   0  -7   85.59    3.90
  -2   0  -7   75.89    3.30
   2   0   7   87.19    3.50
   2   0   7   83.89    3.80
  -3   0  -7   39.40    2.20
  -3   0  -7   36.30    2.80
   3   0   7   32.90    2.60
   3   0   7   37.20    2.10
  -4   0  -7  455.65   15.70
  -4   0  -7  429.56   16.20
   4   0   7  470.25   16.00
   4   0   7  460.65   15.60
  -5   0  -7   57.79    4.10
  -5   0  -7   66.59    3.40
   5   0   7   68.39    3.20
   5   0   7   65.19    3.70
  -6   0  -7 1797.52   62.09
  -6   0  -7 1815.52   62.49
   6   0   7 1881.61   62.19
   6   0   7 1875.41   61.79
  -7   0  -7  339.47   12.70
  -7   0  -7  332.47   13.30
   7   0   7  361.46   12.30
  -8   0  -7  594.84   21.40
  -8   0  -7  540.75   20.80
   8   0   7  621.74   20.30
  -9   0  -7 1055.69   37.20
   9   0   7 1060.69   36.00
  14  -1  -7   16.30    3.30
  13  -1  -7  827.62   29.20
  12  -1  -7   43.50    4.70
  12  -1  -7   45.40    2.40
  11  -1  -7   24.30    2.80
  11  -1  -7   25.50    2.00
  11  -1  -7   19.10    2.70
  10  -1  -7  660.73   23.80
  10  -1  -7  685.23   22.90
   9  -1  -7 1290.57   44.20
   9  -1  -7 1295.47   43.50
   8  -1  -7  973.80   33.50
   7  -1  -7 2063.59   69.59
   6  -1  -7   17.70    2.20
   5  -1  -7 3950.80  134.89
   4  -1  -7   30.60    2.20
  -4   1   7   32.30    2.40
   3  -1  -7 1797.22   62.69
  -3   1   7 1941.51   63.89
   2  -1  -7  605.44   21.40
   2  -1  -7  639.44   21.50
  -2   1   7  634.24   21.60
  -1   1   7   17.80    1.90
   0  -1  -7 4275.57  146.29
   0  -1  -7 4406.06  145.69
   0   1   7 4287.27  146.19
  -1  -1  -7  731.53   24.60
  -1  -1  -7  701.73   24.40
   1   1   7  721.33   24.40
  -2  -1  -7   24.30    2.00
  -2  -1  -7   35.50    2.50
   2   1   7   30.00    2.10
  -3  -1  -7 1744.73   57.59
  -3  -1  -7 1692.93   57.29
   3   1   7 1677.83   57.19
  -4  -1  -7    0.20    1.20
  -4  -1  -7    2.40    1.60
   4   1   7    2.10    1.20
  -5  -1  -7  319.97   12.20
  -5  -1  -7  314.57   11.70
   5   1   7  329.67   11.40
  -6  -1  -7  353.66   14.00
  -6  -1  -7  368.16   13.60
   6   1   7  397.36   13.30
  -7  -1  -7  465.65   17.70
  -7  -1  -7  483.05   18.10
   7   1   7  524.15   17.20
  -8  -1  -7  378.06   15.30
  -8  -1  -7  408.76   15.90
   8   1   7  442.86   14.70
  -9  -1  -7    1.00    3.60
   9   1   7    4.20    2.10
  14  -2  -7  180.28    8.80
  13  -2  -7   54.39    3.00
  13  -2  -7   52.49    5.30
  12  -2  -7  299.37   10.80
  12  -2  -7  305.07   12.00
  11  -2  -7 1259.57   41.50
  11  -2  -7 1191.58   42.20
  10  -2  -7 1406.06   48.00
  10  -2  -7 1400.76   47.30
   9  -2  -7 1243.28   42.90
   9  -2  -7 1264.57   42.40
   8  -2  -7 2356.66   79.39
   7  -2  -7  676.43   23.50
   6  -2  -7  974.90   33.30
   5  -2  -7  158.88    6.20
  -5   2   7  157.18    6.40
   4  -2  -7  159.28    6.00
  -4   2   7  147.29    6.10
   3  -2  -7  398.26   13.50
  -3   2   7  367.76   13.60
   2  -2  -7  783.92   26.40
  -2   2   7  765.32   26.50
   1  -2  -7 3167.08  106.49
   1  -2  -7 3146.39  107.39
  -1   2   7 3140.49  106.89
   0  -2  -7 5462.85  184.18
   0  -2  -7 5356.66  185.18
   0   2   7 5589.54  184.48
  -1  -2  -7  114.79    4.80
  -1  -2  -7  104.59    4.50
   1   2   7  112.09    4.60
  -2  -2  -7 2766.82   89.79
  -2  -2  -7 2440.16   89.49
   2   2   7 2816.12   90.19
  -3  -2  -7   12.10    1.70
  -3  -2  -7    8.30    1.40
   3   2   7    9.30    1.30
  -4  -2  -7  503.55   18.50
  -4  -2  -7  557.44   18.80
   4   2   7  529.65   18.30
  -5  -2  -7  139.29    6.40
  -5  -2  -7  127.59    6.00
   5   2   7  138.49    5.70
  -6  -2  -7   47.20    4.50
  -6  -2  -7   45.20    4.10
   6   2   7   47.70    3.50
  -7  -2  -7  212.58    9.60
  -7  -2  -7  208.28    9.30
   7   2   7  236.48    8.70
  -8  -2  -7  166.78    8.70
  -8  -2  -7  185.28    9.30
   8   2   7  208.28    7.90
  14  -3  -7  964.70   33.90
  13  -3  -7   28.30    2.80
  13  -3  -7   33.20    4.90
  12  -3  -7 2400.26   80.59
  11  -3  -7  132.09    6.60
  11  -3  -7  136.79    5.60
  10  -3  -7  966.10   32.30
  10  -3  -7  923.81   32.70
   9  -3  -7 1145.99   39.30
   8  -3  -7   28.50    2.90
   7  -3  -7  691.83   24.00
   6  -3  -7 1669.73   55.09
  -6   3   7 1590.24   55.19
   5  -3  -7    8.40    1.20
  -5   3   7    8.60    1.50
   4  -3  -7 2773.72   94.29
  -4   3   7 2782.72   94.49
  -3   3   7  300.47   10.90
  -2   3   7 1714.23   57.79
   1  -3  -7  763.12   27.30
  -1   3   7  829.02   27.30
   0  -3  -7 1194.58   40.50
   0  -3  -7 1212.58   40.40
   0   3   7 1181.28   40.50
  -1  -3  -7 1165.48   39.30
  -1  -3  -7 1144.59   39.10
   1   3   7 1158.68   39.10
  -2  -3  -7   90.79    4.50
  -2  -3  -7  110.69    4.70
   2   3   7   98.79    4.40
  -3  -3  -7  668.93   23.60
  -3  -3  -7  705.53   23.70
   3   3   7  673.23   23.40
  -4  -3  -7  561.04   20.40
   4   3   7  600.84   20.20
  -5  -3  -7   50.89    4.20
  -5  -3  -7   44.50    4.10
   5   3   7   40.50    4.10
  -6  -3  -7  619.04   21.00
  -6  -3  -7  525.25   20.90
   6   3   7  607.04   20.50
  -7  -3  -7  461.55   19.00
  -7  -3  -7  499.65   18.30
   7   3   7  511.75   17.60
  15  -4  -7 1477.05   50.99
  13  -4  -7 1286.07   43.80
  12  -4  -7   25.30    2.90
  11  -4  -7  449.66   17.10
  11  -4  -7  486.45   16.60
  10  -4  -7  615.74   21.60
  10  -4  -7  623.94   22.00
   9  -4  -7  654.63   23.00
   8  -4  -7  210.18    8.30
   7  -4  -7 3178.18  106.29
  -7   4   7 3159.78  106.49
   6  -4  -7  581.54   20.10
  -6   4   7  571.44   20.30
   5  -4  -7 4600.34  152.78
  -5   4   7 4433.56  153.78
   4  -4  -7  148.19    6.00
  -4   4   7  147.69    6.20
   3  -4  -7 1375.16   45.20
  -3   4   7 1298.77   45.30
   2  -4  -7  445.46   15.40
  -2   4   7  435.86   15.60
   1  -4  -7  379.06   13.50
  -1   4   7  385.46   13.60
   0  -4  -7  546.65   18.70
   0  -4  -7  526.55   18.70
   0   4   7  542.35   18.80
  -1  -4  -7  169.58    6.90
  -1  -4  -7  172.98    6.90
   1   4   7  181.08    6.90
  -2  -4  -7  909.31   31.10
  -2  -4  -7  905.31   31.10
   2   4   7  904.91   30.90
  -3  -4  -7 1588.04   54.99
   3   4   7 1658.63   54.79
  -4  -4  -7   -0.70    1.90
  -4  -4  -7    3.70    1.90
   4   4   7    0.00    1.70
  -5  -4  -7  815.92   26.90
  -5  -4  -7  702.43   26.90
   5   4   7  783.72   26.60
  -6  -4  -7  116.79    6.60
   6   4   7  106.39    5.90
  -7  -4  -7  316.77   13.00
   7   4   7  307.17   12.00
  14  -5  -7  239.58    9.50
  13  -5  -7  384.96   14.10
  12  -5  -7   20.70    3.00
  11  -5  -7  785.12   28.30
  11  -5  -7  827.72   28.00
  10  -5  -7  372.16   13.90
   9  -5  -7 1015.20   35.00
   8  -5  -7 3174.38  104.99
  -8   5   7 3076.99  105.09
   7  -5  -7  783.42   26.70
  -7   5   7  758.02   26.90
   6  -5  -7 2845.52   92.09
  -6   5   7 2634.94   92.19
   5  -5  -7   29.10    2.70
  -5   5   7   30.10    3.00
   4  -5  -7  277.47   10.10
  -4   5   7  267.87   10.30
   3  -5  -7  517.85   18.00
  -3   5   7  517.45   18.30
   2  -5  -7  230.88    8.40
  -2   5   7  218.98    8.60
   1  -5  -7  448.16   15.60
  -1   5   7  439.66   15.80
   0  -5  -7 1532.85   52.39
   0  -5  -7 1591.14   52.49
   0   5   7 1533.65   52.49
  -1  -5  -7  832.92   28.80
  -1  -5  -7  829.32   28.80
   1   5   7  851.01   28.80
  -2  -5  -7  882.61   30.70
  -2  -5  -7  877.71   30.70
   2   5   7  910.21   30.60
  -3  -5  -7  132.89    5.70
  -3  -5  -7   98.99    5.80
   3   5   7  117.19    5.60
  -4  -5  -7  997.70   37.70
  -4  -5  -7 1148.69   37.60
   4   5   7 1133.69   37.40
  -5  -5  -7   45.30    4.60
   5   5   7   37.00    4.40
  -6  -5  -7   53.39    5.50
   6   5   7   46.00    5.10
  14  -6  -7 1210.28   41.60
  13  -6  -7    4.40    2.10
  12  -6  -7 1307.27   44.70
  11  -6  -7   62.79    4.70
  11  -6  -7   65.59    4.20
  10  -6  -7 1047.20   36.20
   9  -6  -7  325.87   12.40
  -9   6   7  335.87   12.70
   8  -6  -7  174.38    7.20
  -8   6   7  166.38    7.50
   7  -6  -7  821.32   27.90
  -7   6   7  786.82   28.10
   6  -6  -7  967.40   32.80
  -6   6   7  943.61   33.00
   5  -6  -7  288.87   10.60
  -5   6   7  283.77   10.90
   4  -6  -7 2676.73   89.89
  -4   6   7 2677.73   90.09
   3  -6  -7  305.17   11.20
  -3   6   7  310.87   11.60
   2  -6  -7 1685.03   56.39
  -2   6   7 1657.73   56.59
   1  -6  -7 1005.80   34.60
  -1   6   7 1021.80   34.80
   0  -6  -7  237.38    9.20
   0   6   7  242.48    9.30
  -1  -6  -7  451.35   15.90
  -1  -6  -7  430.26   16.00
   1   6   7  456.35   16.00
  -2  -6  -7   26.50    3.40
   2   6   7   23.50    3.50
  -3  -6  -7  453.45   16.30
   3   6   7  451.95   16.40
  -4  -6  -7  297.87   11.40
   4   6   7  286.27   11.40
  -5  -6  -7    5.30    2.70
   5   6   7    2.40    2.50
  13  -7  -7 1287.97   44.20
  12  -7  -7   85.99    5.20
  11  -7  -7 1105.89   38.40
  11  -7  -7 1112.39   38.20
  10  -7  -7  310.97   12.30
 -10   7   7  328.37   12.60
   9  -7  -7    5.40    1.90
  -9   7   7    7.80    2.40
   8  -7  -7  412.66   14.90
  -8   7   7  398.86   15.10
   7  -7  -7 1502.15   49.00
  -7   7   7 1376.56   49.90
   6  -7  -7  352.96   12.90
   5  -7  -7 3344.47  106.09
  -5   7   7 2974.20  106.79
   4  -7  -7    7.90    1.50
   3  -7  -7 1984.10   65.89
  -3   7   7 1924.51   66.19
   2  -7  -7  210.98    8.30
  -2   7   7  214.58    8.60
   1  -7  -7  508.75   18.20
  -1   7   7  520.65   18.40
   0  -7  -7  270.67   10.60
   0   7   7  282.77   10.70
  -1  -7  -7  174.08    8.00
  -1  -7  -7  191.78    7.70
   1   7   7  196.58    8.00
  -2  -7  -7   61.89    4.50
   2   7   7   68.99    4.80
  -3  -7  -7  570.24   20.30
   3   7   7  569.14   20.40
  -4  -7  -7   56.39    4.90
   4   7   7   44.90    5.30
  12  -8  -7   59.89    5.80
  11  -8  -7  784.72   28.80
 -11   8   7  863.21   29.30
  10  -8  -7  381.76   15.00
 -10   8   7  424.26   15.50
   9  -8  -7  579.54   21.20
  -9   8   7  610.14   21.60
   8  -8  -7 1054.49   36.10
  -8   8   7 1043.10   36.50
   7  -8  -7 1115.59   38.00
  -7   8   7 1096.79   38.30
   6  -8  -7 1046.10   36.10
  -6   8   7 1060.59   36.60
   5  -8  -7  145.59    6.30
  -5   8   7  142.49    6.90
   4  -8  -7 1365.76   47.30
  -4   8   7 1418.96   47.70
   3  -8  -7  373.36   13.90
  -3   8   7  394.56   14.40
   2  -8  -7    1.20    1.60
  -2   8   7    2.60    2.10
   1  -8  -7  802.92   28.70
  -1   8   7  846.52   28.80
   0   8   7   64.29    4.80
  -1  -8  -7  254.47   10.10
   1   8   7  269.27   10.60
  -2  -8  -7  774.52   27.20
   2   8   7  784.92   27.50
  -3  -8  -7   93.69    5.80
   3   8   7   82.79    6.20
 -12   9   7 1388.96   48.20
 -11   9   7  189.78    9.20
 -10   9   7 1073.29   37.60
   9  -9  -7  272.67   11.10
  -9   9   7  298.07   11.80
   8  -9  -7  407.46   15.30
  -8   9   7  428.36   16.00
   7  -9  -7  435.26   16.30
  -7   9   7  466.35   17.00
   6  -9  -7   37.60    3.60
  -6   9   7   43.80    4.70
   5  -9  -7   13.30    2.10
  -5   9   7   11.30    2.50
   4  -9  -7  756.22   27.50
  -4   9   7  825.82   27.90
  -3   9   7  102.19    6.00
  -2   9   7 1554.34   53.09
  -1   9   7  109.49    6.30
   0   9   7  270.27   11.10
  -1  -9  -7  213.68    8.80
   1   9   7  210.08    9.40
  -2  -9  -7   40.90    4.90
   2   9   7   35.50    5.40
 -12  10   7  222.68   10.80
 -11  10   7 1245.38   43.50
 -10  10   7  168.18    8.70
  -9  10   7   14.90    3.40
  -8  10   7  725.03   26.20
  -7  10   7  361.56   14.40
  -6  10   7   32.90    4.90
  -5  10   7 1297.67   44.90
  -4  10   7    9.50    2.50
  -3  10   7 1465.35   50.29
  -2  10   7  122.09    7.00
  -1  10   7  266.37   11.20
   0  10   7   59.39    5.90
  -1 -10  -7    1.90    2.60
   1  10   7   -1.80    2.90
 -13  11   7    3.60    3.60
 -12  11   7  284.37   12.80
 -11  11   7  616.14   23.20
 -10  11   7   78.29    7.10
  -9  11   7 1070.09   37.80
  -8  11   7  699.43   25.60
  -7  11   7  845.72   30.30
  -6  11   7  980.10   34.60
  -5  11   7   38.60    5.50
  -4  11   7  441.76   16.90
  -3  11   7  152.58    8.10
  -2  11   7   43.40    5.70
  -1  11   7  352.16   14.20
 -12  12   7  723.83   26.90
 -11  12   7   17.30    4.10
 -10  12   7 1248.78   44.00
  -9  12   7  413.96   16.80
  -8  12   7  577.44   21.90
  -7  12   7  360.86   15.00
  -6  12   7   11.10    3.40
  -5  12   7   29.00    3.80
  -4  12   7  151.18    8.60
  -3  12   7   55.49    6.50
 -10  13   7  163.88   10.40
  -9  13   7   43.90    7.50
  -8  13   7  131.09    9.20
  -7  13   7  107.89    8.20
  -6  13   7   84.69    8.10
  -4  15  -8 1895.71   64.39
   0  14  -8  915.71   31.90
  -1  14  -8 1132.39   38.00
   1 -14   8 1067.19   37.80
  -2  14  -8  574.84   20.10
   2 -14   8  544.05   19.80
  -3  14  -8 1343.27   45.90
   3 -14   8 1342.27   45.60
   4 -14   8    2.60    1.50
  -5  14  -8  666.63   23.40
   2  13  -8  120.19    6.50
   1  13  -8 1256.87   43.10
   0  13  -8  116.29    6.00
   0 -13   8  110.59    5.70
  -1  13  -8  373.46   13.40
   1 -13   8  353.16   13.20
   1 -13   8  348.17   13.30
  -2  13  -8  323.77   12.10
   2 -13   8  323.67   11.80
   2 -13   8  311.57   12.20
  -3  13  -8   21.50    2.60
   3 -13   8   23.80    2.80
  -4  13  -8  583.64   20.30
   4 -13   8  564.64   19.90
  -5  13  -8 1366.66   45.90
   5 -13   8 1342.47   45.60
  -6  13  -8   33.80    3.30
  -6  13  -8   33.50    4.00
  -7  13  -8 1140.39   40.00
  -8  13  -8   13.60    3.90
   4  12  -8 1769.02   60.19
   3  12  -8   20.80    2.80
   2  12  -8 1026.60   34.50
  -2 -12   8  973.00   34.80
   1  12  -8  186.38    7.70
  -1 -12   8  174.28    7.40
   0  12  -8    5.20    1.80
   0 -12   8    0.40    1.80
   0 -12   8    3.10    1.70
  -1  12  -8  151.18    6.50
   1 -12   8  141.09    6.20
   1 -12   8  148.09    6.50
  -2  12  -8  218.98    8.70
   2 -12   8  217.58    8.80
   2 -12   8  221.98    8.40
  -3  12  -8  322.27   12.00
   3 -12   8  340.97   11.80
   3 -12   8  322.47   12.40
  -4  12  -8 1490.15   50.59
  -4  12  -8 1480.75   49.90
   4 -12   8 1459.45   49.70
  -5  12  -8    1.00    1.60
  -5  12  -8   -0.20    2.60
   5 -12   8    0.40    1.00
  -6  12  -8 1951.60   68.09
  -6  12  -8 2128.99   69.49
   6 -12   8 2028.90   68.09
  -7  12  -8  107.79    7.10
  -8  12  -8  262.57   11.80
  -9  12  -8  179.78    9.50
   5  11  -8  405.96   15.30
   4  11  -8   85.29    5.50
   3  11  -8  295.57   12.30
  -3 -11   8  284.67   10.80
   2  11  -8 1226.98   40.20
  -2 -11   8 1141.09   40.40
  -2 -11   8 1160.08   39.80
   1  11  -8  187.48    7.50
  -1 -11   8  178.68    7.50
  -1 -11   8  179.68    7.20
   0 -11   8 1571.94   53.59
   0 -11   8 1598.34   53.59
  -1  11  -8  654.43   22.80
   1 -11   8  655.03   22.90
   1 -11   8  668.73   22.80
  -2  11  -8  567.24   20.50
  -2  11  -8  592.74   21.10
   2 -11   8  599.24   20.80
   2 -11   8  609.74   20.50
  -3  11  -8  542.65   19.20
  -3  11  -8  505.15   18.40
   3 -11   8  522.25   18.80
   3 -11   8  549.25   18.30
  -4  11  -8  315.47   11.30
  -4  11  -8  325.77   12.40
   4 -11   8  322.37   11.10
   4 -11   8  295.97   11.80
  -5  11  -8 1277.27   43.50
  -5  11  -8 1256.87   42.40
   5 -11   8 1245.98   42.30
  -6  11  -8  261.07   11.00
  -7  11  -8   90.09    6.30
  -8  11  -8  704.63   25.60
  -9  11  -8  123.39    7.80
 -10  11  -8  231.08   11.20
   6  10  -8  208.78    9.00
   5  10  -8  149.39    7.00
   4  10  -8  304.67   11.60
  -4 -10   8  301.47   10.60
   3  10  -8 1551.54   52.49
  -3 -10   8 1551.64   52.69
  -3 -10   8 1545.35   51.99
   2  10  -8  396.26   13.90
  -2 -10   8  376.36   14.00
  -2 -10   8  375.36   13.50
   1  10  -8 2624.24   94.59
  -1 -10   8 2946.11   94.19
  -1 -10   8 2862.91   94.39
   0  10  -8  715.03   24.60
   0 -10   8  717.33   24.60
   0 -10   8  709.23   24.60
  -1  10  -8  869.51   30.00
  -1  10  -8  858.61   30.40
   1 -10   8  894.91   30.00
   1 -10   8  898.11   30.20
  -2  10  -8  846.92   29.10
  -2  10  -8  799.12   28.50
   2 -10   8  852.31   28.60
   2 -10   8  859.11   28.90
  -3  10  -8   56.59    4.40
  -3  10  -8   53.09    3.10
   3 -10   8   57.29    2.80
   3 -10   8   62.69    3.80
  -4  10  -8  207.78    8.70
  -4  10  -8  204.88    7.40
   4 -10   8  203.58    7.20
   4 -10   8  196.58    8.10
  -5  10  -8 1177.58   39.90
   5 -10   8 1129.79   39.50
  -6  10  -8  108.99    6.20
  -7  10  -8 1569.64   53.89
  -8  10  -8   95.69    6.60
  -9  10  -8  930.31   33.10
 -10  10  -8  139.59    8.60
   7   9  -8  508.45   18.50
   6   9  -8  453.75   16.60
   5   9  -8  420.96   15.30
   4   9  -8 1394.86   48.00
  -4  -9   8 1431.26   47.40
   3   9  -8   52.19    3.80
  -3  -9   8   52.89    3.90
  -3  -9   8   59.29    2.90
   2   9  -8 2057.09   70.59
  -2  -9   8 2138.59   70.69
  -2  -9   8 2099.29   70.39
   1   9  -8  589.74   20.60
   1   9  -8  582.24   20.60
  -1  -9   8  604.64   20.50
  -1  -9   8  600.84   20.70
   0   9  -8  448.46   16.00
   0   9  -8  451.75   16.30
   0  -9   8  474.75   16.10
   0  -9   8  456.55   16.00
  -1   9  -8 1119.99   37.30
  -1   9  -8 1105.99   37.70
   1  -9   8 1029.40   37.50
   1  -9   8 1156.08   37.50
  -2   9  -8  292.07   11.20
  -2   9  -8  274.57   10.40
   2  -9   8  310.47   10.40
   2  -9   8  306.57   10.90
  -3   9  -8   36.60    4.10
  -3   9  -8   37.70    2.30
   3  -9   8   39.20    3.20
  -4   9  -8  203.98    8.60
  -4   9  -8  211.68    7.30
   4  -9   8  207.38    8.30
  -5   9  -8   16.90    2.70
   5  -9   8   18.70    3.10
  -6   9  -8 1944.11   65.39
   6  -9   8 1901.31   64.99
  -7   9  -8  106.99    6.50
  -8   9  -8 1141.19   39.80
  -9   9  -8  535.75   20.20
 -10   9  -8    1.70    3.30
 -11   9  -8   85.89    7.70
   8   8  -8 1201.68   41.40
   7   8  -8 1164.58   40.00
   6   8  -8  364.06   13.50
   5   8  -8  839.12   29.00
   4   8  -8  390.86   14.30
  -4  -8   8  402.26   13.60
   3   8  -8  506.95   18.00
  -3  -8   8  518.25   17.50
   2   8  -8  522.85   18.30
   2   8  -8  528.25   18.40
  -2  -8   8  533.65   18.10
   1   8  -8    2.50    1.10
   1   8  -8    2.70    1.40
  -1  -8   8    1.80    1.10
   0   8  -8 2083.09   72.99
   0   8  -8 2273.67   73.89
   0  -8   8 2160.78   72.89
  -1   8  -8 1141.79   39.70
  -1   8  -8 1148.89   39.20
   1  -8   8 1204.98   39.50
  -2   8  -8 1178.18   39.80
  -2   8  -8 1081.79   39.10
   2  -8   8 1236.78   39.60
  -3   8  -8  738.23   25.70
  -3   8  -8  756.22   26.60
   3  -8   8  800.92   26.40
  -4   8  -8  316.27   13.50
   4  -8   8  377.16   12.70
  -5   8  -8  823.12   28.70
   5  -8   8  815.42   28.30
  -6   8  -8  207.28    8.60
   6  -8   8  189.68    8.00
  -7   8  -8  286.67   11.60
  -8   8  -8  619.24   22.60
  -9   8  -8   75.59    6.50
 -10   8  -8  413.96   16.60
 -11   8  -8  333.17   14.70
   9   7  -8 1039.60   36.10
   8   7  -8  948.51   32.90
   7   7  -8   80.59    4.90
   6   7  -8  879.21   30.40
   5   7  -8   56.19    3.70
   4   7  -8  240.58   10.80
  -4  -7   8  271.67    9.00
   3   7  -8  933.11   31.70
   3   7  -8  948.41   31.90
  -3  -7   8  925.31   31.50
   2   7  -8   52.89    2.90
   2   7  -8   51.59    3.00
  -2  -7   8   53.69    2.60
   1   7  -8 1748.33   58.49
   1   7  -8 1714.83   58.59
  -1  -7   8 1764.52   58.49
   0   7  -8 1328.57   44.40
   0   7  -8 1292.67   44.70
   0  -7   8 1344.77   44.60
  -1   7  -8 1878.11   65.19
  -1   7  -8 1976.20   65.39
   1  -7   8 1949.41   64.99
  -2   7  -8 2356.16   78.79
  -2   7  -8 2242.78   78.49
   2  -7   8 2420.76   78.59
  -3   7  -8  256.47    9.80
   3  -7   8  255.37    9.50
  -4   7  -8  206.08    8.40
   4  -7   8  205.68    8.00
  -5   7  -8  273.87   10.70
   5  -7   8  276.57   10.30
  -6   7  -8   64.09    4.60
   6  -7   8   62.29    3.90
  -7   7  -8  923.21   30.90
   7  -7   8  832.72   30.30
  -8   7  -8   31.60    5.10
  -9   7  -8 1020.00   35.90
 -10   7  -8  760.02   27.70
 -11   7  -8   83.19    8.00
  10   6  -8  323.37   12.80
   9   6  -8  287.77   11.30
   8   6  -8   14.50    2.30
   7   6  -8  885.91   30.60
   6   6  -8 1443.36   49.00
   5   6  -8   29.90    3.90
   4   6  -8 2896.41  102.59
   4   6  -8 3212.58  103.19
  -4  -6   8 3081.69  102.69
   3   6  -8  272.87    9.90
   3   6  -8  275.67    9.70
  -3  -6   8  272.27    9.60
   2   6  -8 1265.87   43.10
   2   6  -8 1291.37   43.10
  -2  -6   8 1274.77   42.90
   1   6  -8  301.27   10.50
   1   6  -8  297.47   10.70
  -1  -6   8  296.47   10.50
   0   6  -8 1966.00   68.69
   0   6  -8 2153.28   69.29
   0  -6   8 2012.10   68.49
  -1   6  -8 1193.48   42.30
  -1   6  -8 1298.57   42.10
   1  -6   8 1249.57   42.10
  -2   6  -8   54.99    2.20
  -2   6  -8   53.39    3.40
  -2   6  -8   57.39    2.30
   2  -6   8   55.19    3.00
  -3   6  -8  245.98    9.60
   3  -6   8  258.87    9.30
  -4   6  -8 1172.48   40.70
   4  -6   8 1209.58   40.50
  -5   6  -8  167.18    7.30
   5  -6   8  168.18    6.80
  -6   6  -8 1557.44   53.29
   6  -6   8 1565.04   52.89
  -7   6  -8   89.29    5.50
   7  -6   8   79.29    4.50
  -8   6  -8  549.35   20.20
  -9   6  -8  505.45   19.10
 -10   6  -8  179.28    9.50
 -11   6  -8  501.15   19.80
  11   5  -8  146.99    8.90
  10   5  -8  243.28   10.00
   9   5  -8    7.50    2.10
   8   5  -8 1232.28   42.20
   7   5  -8 1434.96   48.80
   6   5  -8 1387.46   47.10
   5   5  -8 2535.85   87.99
   5   5  -8 2709.23   87.89
   4   5  -8  190.68    7.40
   4   5  -8  198.98    6.90
  -4  -5   8  186.08    6.90
   3   5  -8 1080.29   36.80
   3   5  -8 1093.79   37.00
  -3  -5   8 1101.29   36.80
   2   5  -8   41.00    2.40
   2   5  -8   39.50    2.30
  -2  -5   8   39.90    2.20
   1   5  -8   45.80    2.40
   1   5  -8   45.20    2.60
  -1  -5   8   43.20    2.30
   0   5  -8  286.87   10.40
   0   5  -8  289.67   10.00
  -1   5  -8 1658.43   54.59
  -1   5  -8 1708.93   54.49
  -1   5  -8 1548.25   54.59
   1  -5   8 1560.84   54.39
  -2   5  -8  993.40   33.60
   2  -5   8  974.00   33.40
  -3   5  -8 3259.27  106.79
   3  -5   8 3020.50  105.09
  -4   5  -8  336.97   12.50
   4  -5   8  337.77   12.10
  -5   5  -8 1036.80   37.10
   5  -5   8 1069.89   35.90
  -6   5  -8    2.50    2.00
   6  -5   8    2.00    1.60
  -7   5  -8  215.58    9.10
   7  -5   8  202.58    8.30
  -8   5  -8  349.47   13.90
  -9   5  -8   -0.10    3.10
 -10   5  -8 1153.78   40.60
  11   4  -8  900.01   31.50
  10   4  -8   29.60    4.20
   9   4  -8 1566.84   53.29
   8   4  -8  808.12   28.10
   7   4  -8 1275.67   43.40
   6   4  -8 2193.68   73.79
   5   4  -8  111.09    4.90
   5   4  -8  110.59    4.10
   4   4  -8  476.05   16.50
   4   4  -8  470.95   16.10
   3   4  -8  595.04   20.20
   3   4  -8  589.04   20.50
  -3  -4   8  600.74   20.30
   2   4  -8  228.88    8.20
   2   4  -8  228.78    8.20
  -2  -4   8  224.18    8.10
   1   4  -8  952.50   32.00
   1   4  -8  938.91   32.10
  -1  -4   8  945.11   32.00
   0   4  -8  913.81   30.10
   0   4  -8  939.61   29.80
   0   4  -8  918.51   29.80
   0  -4   8  765.62   30.70
  -1   4  -8 4022.70  135.99
  -1   4  -8 4061.29  135.99
  -1   4  -8 4111.29  137.29
   1  -4   8 4015.00  136.99
  -2   4  -8 1930.31   64.99
   2  -4   8 1930.71   64.89
  -3   4  -8  293.47   10.90
   3  -4   8  296.27   10.60
  -4   4  -8 1058.69   35.90
   4  -4   8 1035.30   35.60
   5  -4   8   10.90    1.70
  -6   4  -8  373.66   13.70
   6  -4   8  352.36   13.10
  -7   4  -8  454.65   16.20
   7  -4   8  407.86   15.50
  -8   4  -8  283.77   11.80
  -9   4  -8  489.75   18.60
   9  -4   8  479.05   16.50
 -10   4  -8  224.18   11.00
  12   3  -8 1450.75   49.90
  11   3  -8   15.30    2.80
  10   3  -8  813.82   28.50
   9   3  -8   32.30    3.80
   8   3  -8  259.47   10.00
   6   3  -8 1613.54   55.79
   6   3  -8 1688.63   55.39
   5   3  -8 1339.27   43.70
   5   3  -8 1249.47   43.80
   4   3  -8 4296.77  143.69
   4   3  -8 4229.58  144.69
   3   3  -8   67.19    2.90
  -3  -3   8   59.39    2.90
   2   3  -8 7205.98  238.08
   2   3  -8 6927.41  237.88
  -2  -3   8 7068.09  237.98
   1   3  -8    9.30    1.60
   1   3  -8   10.20    1.40
  -1  -3   8   12.40    1.70
   0   3  -8  476.35   16.20
   0   3  -8  476.35   16.60
  -1   3  -8  226.38    7.80
  -1   3  -8  228.88    8.40
   1  -3   8  215.78    8.20
  -2   3  -8   11.70    1.70
  -2   3  -8   15.80    1.00
   2  -3   8   13.10    1.90
  -3   3  -8 1763.82   60.29
   3  -3   8 1806.32   60.09
  -4   3  -8 1360.06   46.90
   4  -3   8 1393.96   46.60
   5  -3   8   17.40    2.60
   5  -3   8   16.80    1.40
  -6   3  -8 1938.01   65.29
   6  -3   8 1919.41   64.89
   6  -3   8 1913.61   64.19
  -7   3  -8  113.39    6.20
   7  -3   8   99.99    5.30
   7  -3   8  110.39    4.20
  -8   3  -8  477.75   17.90
   8  -3   8  476.45   16.30
  -9   3  -8   31.70    4.10
   9  -3   8   40.00    2.70
 -10   3  -8  388.26   16.00
  12   2  -8  269.47   11.30
  11   2  -8  244.98   10.20
  10   2  -8  235.38    9.60
   9   2  -8    0.00    1.80
   8   2  -8  902.51   31.10
   7   2  -8  613.94   21.30
   7   2  -8  650.93   22.10
   6   2  -8  924.81   30.80
   6   2  -8  874.31   30.20
   5   2  -8 4129.59  139.09
   4   2  -8  221.78    7.90
   3   2  -8 5616.84  182.18
   3   2  -8 5134.39  181.28
   2   2  -8  232.48    8.50
   2   2  -8  237.08    8.50
  -2  -2   8  242.88    8.60
   1   2  -8   56.39    2.80
   1   2  -8   58.59    2.60
  -1  -2   8   57.69    2.90
   0   2  -8  360.26   13.40
   0   2  -8  395.36   13.10
   0  -2   8  387.06   13.50
  -1   2  -8 1591.44   50.89
  -1   2  -8 1396.66   50.99
   1  -2   8 1567.04   50.99
   1  -2   8 1494.95   50.99
  -2   2  -8 1499.85   50.09
  -2   2  -8 1390.16   50.49
   2  -2   8 1567.04   50.49
   2  -2   8 1518.65   49.99
  -3   2  -8 1206.48   42.40
  -3   2  -8 1182.98   41.70
   3  -2   8 1295.07   41.70
   3  -2   8 1296.47   42.30
  -4   2  -8  282.47   11.00
  -4   2  -8  294.07   10.20
   4  -2   8  298.37   10.20
   4  -2   8  296.77   10.80
  -5   2  -8 3295.97  109.09
  -5   2  -8 3022.80  109.89
   5  -2   8 3451.05  108.89
   5  -2   8 3216.78  108.89
  -6   2  -8    8.60    2.40
  -6   2  -8    9.70    1.30
   6  -2   8    8.90    1.20
   6  -2   8   12.10    2.00
  -7   2  -8  575.14   20.60
   7  -2   8  575.64   19.30
   7  -2   8  546.45   20.00
  -8   2  -8  184.28    9.00
   8  -2   8  193.08    7.10
  -9   2  -8    2.00    3.20
   9  -2   8    3.80    1.60
  13   1  -8  532.45   19.80
  12   1  -8  278.67   11.40
  11   1  -8 1738.03   59.19
  10   1  -8  401.66   14.90
   9   1  -8 2827.52   99.09
   9   1  -8 3097.69   98.59
   9   1  -8 2912.61   98.69
   8   1  -8   31.10    1.70
   7   1  -8  985.30   33.10
   6   1  -8  842.72   27.70
   6   1  -8  764.82   27.10
   5   1  -8   83.09    4.00
   5   1  -8   91.29    3.60
   4   1  -8  939.11   31.50
   4   1  -8  908.21   31.20
   3   1  -8 2455.35   83.99
   3   1  -8 2480.35   84.39
   2   1  -8  254.67    9.00
   2   1  -8  252.67    9.10
   1   1  -8 3378.86  112.09
   1   1  -8 3243.88  112.89
  -1  -1   8 3341.17  112.49
   0   1  -8  609.24   20.70
   0   1  -8  600.24   21.00
   0  -1   8  596.84   20.80
   0  -1   8  629.34   21.00
  -1   1  -8 2680.83   89.99
  -1   1  -8 2651.73   88.19
   1  -1   8 2638.44   88.69
   1  -1   8 2510.75   87.79
  -2   1  -8  690.43   24.30
  -2   1  -8  674.23   23.80
   2  -1   8  738.13   24.30
   2  -1   8  720.33   23.90
  -3   1  -8  920.71   32.80
  -3   1  -8  951.30   33.40
   3  -1   8  997.80   32.80
   3  -1   8 1028.20   33.30
  -4   1  -8 1806.02   63.49
  -4   1  -8 1800.32   62.89
   4  -1   8 1989.40   63.39
   4  -1   8 1916.01   62.89
  -5   1  -8    5.10    2.30
  -5   1  -8    3.40    2.00
   5  -1   8    5.70    1.70
   5  -1   8    4.80    1.20
  -6   1  -8  419.66   15.10
  -6   1  -8  421.86   15.90
   6  -1   8  431.36   15.50
   6  -1   8  443.66   14.90
  -7   1  -8  883.61   31.30
  -7   1  -8  911.21   32.10
   7  -1   8  949.01   31.00
   7  -1   8  917.31   31.60
  -8   1  -8   63.69    6.00
   8  -1   8   71.19    3.80
  -9   1  -8  122.59    8.10
   9  -1   8  131.59    5.70
  13   0  -8  576.04   21.10
  12   0  -8 1698.63   57.99
  11   0  -8   65.89    5.00
  11   0  -8   64.19    2.80
  10   0  -8 2646.64   87.89
  10   0  -8 2527.15   87.99
  10   0  -8 2646.14   87.09
   9   0  -8  307.77   11.60
   9   0  -8  300.47   10.60
   8   0  -8  489.05   17.50
   7   0  -8  209.48    8.20
   6   0  -8  566.14   19.80
   5   0  -8  406.06   14.10
   5   0  -8  411.76   14.50
   4   0  -8 4946.21  164.98
   4   0  -8 4760.12  164.18
   3   0  -8  374.46   13.30
   3   0  -8  377.46   13.20
  -3   0   8  377.46   13.40
   2   0  -8 5476.65  188.28
   2   0  -8 5747.23  187.98
  -2   0   8 5464.95  188.28
   1   0  -8    5.10    0.90
   1   0  -8    4.10    1.10
  -1   0   8    5.50    1.10
   0   0  -8 2747.63   95.19
   0   0  -8 2839.52   95.19
   0   0   8 2861.21   95.59
  -1   0  -8  203.78    7.80
  -1   0  -8  206.88    7.40
   1   0   8  209.98    7.50
  -2   0  -8  460.25   16.50
  -2   0  -8  500.95   17.00
   2   0   8  480.45   16.50
  -3   0  -8   42.60    3.10
  -3   0  -8   30.30    2.30
   3   0   8   37.40    2.40
   3   0   8   29.30    2.80
  -4   0  -8  342.57   12.60
  -4   0  -8  357.46   13.20
   4   0   8  361.16   13.00
   4   0   8  369.76   12.50
  -5   0  -8  507.45   18.40
  -5   0  -8  530.05   19.00
   5   0   8  544.15   18.20
  -6   0  -8 1705.33   59.99
  -6   0  -8 1730.63   59.49
   6   0   8 1853.61   59.29
  -7   0  -8   10.50    2.10
  -7   0  -8    8.20    2.90
   7   0   8   10.00    1.70
  -8   0  -8 1074.89   37.60
  -8   0  -8  996.10   36.90
   8   0   8 1143.89   36.50
  -9   0  -8  114.89    8.20
   9   0   8  115.29    5.70
  14  -1  -8  312.77   12.90
  13  -1  -8  445.96   16.90
  12  -1  -8   33.60    4.70
  12  -1  -8   30.60    2.20
  11  -1  -8  520.45   18.80
  11  -1  -8  511.65   17.80
  10  -1  -8  894.41   31.60
  10  -1  -8  917.41   30.70
   9  -1  -8    4.60    1.80
   8  -1  -8 2046.20   69.09
   7  -1  -8  779.92   27.00
   6  -1  -8  405.36   14.40
   5  -1  -8 1616.84   54.59
  -4   1   8 1196.48   40.60
   3  -1  -8 2683.23   94.39
   3  -1  -8 2922.11   96.49
  -3   1   8 2854.21   96.49
   2  -1  -8  201.28    7.30
   2  -1  -8  188.58    7.30
  -2   1   8  204.38    7.50
   1  -1  -8 1041.10   34.60
   1  -1  -8 1016.50   34.70
  -1   1   8 1010.40   34.70
   0  -1  -8 1954.70   67.79
   0  -1  -8 2159.18   69.39
   0   1   8 1959.60   67.89
  -1  -1  -8  269.37    9.80
  -1  -1  -8  273.97    9.50
   1   1   8  255.27    9.60
  -2  -1  -8  135.39    5.50
  -2  -1  -8  118.09    5.00
   2   1   8  127.79    5.10
  -3  -1  -8 1382.76   45.60
   3   1   8 1297.97   45.10
  -4  -1  -8  385.66   14.70
  -4  -1  -8  373.86   13.70
   4   1   8  400.26   13.60
  -5  -1  -8 1095.89   36.60
  -5  -1  -8 1001.70   36.20
   5   1   8 1085.09   36.00
  -6  -1  -8  356.86   13.20
  -6  -1  -8  306.67   12.50
   6   1   8  350.66   12.20
  -7  -1  -8 1290.47   47.80
  -7  -1  -8 1415.66   48.40
   7   1   8 1505.05   47.60
  -8  -1  -8   16.40    3.80
   8   1   8   21.50    3.70
  14  -2  -8  263.67   11.40
  13  -2  -8   26.10    3.40
  12  -2  -8  113.79    6.20
  11  -2  -8 1411.06   47.00
  11  -2  -8 1353.66   47.50
  10  -2  -8   52.19    4.30
  10  -2  -8   54.79    3.20
   9  -2  -8 3106.69  104.49
   8  -2  -8  777.22   27.00
   7  -2  -8 2096.89   70.69
   6  -2  -8  978.70   33.50
   5  -2  -8  755.02   25.50
  -5   2   8  723.93   25.60
   4  -2  -8  245.08    8.90
  -4   2   8  237.98    9.10
  -3   2   8 1321.47   44.80
   2  -2  -8   15.70    1.90
   2  -2  -8   18.20    2.00
  -2   2   8   10.40    1.50
   1  -2  -8 3395.26  113.59
   1  -2  -8 3236.68  114.49
  -1   2   8 3464.45  114.69
   0  -2  -8  691.23   23.90
   0   2   8  694.33   23.80
  -1  -2  -8 2045.30   68.09
  -1  -2  -8 2043.60   67.79
   1   2   8 1975.30   67.89
  -2  -2  -8  726.63   24.30
  -2  -2  -8  679.03   24.00
   2   2   8  699.13   24.00
  -3  -2  -8  487.85   18.10
  -3  -2  -8  548.75   19.80
   3   2   8  522.75   18.10
  -4  -2  -8  251.37    9.30
  -4  -2  -8  207.88    8.80
   4   2   8  231.78    8.70
  -5  -2  -8   15.00    2.50
  -5  -2  -8    7.70    2.00
   5   2   8   10.10    1.80
  -6  -2  -8  413.76   16.60
  -6  -2  -8  492.15   17.10
   6   2   8  466.85   16.30
  -7  -2  -8  165.78    8.40
  -7  -2  -8  187.98    9.10
   7   2   8  200.28    7.80
  14  -3  -8  168.08    8.70
  13  -3  -8  178.58    7.10
  12  -3  -8  860.21   29.50
  11  -3  -8    8.80    2.30
  11  -3  -8    9.50    1.70
  10  -3  -8 2334.07   78.89
   9  -3  -8  454.45   16.50
   8  -3  -8 1334.27   45.50
   7  -3  -8 1948.41   65.39
  -7   3   8 1924.11   65.49
   6  -3  -8  225.88    8.50
  -6   3   8  217.38    8.70
   5  -3  -8  604.74   20.60
  -5   3   8  580.34   20.80
   4  -3  -8  733.73   25.00
  -4   3   8  720.83   25.20
   3  -3  -8  171.38    6.60
  -3   3   8  171.08    6.90
   2  -3  -8 3524.95  113.39
  -2   3   8 3162.38  111.89
   1  -3  -8  215.78    8.00
   1  -3  -8  213.78    8.10
  -1   3   8  221.78    8.30
   0  -3  -8 6174.08  206.48
   0  -3  -8 6187.48  204.88
   0   3   8 5895.21  205.48
  -1  -3  -8  964.40   33.70
  -1  -3  -8 1012.30   33.60
   1   3   8  980.60   33.60
  -2  -3  -8  901.91   31.30
  -2  -3  -8  911.01   31.10
   2   3   8  910.81   31.00
  -3  -3  -8   48.20    3.90
  -3  -3  -8   70.29    4.10
   3   3   8   60.09    3.70
  -4  -3  -8  595.84   19.80
  -4  -3  -8  518.95   19.60
   4   3   8  549.54   19.40
  -5  -3  -8    6.70    2.20
  -5  -3  -8   14.20    2.50
   5   3   8    8.00    2.00
  -6  -3  -8  300.97   12.90
  -6  -3  -8  349.57   13.20
   6   3   8  352.06   12.50
  -7  -3  -8   32.40    5.60
   7   3   8   27.90    4.30
  13  -4  -8  788.22   27.30
  12  -4  -8   63.59    4.00
  11  -4  -8  229.98    8.70
  11  -4  -8  214.38    9.30
  10  -4  -8  317.87   12.20
   9  -4  -8  637.74   22.50
   8  -4  -8 1943.91   64.19
  -8   4   8 1848.92   64.29
   7  -4  -8  255.17    9.60
  -7   4   8  246.68    9.90
   6  -4  -8 1205.78   39.90
  -6   4   8 1131.49   40.00
   5  -4  -8 2327.97   75.79
  -5   4   8 2176.08   75.89
   4  -4  -8 1055.29   35.20
  -4   4   8 1006.20   35.30
   3  -4  -8  728.23   24.40
  -3   4   8  686.93   24.50
   2  -4  -8  383.46   13.40
  -2   4   8  371.76   13.60
   1  -4  -8 1367.86   47.30
   1  -4  -8 1438.66   47.20
  -1   4   8 1387.86   47.40
   0  -4  -8  610.34   21.80
   0  -4  -8  653.93   21.80
   0   4   8  624.24   21.90
  -1  -4  -8    2.70    1.60
   1   4   8    2.70    1.50
  -2  -4  -8 1109.89   37.10
  -2  -4  -8 1068.09   37.00
   2   4   8 1071.09   36.90
  -3  -4  -8  352.56   13.70
  -3  -4  -8  389.96   13.70
   3   4   8  376.36   13.60
  -4  -4  -8  179.48    7.50
  -4  -4  -8  153.58    7.50
   4   4   8  170.78    7.20
  -5  -4  -8  664.53   25.90
  -5  -4  -8  792.72   26.00
   5   4   8  745.03   25.60
  -6  -4  -8   96.09    6.30
   6   4   8   81.89    5.50
  14  -5  -8  945.41   32.60
  13  -5  -8   14.30    2.30
  12  -5  -8  277.17   10.60
  11  -5  -8  344.27   12.70
  10  -5  -8    0.40    1.80
   9  -5  -8 1328.87   45.30
  -9   5   8 1319.17   45.50
   8  -5  -8  331.77   11.70
  -8   5   8  278.37   14.20
   7  -5  -8 2191.68   72.89
  -7   5   8 2124.79   72.99
   6  -5  -8 2419.76   79.39
  -6   5   8 2290.77   79.49
   5  -5  -8  383.56   13.70
  -5   5   8  377.96   14.00
   4  -5  -8  537.15   18.80
  -4   5   8  536.05   19.10
   3  -5  -8    6.50    1.30
  -3   5   8    7.00    1.60
   2  -5  -8   77.09    3.90
  -2   5   8   78.59    4.30
   1  -5  -8   71.49    3.90
  -1   5   8   77.29    4.30
   0  -5  -8    7.50    1.70
   0  -5  -8    8.50    1.80
   0   5   8    6.40    1.70
  -1  -5  -8 2731.43   90.49
  -1  -5  -8 2645.64   90.49
   1   5   8 2702.83   90.49
  -2  -5  -8  523.85   18.40
  -2  -5  -8  503.35   18.40
   2   5   8  518.95   18.30
  -3  -5  -8  357.66   14.30
  -3  -5  -8  405.86   14.20
   3   5   8  391.66   14.20
  -4  -5  -8  613.34   21.30
   4   5   8  580.34   21.10
  -5  -5  -8   38.60    5.00
   5   5   8   25.40    3.10
  14  -6  -8  197.48    8.50
  13  -6  -8  405.86   15.00
  12  -6  -8  756.22   26.50
  11  -6  -8   39.70    3.70
  11  -6  -8   38.60    4.40
  10  -6  -8 1610.94   55.59
 -10   6   8 1647.64   55.79
   9  -6  -8   16.50    2.30
  -9   6   8   12.10    2.40
   8  -6  -8 1437.36   48.10
  -8   6   8 1381.46   48.30
   7  -6  -8 1013.10   34.90
   6  -6  -8   11.60    1.80
  -6   6   8   13.20    2.30
   5  -6  -8 1085.59   36.50
  -5   6   8 1049.70   36.80
   4  -6  -8  889.31   30.30
  -4   6   8  875.51   30.60
   3  -6  -8   38.00    3.10
  -3   6   8   41.40    3.70
   2  -6  -8  968.70   33.10
   1  -6  -8   49.60    3.60
  -1   6   8   56.89    4.10
   0  -6  -8 2035.70   66.49
   0  -6  -8 1928.21   66.39
   0   6   8 1938.71   66.49
  -1  -6  -8   22.50    2.50
  -1  -6  -8   26.70    3.50
   1   6   8   22.90    3.80
  -2  -6  -8  385.86   14.80
  -2  -6  -8  398.96   14.50
   2   6   8  391.66   14.50
  -3  -6  -8  401.36   14.70
   3   6   8  393.86   14.80
  -4  -6  -8   25.50    4.40
   4   6   8   15.00    2.80
  13  -7  -8 1099.49   38.00
  12  -7  -8  119.49    6.20
  10  -7  -8   93.59    5.70
 -10   7   8   97.79    6.20
   9  -7  -8  481.45   17.70
  -9   7   8  492.05   18.00
   8  -7  -8  193.98    8.10
  -8   7   8  186.48    8.50
   7  -7  -8  242.98    9.70
  -7   7   8  254.37   10.30
   6  -7  -8 2160.18   72.79
  -6   7   8 2155.78   73.19
   5  -7  -8 1088.39   37.20
  -5   7   8 1085.89   37.60
   4  -7  -8 1251.37   42.30
  -4   7   8 1231.58   42.60
   3  -7  -8 2217.48   74.59
  -3   7   8 2208.38   74.79
   2  -7  -8    0.00    1.60
  -2   7   8    1.80    1.90
   1  -7  -8  176.28    7.60
  -1   7   8  183.08    7.90
   0  -7  -8   10.90    2.00
   0  -7  -8    6.50    2.10
   0   7   8   10.10    2.30
  -1  -7  -8  213.78    8.70
   1   7   8  214.58    9.00
  -2  -7  -8  327.27   12.80
   2   7   8  347.67   13.00
  -3  -7  -8   82.79    5.50
   3   7   8   77.89    6.10
 -11   8   8  103.19    6.80
 -10   8   8   14.30    3.00
   9  -8  -8   67.69    4.90
  -9   8   8   75.69    5.50
   8  -8  -8  200.08    8.60
  -8   8   8  218.88    9.30
   7  -8  -8 1810.12   62.09
  -7   8   8 1856.51   62.59
   6  -8  -8  919.11   32.70
  -6   8   8  976.60   33.20
   5  -8  -8 1165.58   40.90
  -5   8   8 1229.08   41.40
   4  -8  -8 1473.85   51.09
  -4   8   8 1535.45   51.49
   3  -8  -8   58.49    4.30
  -3   8   8   67.89    5.00
  -2   8   8   52.49    4.60
  -1   8   8  223.08    9.40
   0  -8  -8   21.40    3.60
   0   8   8   25.60    4.40
  -1  -8  -8  445.46   16.40
   1   8   8  453.25   16.70
  -2  -8  -8  253.77   10.40
   2   8   8  258.77   10.80
 -12   9   8  913.91   32.70
 -11   9   8  163.78    8.70
 -10   9   8 2109.19   71.99
  -9   9   8   18.20    3.10
  -8   9   8  234.28   10.30
  -7   9   8   82.59    5.90
  -6   9   8  254.07   10.80
  -5   9   8  199.48    9.00
  -4   9   8  103.59    6.40
  -3   9   8  108.89    6.40
  -2   9   8 1040.10   36.20
  -1   9   8   49.70    5.30
   0  -9  -8  698.03   24.30
   0   9   8  682.53   24.70
  -1  -9  -8  106.29    6.10
   1   9   8  103.69    6.90
 -12  10   8  131.79    8.60
 -11  10   8 1795.92   61.89
 -10  10   8   35.70    5.80
  -9  10   8  449.26   17.50
  -8  10   8   69.29    6.20
  -7  10   8  174.48    8.80
  -6  10   8  212.98    9.70
  -5  10   8  469.55   17.70
  -4  10   8  539.85   20.10
  -3  10   8 1184.88   41.20
  -2  10   8   22.20    3.20
  -1  10   8  832.52   29.60
   0 -10  -8   67.29    5.20
   0  10   8   61.39    6.30
 -13  11   8  227.08   11.50
 -12  11   8  477.55   19.10
 -11  11   8  119.09    8.30
 -10  11   8  167.68    9.50
  -9  11   8 1011.60   36.00
  -8  11   8  214.78   10.40
  -7  11   8  625.24   23.20
  -6  11   8  392.66   15.60
  -5  11   8  657.53   24.10
  -4  11   8  444.06   17.20
  -3  11   8   92.39    7.00
  -2  11   8  286.47   12.40
 -11  12   8  222.38   11.50
 -10  12   8 1147.49   40.90
  -9  12   8   13.00    4.00
  -8  12   8  718.73   26.60
  -7  12   8  114.19    8.20
  -6  12   8  312.77   13.40
  -5  12   8   31.20    4.30
   0  14  -9  684.23   24.30
  -1  14  -9   45.30    4.90
  -2  14  -9 1186.58   40.50
   2 -14   9 1174.88   40.30
  -3  14  -9  651.13   23.00
  -4  14  -9  522.65   18.70
  -7  14  -9  139.99    8.90
   2  13  -9  200.28    8.80
   1  13  -9 1042.50   36.00
   0  13  -9    9.00    2.40
   0 -13   9    8.50    2.30
  -1  13  -9  939.21   32.10
   1 -13   9  908.21   32.00
   1 -13   9  939.41   32.10
  -2  13  -9   22.30    2.60
   2 -13   9   32.70    4.80
   2 -13   9   27.60    3.10
  -3  13  -9  175.18    7.60
   3 -13   9  180.48    7.10
  -4  13  -9  868.61   30.50
  -4  13  -9  869.61   29.60
   4 -13   9  848.42   29.40
  -5  13  -9  100.39    6.90
  -5  13  -9  107.69    5.00
  -6  13  -9  379.86   15.30
  -7  13  -9  654.93   24.30
  -8  13  -9    2.20    3.90
   4  12  -9 1242.28   42.70
   3  12  -9  194.18    8.50
   2  12  -9 1300.87   44.40
   1  12  -9    5.80    2.00
  -1 -12   9    3.40    2.30
  -1 -12   9    2.90    1.90
   0  12  -9  290.47   10.70
   0 -12   9  275.07   10.60
   0 -12   9  268.77   10.50
   1 -12   9   22.20    2.90
   1 -12   9   20.10    3.50
  -2  12  -9   39.90    3.60
   2 -12   9   48.50    3.20
   2 -12   9   41.80    4.00
  -3  12  -9  857.41   29.70
  -3  12  -9  860.01   30.40
   3 -12   9  877.11   30.40
   3 -12   9  875.21   29.60
  -4  12  -9  518.25   17.30
  -4  12  -9  498.15   18.40
   4 -12   9  471.35   17.30
  -5  12  -9  203.18    9.40
  -5  12  -9  194.08    7.40
  -6  12  -9 1492.05   51.49
  -7  12  -9  101.09    7.20
  -8  12  -9  710.83   26.20
   5  11  -9  304.07   12.00
   4  11  -9   77.09    5.20
   3  11  -9  835.12   28.70
  -3 -11   9  815.32   28.90
   2  11  -9  290.17   10.50
  -2 -11   9  258.97   10.60
  -2 -11   9  268.07   10.00
   1  11  -9  199.98    7.90
  -1 -11   9  191.88    7.60
  -1 -11   9  188.58    7.90
   0  11  -9  908.91   32.50
   0 -11   9  959.30   32.20
   0 -11   9  954.60   32.30
  -1  11  -9    1.80    1.50
  -1  11  -9    0.30    2.10
   1 -11   9    1.40    1.30
   1 -11   9    1.40    1.80
  -2  11  -9  728.93   26.70
  -2  11  -9  788.72   27.40
   2 -11   9  795.52   27.10
   2 -11   9  808.22   26.70
  -3  11  -9  556.54   20.20
  -3  11  -9  574.54   19.40
   3 -11   9  547.05   19.80
  -4  11  -9 1320.17   45.30
  -4  11  -9 1277.97   44.30
   4 -11   9 1349.86   45.50
  -5  11  -9 1070.39   36.10
  -5  11  -9  995.00   34.60
  -6  11  -9  100.39    6.60
  -7  11  -9  610.14   22.50
  -8  11  -9  240.88   11.00
  -9  11  -9    3.30    3.30
   6  10  -9   50.49    5.00
   5  10  -9   27.30    4.30
   4  10  -9  523.15   18.70
  -4 -10   9  522.85   17.90
   3  10  -9  398.76   14.20
  -3 -10   9  381.66   13.70
   2  10  -9  354.96   12.90
  -2 -10   9  350.76   12.50
   1  10  -9 2785.72   94.39
  -1 -10   9 2844.72   94.29
   0  10  -9    2.70    1.40
   0  10  -9    1.60    1.80
   0 -10   9    0.50    1.60
  -1  10  -9 1050.89   36.40
  -1  10  -9 1027.90   35.90
   1 -10   9 1100.69   36.20
  -2  10  -9  186.18    7.30
  -2  10  -9  196.28    8.20
   2 -10   9  197.58    7.80
  -3  10  -9  622.24   21.30
  -3  10  -9  622.94   22.20
   3 -10   9  624.54   21.90
  -4  10  -9  386.96   14.40
  -4  10  -9  384.46   13.00
   4 -10   9  362.66   13.90
  -5  10  -9   37.60    4.70
  -6  10  -9  152.38    7.90
  -7  10  -9 1198.38   41.80
  -8  10  -9   51.09    6.40
  -9  10  -9 1070.69   37.90
   7   9  -9  591.04   21.30
   6   9  -9    1.30    2.10
   5   9  -9  653.63   23.00
   4   9  -9  476.25   17.20
  -4  -9   9  488.05   16.60
   3   9  -9  760.02   26.40
  -3  -9   9  767.92   26.00
   2   9  -9 2735.83   92.19
   2   9  -9 2746.43   92.29
  -2  -9   9 2767.62   91.99
   1   9  -9   52.79    3.60
   1   9  -9   54.39    3.30
  -1  -9   9   54.09    3.20
   0   9  -9  884.01   31.10
   0   9  -9  887.31   30.70
   0  -9   9  939.71   30.90
  -1   9  -9  237.08    8.60
  -1   9  -9  234.08    9.30
   1  -9   9  242.08    9.00
  -2   9  -9  104.19    4.50
  -2   9  -9  113.39    5.70
   2  -9   9  117.59    5.10
  -3   9  -9   75.29    3.30
  -3   9  -9   78.39    4.90
   3  -9   9   76.79    4.30
  -4   9  -9  280.97   10.90
   4  -9   9  264.27   10.40
  -5   9  -9  517.85   18.20
   5  -9   9  465.85   17.50
  -6   9  -9 1566.14   53.69
  -7   9  -9  230.88   10.30
  -8   9  -9 1364.56   47.40
  -9   9  -9  128.89    8.30
 -10   9  -9  265.77   12.50
   8   8  -9 1789.92   60.89
   7   8  -9   56.79    4.80
   6   8  -9 1237.68   42.30
   5   8  -9  329.97   12.30
   4   8  -9  285.57   10.90
  -4  -8   9  298.87   10.30
   3   8  -9  572.44   20.00
   3   8  -9  570.74   19.70
  -3  -8   9  566.24   19.50
   2   8  -9   40.60    2.90
   2   8  -9   40.70    2.90
   1   8  -9  466.95   16.60
   1   8  -9  470.45   16.40
  -1  -8   9  473.05   16.30
   0   8  -9 1343.37   46.40
   0   8  -9 1370.66   46.80
   0  -8   9 1424.66   46.60
  -1   8  -9   41.80    3.50
  -1   8  -9   44.30    2.50
   1  -8   9   41.00    3.00
  -2   8  -9 1684.93   55.29
  -2   8  -9 1482.05   54.39
   2  -8   9 1715.83   54.99
  -3   8  -9 1107.09   41.00
   3  -8   9 1249.18   40.20
  -4   8  -9 1940.61   66.09
   4  -8   9 1955.00   65.69
  -5   8  -9  560.64   19.80
   5  -8   9  527.15   19.30
  -6   8  -9  254.07   10.50
  -7   8  -9  514.55   19.10
  -8   8  -9  152.18    8.20
  -9   8  -9  202.98   10.10
 -10   8  -9  310.57   13.70
   9   7  -9 1432.26   49.10
   8   7  -9   24.60    4.20
   7   7  -9  718.03   25.20
   6   7  -9  874.71   30.20
   5   7  -9  357.56   13.10
   4   7  -9   66.29    3.10
  -4  -7   9   62.39    3.00
   3   7  -9  347.87   12.30
   3   7  -9  336.77   12.00
  -3  -7   9  338.37   11.90
   2   7  -9  433.66   15.00
   2   7  -9  423.66   15.00
  -2  -7   9  426.36   14.80
   1   7  -9 2401.06   82.59
   1   7  -9 2645.34   84.09
  -1  -7   9 2339.27   82.39
   0   7  -9   17.00    1.80
   0   7  -9   13.60    1.80
   0  -7   9   14.60    2.10
  -1   7  -9 4832.62  162.18
  -1   7  -9 4754.72  160.18
   1  -7   9 4708.73  159.88
  -2   7  -9   75.99    3.10
  -2   7  -9   86.09    4.40
   2  -7   9   82.09    4.00
  -3   7  -9  721.43   25.60
   3  -7   9  743.23   25.30
  -4   7  -9  381.26   14.20
   4  -7   9  381.66   13.80
  -5   7  -9   -1.10    1.90
   5  -7   9   -2.10    1.50
  -6   7  -9  124.19    6.50
   6  -7   9  113.29    5.60
  -7   7  -9  476.95   17.90
  -8   7  -9   24.70    3.80
  -9   7  -9 1409.06   49.00
 -10   7  -9   60.69    7.50
  10   6  -9  430.26   16.20
   9   6  -9    2.20    2.10
   8   6  -9  344.97   13.00
   7   6  -9  871.41   30.20
   6   6  -9    4.80    1.70
   5   6  -9  809.52   28.30
   5   6  -9  827.12   27.60
   4   6  -9 1686.03   56.59
   4   6  -9 1661.83   56.19
  -4  -6   9 1681.03   56.19
   3   6  -9  653.23   22.30
   3   6  -9  640.54   22.50
  -3  -6   9  661.43   22.20
   2   6  -9  755.82   26.10
   2   6  -9  765.02   26.10
  -2  -6   9  775.32   26.00
   1   6  -9  290.87   10.20
   1   6  -9  285.07   10.40
  -1  -6   9  287.67   10.20
   0   6  -9 3333.97  105.19
   0   6  -9 2993.80  104.09
   0  -6   9 2998.60  103.99
  -1   6  -9  221.88    8.70
  -1   6  -9  237.48    8.10
  -1   6  -9  232.18    8.00
   1  -6   9  226.28    8.50
  -2   6  -9  124.49    4.50
  -2   6  -9  127.89    5.60
   2  -6   9  125.19    5.30
  -3   6  -9 1523.25   51.79
   3  -6   9 1526.35   51.49
  -4   6  -9  961.20   33.30
   4  -6   9  961.60   32.90
  -5   6  -9  132.19    6.40
   5  -6   9  125.09    5.70
  -6   6  -9  406.36   15.00
   6  -6   9  386.46   14.40
  -7   6  -9  201.58    9.20
  -8   6  -9 2501.45   84.99
  -9   6  -9    0.10    3.30
 -10   6  -9  594.84   22.60
  10   5  -9   28.50    4.40
   9   5  -9  428.86   15.90
   8   5  -9 1495.65   50.89
   7   5  -9  229.48    9.10
   6   5  -9 3577.84  119.89
   5   5  -9 1161.28   39.30
   5   5  -9 1180.78   39.90
   4   5  -9 1261.97   42.60
   4   5  -9 1267.27   42.30
  -4  -5   9 1242.18   42.30
   3   5  -9  371.16   13.20
   3   5  -9  368.36   13.00
  -3  -5   9  382.66   13.10
   2   5  -9   62.19    3.20
   2   5  -9   66.19    3.20
  -2  -5   9   64.39    3.10
   1   5  -9  346.07   11.90
   1   5  -9  340.67   12.10
  -1  -5   9  333.87   12.00
   0   5  -9  358.06   12.90
   0   5  -9  360.46   12.40
   0   5  -9  369.46   12.50
   0  -5   9  355.26   12.70
  -1   5  -9  176.18    7.10
  -1   5  -9  181.68    6.30
  -1   5  -9  178.38    6.30
   1  -5   9  180.68    6.80
  -2   5  -9 3699.53  126.99
   2  -5   9 3798.82  126.79
  -3   5  -9  486.05   17.20
   3  -5   9  474.65   16.90
  -4   5  -9 2804.12   95.59
   4  -5   9 2868.11   95.19
  -5   5  -9  701.83   24.70
   5  -5   9  697.63   24.30
  -6   5  -9  113.69    6.10
   6  -5   9  102.29    5.20
  -7   5  -9  872.21   30.80
  -8   5  -9  135.79    7.80
  -9   5  -9   94.29    7.60
 -10   5  -9  453.35   18.30
  11   4  -9  524.35   19.30
  10   4  -9  499.15   18.30
   9   4  -9  820.92   28.70
   8   4  -9  362.56   13.50
   7   4  -9 2406.06   80.99
   6   4  -9  220.58    7.70
   6   4  -9  220.58    8.60
   5   4  -9   75.99    3.10
   5   4  -9   70.89    3.90
   4   4  -9 1179.78   39.80
   4   4  -9 1166.58   39.50
   3   4  -9  380.96   13.50
   3   4  -9  387.96   13.70
  -3  -4   9  395.36   13.50
   2   4  -9  551.64   19.10
   2   4  -9  548.15   19.10
  -2  -4   9  566.44   19.10
   1   4  -9 2288.57   75.09
   1   4  -9 2277.37   76.19
   1   4  -9 2243.28   75.39
  -1  -4   9 2089.99   74.59
   0   4  -9  629.94   21.60
   0   4  -9  628.84   21.60
   0   4  -9  634.24   22.00
   0  -4   9  651.53   21.90
  -1   4  -9 3308.77  107.39
  -1   4  -9 3346.57  109.29
  -1   4  -9 3261.17  107.49
   1  -4   9 2866.11  106.89
  -2   4  -9  155.28    6.40
   2  -4   9  149.79    6.10
  -3   4  -9 3758.62  119.39
   3  -4   9 3221.78  116.69
  -4   4  -9 1117.09   42.20
   4  -4   9 1317.77   41.50
  -5   4  -9   70.69    4.70
   5  -4   9   68.89    4.00
  -6   4  -9   75.99    5.20
   6  -4   9   74.79    4.40
  -7   4  -9   68.99    5.60
  -8   4  -9   36.40    4.20
  -9   4  -9  608.84   22.80
  12   3  -9 1086.89   37.90
  11   3  -9  302.47   12.10
  10   3  -9  348.77   13.30
   9   3  -9   37.90    4.10
   8   3  -9  935.01   32.30
   7   3  -9   29.10    1.60
   7   3  -9   29.70    3.20
   6   3  -9   26.20    1.60
   6   3  -9   23.30    2.90
   5   3  -9 3361.06  115.29
   5   3  -9 3465.65  116.19
   4   3  -9 1630.64   54.69
   3   3  -9  877.11   30.00
   3   3  -9  886.51   29.90
   2   3  -9 1973.60   69.09
   2   3  -9 2176.98   70.29
  -2  -3   9 2029.40   69.09
   1   3  -9  325.37   11.70
   1   3  -9  320.87   11.50
  -1  -3   9  342.47   11.70
   0   3  -9 1979.00   62.59
   0   3  -9 1711.13   62.09
   0  -3   9 1849.91   62.09
  -1   3  -9   30.20    1.60
  -1   3  -9   28.40    2.60
   1  -3   9   29.40    2.50
  -2   3  -9  455.45   16.60
  -2   3  -9  465.15   15.80
   2  -3   9  479.75   16.40
  -3   3  -9  761.22   26.70
   3  -3   9  772.32   25.80
   3  -3   9  772.42   26.50
  -4   3  -9  142.79    6.80
  -4   3  -9  156.48    5.30
   4  -3   9  154.78    6.40
  -5   3  -9  288.07   11.10
   5  -3   9  271.47   10.60
  -6   3  -9 1135.09   38.70
   6  -3   9 1133.09   37.40
   6  -3   9 1076.69   38.20
  -7   3  -9  244.78   10.70
   7  -3   9  253.37    8.80
  -8   3  -9  622.94   23.40
   8  -3   9  656.53   21.80
  -9   3  -9   46.90    6.60
  12   2  -9  187.08    8.90
  11   2  -9 1000.70   34.80
  10   2  -9    6.90    2.30
   9   2  -9   22.50    3.70
   8   2  -9 2093.89   70.19
   8   2  -9 2101.79   70.89
   7   2  -9   26.10    3.10
   7   2  -9   27.70    1.70
   6   2  -9 2850.71   96.29
   5   2  -9  488.05   16.50
   5   2  -9  443.66   16.00
   4   2  -9 2227.78   74.19
   4   2  -9 2168.08   73.79
   3   2  -9 3163.48  105.39
   3   2  -9 3039.50  105.79
   2   2  -9    2.90    0.90
   2   2  -9    3.00    1.00
   1   2  -9  647.54   23.00
   1   2  -9  664.53   22.70
  -1  -2   9  692.93   23.00
   0   2  -9   11.00    1.50
   0   2  -9   11.40    1.40
   0  -2   9   11.90    2.00
  -1   2  -9    8.70    1.40
   1  -2   9    6.80    1.30
   1  -2   9    9.20    1.60
  -2   2  -9 1372.36   49.00
  -2   2  -9 1444.56   48.40
   2  -2   9 1496.05   49.00
   2  -2   9 1468.65   48.50
  -3   2  -9  190.58    8.00
  -3   2  -9  189.58    7.00
   3  -2   9  216.48    7.20
   3  -2   9  198.98    7.80
  -4   2  -9 2048.00   72.09
  -4   2  -9 2118.39   72.89
   4  -2   9 2225.28   72.69
   4  -2   9 2236.08   72.09
  -5   2  -9 1479.15   51.09
  -5   2  -9 1415.56   50.19
   5  -2   9 1564.94   50.79
   5  -2   9 1520.75   50.09
  -6   2  -9  783.92   27.30
  -6   2  -9  807.12   28.40
   6  -2   9  795.82   27.90
   6  -2   9  829.32   27.20
  -7   2  -9  340.37   13.60
   7  -2   9  337.77   11.90
  -8   2  -9   -2.60    3.10
   8  -2   9    0.90    1.40
  -9   2  -9   75.69    7.20
  13   1  -9    7.50    3.00
  12   1  -9 1235.58   42.70
  11   1  -9  591.14   21.30
  10   1  -9  323.17   12.50
   9   1  -9 1680.93   55.89
   9   1  -9 1581.94   54.89
   9   1  -9 1652.63   55.99
   9   1  -9 1653.33   54.99
   8   1  -9   40.60    2.10
   8   1  -9   34.90    3.50
   7   1  -9 1444.96   49.99
   7   1  -9 1538.15   50.69
   6   1  -9  188.58    7.10
   6   1  -9  207.28    7.80
   5   1  -9 1075.79   36.30
   5   1  -9 1057.79   36.00
   4   1  -9 1955.20   67.39
   4   1  -9 2055.09   67.99
   3   1  -9   21.20    2.00
   3   1  -9   17.40    2.00
   2   1  -9 2157.38   71.69
   2   1  -9 2044.10   70.39
   1   1  -9 1511.35   49.60
   1   1  -9 1446.96   49.80
  -1  -1   9 1467.95   49.70
   0   1  -9  311.17   10.50
   0   1  -9  291.37   10.80
   0  -1   9  291.97   10.60
   0  -1   9  301.67   10.80
  -1   1  -9 1664.63   56.79
  -1   1  -9 1700.63   56.29
   1  -1   9 1682.43   56.69
   1  -1   9 1681.63   56.49
  -2   1  -9   70.59    3.10
  -2   1  -9   69.69    3.90
   2  -1   9   68.59    3.80
   2  -1   9   77.69    3.30
  -3   1  -9 2641.44   86.59
  -3   1  -9 2340.37   85.89
   3  -1   9 2615.44   85.89
   3  -1   9 2682.23   86.39
  -4   1  -9  779.02   26.80
  -4   1  -9  709.13   26.00
   4  -1   9  782.02   26.10
   4  -1   9  799.02   26.60
  -5   1  -9  525.75   19.10
  -5   1  -9  498.25   18.20
   5  -1   9  544.45   18.10
   5  -1   9  539.25   18.70
  -6   1  -9  226.38    9.90
  -6   1  -9  220.18    9.10
   6  -1   9  232.48    9.30
   6  -1   9  253.67    8.60
  -7   1  -9   79.19    6.30
  -7   1  -9   87.09    4.80
   7  -1   9   95.99    4.30
  -8   1  -9   74.79    6.80
   8  -1   9   83.29    4.20
  13   0  -9 1160.38   40.40
  12   0  -9  867.91   30.60
  11   0  -9  557.34   18.80
  11   0  -9  546.75   20.00
  10   0  -9 2078.59   71.99
  10   0  -9 2165.08   71.09
   9   0  -9   88.29    5.00
   8   0  -9  789.32   27.50
   7   0  -9  244.58    9.40
   6   0  -9  227.98    8.60
   6   0  -9  222.78    8.10
   5   0  -9  673.23   23.50
   5   0  -9  705.83   23.80
   4   0  -9   97.59    4.10
   4   0  -9   96.39    4.30
   3   0  -9 2140.99   69.79
   3   0  -9 2030.10   68.69
  -3   0   9 1965.70   68.79
   2   0  -9 5038.40  173.48
   2   0  -9 5262.67  173.18
  -2   0   9 5071.39  173.78
   1   0  -9  874.61   29.50
   1   0  -9  866.01   29.70
  -1   0   9  866.81   29.60
   0   0  -9 2324.67   75.59
   0   0  -9 2194.68   75.89
   0   0   9 2258.37   75.79
  -1   0  -9   20.80    2.40
  -1   0  -9   16.70    1.80
   1   0   9   19.80    2.10
  -2   0  -9 1111.49   37.50
  -2   0  -9 1104.89   37.00
   2   0   9 1076.29   37.10
  -3   0  -9   14.80    2.40
  -3   0  -9   15.60    1.60
   3   0   9   18.80    2.20
  -4   0  -9  157.18    6.90
   4   0   9  151.88    6.10
  -5   0  -9  262.17   10.60
  -5   0  -9  302.57   11.50
   5   0   9  303.77   10.50
  -6   0  -9  436.16   15.50
  -6   0  -9  362.86   14.60
   6   0   9  424.36   14.40
  -7   0  -9  203.38    8.80
  -7   0  -9  217.78    9.90
   7   0   9  228.38    8.40
  -8   0  -9  846.02   31.60
   8   0   9  920.81   30.30
  14  -1  -9  616.14   22.80
  13  -1  -9  136.79    7.70
  12  -1  -9  564.04   19.50
  12  -1  -9  571.44   20.80
  11  -1  -9 1012.20   34.30
  10  -1  -9   89.39    3.90
  10  -1  -9   77.39    5.10
   9  -1  -9  770.72   27.00
   8  -1  -9 1247.68   42.70
   7  -1  -9   62.69    3.70
   6  -1  -9  363.96   13.10
   5  -1  -9  120.79    5.20
   4  -1  -9 1732.23   58.69
   4  -1  -9 1813.62   59.59
  -4   1   9 1683.43   58.79
   3  -1  -9 3412.96  123.19
   3  -1  -9 3755.52  122.79
  -3   1   9 3605.54  121.49
   2  -1  -9 1387.96   45.30
   2  -1  -9 1323.37   45.40
  -2   1   9 1315.77   45.40
   1  -1  -9  954.00   31.50
   1  -1  -9  911.81   31.70
  -1   1   9  919.81   31.60
   0  -1  -9  147.29    5.70
   0  -1  -9  150.48    6.10
   0   1   9  149.49    5.90
  -1  -1  -9  149.39    5.90
  -1  -1  -9  161.38    6.40
   1   1   9  155.08    6.10
  -2  -1  -9  480.75   16.80
  -2  -1  -9  450.25   16.50
   2   1   9  471.55   16.30
  -3  -1  -9   10.80    1.90
  -3  -1  -9    8.10    1.50
   3   1   9    9.60    1.50
  -4  -1  -9  721.43   23.80
  -4  -1  -9  612.24   23.20
   4   1   9  683.43   23.10
  -5  -1  -9  406.16   14.30
  -5  -1  -9  338.07   13.60
   5   1   9  387.56   13.50
  -6  -1  -9  378.66   13.90
  -6  -1  -9  317.67   13.00
   6   1   9  357.16   12.70
  -7  -1  -9  681.03   25.90
  -7  -1  -9  752.62   26.20
   7   1   9  739.23   25.10
  14  -2  -9   50.29    6.20
  13  -2  -9  376.56   14.80
  12  -2  -9 1130.99   38.40
  11  -2  -9  401.46   14.20
  10  -2  -9  516.45   18.70
   9  -2  -9 2506.55   84.59
   8  -2  -9   47.50    3.50
   7  -2  -9 2988.00  100.39
   6  -2  -9  155.28    6.40
  -6   2   9  158.38    6.80
   5  -2  -9 1210.78   40.40
  -5   2   9 1162.68   40.50
   4  -2  -9 1303.17   43.10
  -4   2   9 1238.28   43.20
   3  -2  -9  690.23   24.20
   3  -2  -9  702.23   24.10
  -3   2   9  716.63   24.40
   2  -2  -9  725.83   24.00
   2  -2  -9  667.83   24.10
  -2   2   9  708.93   24.20
   1  -2  -9  288.67   10.90
   1  -2  -9  305.67   10.70
  -1   2   9  303.77   10.90
   0  -2  -9   36.80    2.60
   0  -2  -9   35.60    2.90
   0   2   9   36.30    2.90
  -1  -2  -9 1232.68   40.10
  -1  -2  -9 1180.88   40.40
   1   2   9 1142.19   40.20
  -2  -2  -9  416.96   14.70
  -2  -2  -9  404.66   14.40
   2   2   9  401.16   14.50
  -3  -2  -9 1662.13   55.89
  -3  -2  -9 1701.33   56.09
   3   2   9 1601.04   55.79
  -4  -2  -9   38.10    4.00
  -4  -2  -9   21.20    3.40
   4   2   9   31.20    3.30
  -5  -2  -9  247.28    9.50
  -5  -2  -9  196.98    8.90
   5   2   9  218.38    8.70
  -6  -2  -9  304.47   12.60
  -6  -2  -9  348.67   13.20
   6   2   9  331.27   12.20
  -7  -2  -9    0.50    3.40
   7   2   9    0.70    2.10
  14  -3  -9    4.80    3.20
  13  -3  -9  659.43   22.90
  12  -3  -9  168.98    6.90
  11  -3  -9  745.43   25.70
  10  -3  -9 1891.21   64.29
   9  -3  -9  102.29    5.40
   8  -3  -9 3250.27  109.19
   7  -3  -9  125.89    5.80
  -7   3   9  129.69    6.10
   6  -3  -9  251.37    9.60
  -6   3   9  254.17    9.90
   5  -3  -9   41.70    3.00
  -5   3   9   37.90    3.40
   4  -3  -9   89.89    4.30
  -4   3   9   93.49    4.70
   3  -3  -9 1585.54   53.09
  -3   3   9 1559.34   53.29
   2  -3  -9 1655.23   53.79
   2  -3  -9 1544.75   53.79
  -2   3   9 1583.44   53.89
   1  -3  -9  703.93   23.40
   1  -3  -9  663.93   23.50
  -1   3   9  674.03   23.60
   0  -3  -9 4976.30  170.98
   0  -3  -9 5232.78  170.38
   0   3   9 5005.40  171.78
  -1  -3  -9    2.00    1.50
   1   3   9    3.00    1.50
  -2  -3  -9 1149.98   39.10
  -2  -3  -9 1158.98   38.90
   2   3   9 1117.79   38.90
  -3  -3  -9   11.30    2.10
  -3  -3  -9    6.30    2.00
   3   3   9   10.20    1.90
  -4  -3  -9   72.19    5.00
  -4  -3  -9   92.99    5.20
   4   3   9   82.79    4.80
  -5  -3  -9   34.90    4.60
  -5  -3  -9   22.80    2.90
   5   3   9   28.70    3.90
  -6  -3  -9   11.90    3.20
  -6  -3  -9   17.50    3.10
   6   3   9   13.40    2.40
  13  -4  -9   73.59    4.30
  12  -4  -9  991.20   34.00
  10  -4  -9   51.49    4.30
   9  -4  -9 1211.78   41.60
   8  -4  -9  431.16   15.40
  -8   4   9  413.26   15.70
   7  -4  -9  173.68    7.20
  -7   4   9  166.88    7.50
   6  -4  -9  535.85   18.60
  -6   4   9  513.35   18.80
   5  -4  -9  528.75   18.70
  -5   4   9  534.35   19.00
   4  -4  -9 2188.98   71.79
  -4   4   9 2073.59   71.89
   3  -4  -9  557.04   19.20
  -3   4   9  543.75   19.40
   2  -4  -9  662.43   22.60
  -2   4   9  643.94   22.80
   1  -4  -9  948.71   31.90
  -1   4   9  920.51   32.10
   0  -4  -9   55.99    3.80
   0  -4  -9   50.09    3.50
   0   4   9   54.39    3.80
  -1  -4  -9  502.05   17.90
  -1  -4  -9  511.45   17.80
   1   4   9  497.75   17.90
  -2  -4  -9  247.88    9.80
  -2  -4  -9  255.47    9.90
   2   4   9  253.77    9.80
  -3  -4  -9   35.20    4.10
  -3  -4  -9   46.20    4.00
   3   4   9   39.80    4.00
  -4  -4  -9   94.29    6.00
  -4  -4  -9  118.19    6.10
   4   4   9  106.39    5.80
  -5  -4  -9  250.97   10.30
   5   4   9  235.38    9.90
  14  -5  -9  279.37   10.90
  13  -5  -9  285.77   11.00
  12  -5  -9  146.79    6.60
  10  -5  -9  229.98    9.50
   9  -5  -9  852.81   30.20
  -9   5   9  883.21   30.50
   8  -5  -9    7.30    1.80
  -8   5   9    6.50    2.20
   7  -5  -9 3554.34  112.99
  -7   5   9 3166.78  113.69
   6  -5  -9  310.27   11.60
  -6   5   9  309.97   12.00
   5  -5  -9 1560.74   52.39
  -5   5   9 1529.05   52.59
   4  -5  -9   23.90    2.80
  -4   5   9   25.10    3.40
   3  -5  -9  775.62   26.70
  -3   5   9  771.72   26.90
   2  -5  -9  300.47   11.00
  -2   5   9  300.77   11.40
   1  -5  -9   74.69    4.20
   1  -5  -9   81.69    4.20
   0  -5  -9   19.70    3.20
   0  -5  -9   24.60    3.20
   0   5   9   21.50    3.50
  -1  -5  -9  869.51   29.90
  -1  -5  -9  868.71   29.90
   1   5   9  853.61   29.90
  -2  -5  -9   78.99    4.80
  -2  -5  -9   73.39    5.00
   2   5   9   82.39    5.00
  -3  -5  -9 1082.89   37.10
   3   5   9 1072.59   37.10
  -4  -5  -9  334.87   12.70
   4   5   9  319.27   12.70
  -5  -5  -9  130.09    7.30
   5   5   9  118.79    6.90
  14  -6  -9   35.80    4.20
  13  -6  -9  648.44   23.00
  12  -6  -9  273.57   10.70
  10  -6  -9  890.91   33.10
 -10   6   9 1015.30   33.60
   9  -6  -9  456.25   17.10
  -9   6   9  480.55   17.50
   8  -6  -9 2420.06   80.89
  -8   6   9 2371.16   81.19
   7  -6  -9    4.70    1.70
  -7   6   9    6.30    2.20
   6  -6  -9  815.42   28.00
  -6   6   9  797.12   28.30
   5  -6  -9  451.45   16.10
  -5   6   9  444.56   16.50
   4  -6  -9  113.39    5.40
  -4   6   9  117.79    6.00
   3  -6  -9  112.99    5.30
  -3   6   9  116.89    5.90
   2  -6  -9  630.04   22.00
  -2   6   9  627.04   22.30
   1  -6  -9   77.69    4.60
   1  -6  -9   87.19    4.60
  -1   6   9   85.59    5.10
   0  -6  -9 1335.17   46.60
   0  -6  -9 1387.26   46.60
   0   6   9 1382.86   46.70
  -1  -6  -9   28.90    4.10
  -1  -6  -9   36.50    4.10
   1   6   9   33.20    4.20
  -2  -6  -9 1440.16   49.80
   2   6   9 1480.45   49.90
  -3  -6  -9   62.99    5.00
   3   6   9   49.40    5.30
  -4  -6  -9  167.08    8.20
   4   6   9  166.48    8.30
  12  -7  -9  911.31   31.80
 -11   7   9  590.74   21.90
 -10   7   9   20.30    3.00
   9  -7  -9  333.57   13.20
  -9   7   9  358.76   13.70
   8  -7  -9    5.90    2.10
  -8   7   9    7.00    2.40
   7  -7  -9  202.78    8.50
  -7   7   9  212.58    9.20
   6  -7  -9 1178.08   41.20
  -6   7   9 1230.78   41.60
   5  -7  -9  317.47   12.10
  -5   7   9  333.87   12.70
   4  -7  -9 1468.35   50.39
  -4   7   9 1498.95   50.79
   3  -7  -9  927.71   32.40
  -3   7   9  954.70   32.80
   2  -7  -9  646.24   23.00
  -2   7   9  669.73   23.40
   1  -7  -9  551.44   19.50
  -1   7   9  544.15   19.70
   0  -7  -9  112.89    5.90
   0   7   9  107.19    6.10
  -1  -7  -9  522.15   18.90
   1   7   9  523.05   19.10
  -2  -7  -9   29.80    4.50
   2   7   9   30.90    5.30
  -3  -7  -9   95.09    6.10
   3   7   9   81.79    6.40
 -11   8   9   37.70    5.60
 -10   8   9   15.30    3.10
  -9   8   9  416.36   16.10
  -8   8   9  447.26   17.00
   7  -8  -9 1242.98   41.70
  -7   8   9 1121.49   41.00
   6  -8  -9   47.80    4.40
  -6   8   9   58.49    5.20
   5  -8  -9 2110.09   67.89
  -5   8   9 1845.82   67.19
  -4   8   9  567.34   20.60
  -3   8   9  319.47   12.60
  -2   8   9  155.28    7.60
   1  -8  -9   11.40    2.40
  -1   8   9   14.90    2.80
   0  -8  -9   60.39    4.80
   0   8   9   61.69    5.50
  -1  -8  -9  158.08    7.80
   1   8   9  167.28    8.20
  -2  -8  -9   13.80    3.00
 -12   9   9  199.68   10.30
 -11   9   9  697.53   25.60
 -10   9   9  836.62   30.10
  -9   9   9  199.48    9.60
  -8   9   9  961.80   34.00
  -7   9   9   41.00    5.40
  -6   9   9  553.44   20.50
  -5   9   9  235.78   10.30
  -4   9   9  128.29    7.30
  -3   9   9  268.57   11.30
  -2   9   9  581.24   21.30
   1  -9  -9   11.30    2.60
  -1   9   9   13.50    3.00
   0  -9  -9  498.45   18.00
   0   9   9  478.05   18.40
 -13  10   9  112.19    9.00
 -12  10   9 1062.29   37.90
 -11  10   9  671.53   25.00
 -10  10   9   35.20    6.10
  -9  10   9  526.65   20.20
  -8  10   9   13.20    3.40
  -7  10   9   24.70    3.40
  -6  10   9  343.87   13.90
  -5  10   9    2.70    2.80
  -4  10   9 1025.70   36.10
  -3  10   9  551.64   20.50
  -2  10   9  456.15   17.60
   1 -10  -9  959.70   32.70
  -1  10   9  910.91   33.20
 -12  11   9  444.16   18.20
 -11  11   9   17.70    4.00
 -10  11   9  550.04   21.30
  -9  11   9   61.69    7.20
  -8  11   9   21.20    3.80
  -7  11   9  479.95   18.70
  -6  11   9   18.80    3.60
  -5  11   9  697.13   25.50
  -4  11   9  115.99    7.80
  -3  11   9  789.72   29.40
 -10  12   9  401.96   17.90
  -9  12   9  164.88    9.90
  -8  12   9  710.63   26.50
  -7  12   9   17.70    4.50
  -1  14 -10  123.59    6.60
  -2  14 -10 1339.87   45.70
  -5  14 -10  303.67   13.10
   2  13 -10  833.42   29.20
   1  13 -10  145.49    7.10
   0  13 -10  262.57   10.30
   0 -13  10  252.07   10.00
  -1  13 -10  826.42   28.50
   1 -13  10  818.92   28.60
  -2  13 -10   98.59    5.90
  -3  13 -10  668.53   24.60
  -3  13 -10  695.63   23.70
  -4  13 -10  564.44   21.50
  -4  13 -10  598.04   20.30
  -5  13 -10   36.40    5.90
  -6  13 -10  387.06   15.70
  -7  13 -10  245.08   11.60
   3  12 -10  902.21   31.40
   2  12 -10  786.12   27.40
   1  12 -10  281.37   10.80
  -1 -12  10  273.47   10.50
   0  12 -10  367.76   13.40
   0 -12  10  358.06   13.30
  -1  12 -10   23.80    3.00
  -1  12 -10   24.70    3.30
   1 -12  10   21.10    3.50
  -2  12 -10  167.78    7.80
  -2  12 -10  158.58    6.80
   2 -12  10  157.08    7.20
  -3  12 -10  544.65   20.20
  -3  12 -10  559.84   19.20
  -4  12 -10    3.60    2.80
  -4  12 -10    4.60    1.60
  -5  12 -10 1454.95   50.29
  -6  12 -10  601.74   22.40
  -7  12 -10  552.14   21.00
  -8  12 -10  456.15   19.20
   5  11 -10    1.00    2.40
   4  11 -10  532.75   19.20
   3  11 -10  784.02   27.30
   2  11 -10  200.78    8.00
  -2 -11  10  185.98    7.50
   1  11 -10  431.46   15.30
  -1 -11  10  419.36   15.10
   0  11 -10  276.67   10.20
   0 -11  10  265.87   10.20
  -1  11 -10  110.09    5.10
  -1  11 -10  111.89    6.00
   1 -11  10  111.39    5.40
  -2  11 -10  990.10   34.50
  -2  11 -10 1032.10   35.30
   2 -11  10 1026.20   34.90
  -3  11 -10    1.50    1.40
  -3  11 -10   -0.80    2.30
   3 -11  10    1.10    2.10
  -4  11 -10 1445.66   48.80
  -4  11 -10 1386.96   47.50
  -5  11 -10  308.57   12.60
  -6  11 -10 1098.19   38.50
  -7  11 -10  695.13   25.40
  -8  11 -10    0.30    3.50
   6  10 -10   46.60    4.90
   5  10 -10  328.17   12.60
   4  10 -10  528.65   18.90
   3  10 -10   40.30    3.80
  -3 -10  10   43.90    3.00
   2  10 -10 1055.19   35.60
  -2 -10  10 1024.80   35.30
   1  10 -10 1946.11   65.69
   1  10 -10 1954.20   65.89
  -1 -10  10 1950.10   65.59
   0  10 -10  548.45   19.90
   0  10 -10  569.14   19.50
   0 -10  10  564.84   19.60
  -1  10 -10 1186.58   40.50
  -1  10 -10 1146.39   39.90
   1 -10  10 1205.58   40.20
  -2  10 -10  162.08    7.30
  -2  10 -10  152.28    6.20
   2 -10  10  162.88    6.80
  -3  10 -10  218.48    7.70
  -3  10 -10  217.28    9.10
   3 -10  10  195.58    8.40
  -4  10 -10   23.60    3.10
  -5  10 -10  109.09    6.70
  -6  10 -10  715.43   25.90
  -7  10 -10  159.78    8.70
  -8  10 -10  509.65   19.70
  -9  10 -10  535.95   21.20
   7   9 -10   77.09    5.60
   6   9 -10  142.69    7.00
   5   9 -10  599.14   21.20
   4   9 -10   20.70    3.40
  -4  -9  10   17.30    2.40
   3   9 -10 1581.04   51.79
  -3  -9  10 1474.15   51.99
   2   9 -10 1845.62   62.99
   2   9 -10 1891.81   62.99
  -2  -9  10 1869.81   62.79
   1   9 -10  855.81   29.70
   1   9 -10  869.01   29.50
  -1  -9  10  862.31   29.40
   0   9 -10 1029.50   35.20
   0   9 -10 1018.20   35.60
   0  -9  10 1066.49   35.40
  -1   9 -10    2.60    1.20
  -1   9 -10   -0.20    1.80
   1  -9  10    4.50    1.70
  -2   9 -10  911.71   30.90
  -2   9 -10  830.12   30.00
   2  -9  10  922.21   30.60
  -3   9 -10   15.10    2.50
  -3   9 -10   15.70    1.60
   3  -9  10   17.80    3.10
  -4   9 -10    8.00    2.40
   4  -9  10    6.90    2.00
  -5   9 -10 1213.08   42.00
  -6   9 -10  414.96   16.00
  -7   9 -10 1421.06   49.20
  -8   9 -10  787.22   28.60
  -9   9 -10  171.98    9.70
   8   8 -10  879.11   30.80
   7   8 -10  123.29    6.50
   6   8 -10  994.70   34.30
   5   8 -10   18.00    2.30
   4   8 -10 1901.51   64.59
   4   8 -10 1879.91   64.89
  -4  -8  10 1991.70   64.59
   3   8 -10   21.30    3.00
   3   8 -10   25.10    2.70
  -3  -8  10   26.80    2.40
   2   8 -10  293.07   10.80
   2   8 -10  294.77   10.80
  -2  -8  10  297.47   10.60
   1   8 -10 1266.47   42.80
   1   8 -10 1245.88   42.50
  -1  -8  10 1264.87   42.60
   0   8 -10  502.65   17.40
   0   8 -10  507.55   17.90
   0  -8  10  505.15   17.60
  -1   8 -10  809.82   27.80
  -1   8 -10  764.32   27.10
   1  -8  10  831.12   27.60
  -2   8 -10 1542.55   56.19
  -2   8 -10 1726.93   57.39
   2  -8  10 1774.12   56.79
  -3   8 -10   64.19    4.60
   3  -8  10   61.99    4.00
  -4   8 -10 1384.76   46.70
   4  -8  10 1334.67   46.30
  -5   8 -10  190.08    8.70
  -6   8 -10 1121.69   39.10
  -7   8 -10  337.97   13.80
  -8   8 -10  175.88    9.40
  -9   8 -10  572.04   21.80
   9   7 -10 1332.47   45.80
   8   7 -10  408.96   15.30
   7   7 -10 1089.19   37.50
   6   7 -10   19.20    3.40
   5   7 -10  845.92   29.20
   4   7 -10   25.80    2.30
  -4  -7  10   25.30    2.40
   3   7 -10    2.30    1.30
   3   7 -10    4.10    1.40
  -3  -7  10    3.40    1.30
   2   7 -10 1507.85   50.99
   2   7 -10 1501.55   50.89
  -2  -7  10 1523.55   50.89
   1   7 -10 1163.18   39.30
   1   7 -10 1151.88   39.00
  -1  -7  10 1150.28   39.10
   0   7 -10 1098.89   37.90
   0   7 -10 1130.19   38.40
   0  -7  10 1143.99   38.10
  -1   7 -10 2587.14   83.69
  -1   7 -10 2440.46   83.79
   1  -7  10 2439.26   83.49
  -2   7 -10  112.89    4.00
  -2   7 -10  108.69    5.90
  -2   7 -10   98.59    4.00
   2  -7  10  116.99    5.00
  -3   7 -10 1485.35   51.49
   3  -7  10 1533.85   51.19
  -4   7 -10    2.90    2.10
   4  -7  10    3.80    1.60
  -5   7 -10  428.66   15.20
   5  -7  10  370.16   14.50
  -6   7 -10  189.48    8.80
  -7   7 -10   18.30    3.50
  -8   7 -10  357.86   14.70
  -9   7 -10  524.15   20.40
  10   6 -10  331.57   13.10
   9   6 -10  381.96   14.50
   8   6 -10  966.90   33.50
   7   6 -10  312.97   11.90
   6   6 -10  206.78    8.40
   5   6 -10  970.40   33.30
   5   6 -10  968.60   32.70
   4   6 -10   47.50    3.40
   4   6 -10   46.70    2.80
  -4  -6  10   44.20    2.70
   3   6 -10 1487.95   50.69
   3   6 -10 1486.45   50.79
  -3  -6  10 1542.65   50.69
   2   6 -10  307.87   10.80
   2   6 -10  296.97   10.90
  -2  -6  10  299.27   10.80
   1   6 -10 1327.57   45.40
   1   6 -10 1348.47   45.10
  -1  -6  10 1343.27   45.20
   0   6 -10 3053.29   99.39
   0   6 -10 3092.79   99.39
   0   6 -10 2833.42   98.79
   0  -6  10 2801.22   98.59
  -1   6 -10  113.99    5.30
  -1   6 -10  112.79    4.30
  -1   6 -10  109.99    4.30
   1  -6  10  116.19    4.90
  -2   6 -10 1067.89   37.50
   2  -6  10 1118.99   37.20
  -3   6 -10   15.30    2.40
   3  -6  10   16.60    2.70
  -4   6 -10   87.19    5.10
   4  -6  10   84.09    4.50
  -5   6 -10  818.42   27.60
   5  -6  10  742.83   27.00
  -6   6 -10  156.18    7.80
  -7   6 -10  494.95   18.70
  -8   6 -10  878.71   31.50
  -9   6 -10  253.07   12.10
  10   5 -10   33.40    4.80
   9   5 -10  610.74   21.90
   8   5 -10  930.51   32.30
   7   5 -10  333.17   12.50
   6   5 -10 5694.73  190.78
   6   5 -10 5541.35  188.18
   5   5 -10    4.00    1.10
   5   5 -10    1.70    1.50
   4   5 -10 1753.42   58.99
   4   5 -10 1760.82   59.29
   3   5 -10   51.79    2.90
   3   5 -10   53.99    3.10
  -3  -5  10   51.69    2.90
   2   5 -10 1145.99   38.60
   2   5 -10 1118.59   38.50
  -2  -5  10 1153.48   38.60
   1   5 -10  520.35   18.30
   1   5 -10  552.24   18.40
   1   5 -10  532.45   18.60
  -1  -5  10  524.45   18.40
   0   5 -10   40.70    3.00
   0   5 -10   36.40    2.20
   0   5 -10   39.20    2.20
   0  -5  10   36.90    2.80
  -1   5 -10  978.60   33.60
  -1   5 -10 1012.70   34.30
  -1   5 -10  992.10   33.60
   1  -5  10 1019.50   34.10
  -2   5 -10 1544.65   52.59
   2  -5  10 1549.24   52.29
  -3   5 -10   20.50    3.40
   3  -5  10   22.40    2.70
  -4   5 -10 1859.71   62.49
   4  -5  10 1816.72   62.09
  -5   5 -10    4.20    2.40
   5  -5  10    3.40    1.80
  -6   5 -10 1560.44   53.59
  -7   5 -10  401.36   15.70
  -8   5 -10  196.48    9.90
  -9   5 -10  158.38    9.70
  11   4 -10    2.50    2.60
  10   4 -10 1154.78   39.90
   9   4 -10  350.86   13.40
   8   4 -10  344.57   13.00
   7   4 -10 1438.76   49.00
   6   4 -10   87.39    3.60
   5   4 -10 1682.93   57.09
   5   4 -10 1698.33   56.69
   4   4 -10  514.45   17.60
   4   4 -10  508.85   17.90
   3   4 -10  454.45   15.80
   3   4 -10  454.05   15.90
   3   4 -10  443.96   15.70
  -3  -4  10  454.65   15.80
   2   4 -10  480.45   16.80
   2   4 -10  491.55   16.80
   2   4 -10  480.35   16.90
  -2  -4  10  481.95   16.80
   1   4 -10  710.93   24.00
   1   4 -10  693.63   24.30
  -1  -4  10  711.83   24.20
   0   4 -10  626.34   22.00
   0   4 -10  619.64   21.50
   0  -4  10  654.93   21.90
  -1   4 -10 2362.36   76.19
  -1   4 -10 2193.48   76.49
   1  -4  10 2257.07   76.29
  -2   4 -10  343.87   12.80
   2  -4  10  347.77   12.50
  -3   4 -10 2345.37   78.99
   3  -4  10 2333.57   78.69
  -4   4 -10   35.00    3.90
   4  -4  10   36.60    3.40
  -5   4 -10 1267.67   42.70
   5  -4  10 1205.38   42.20
  -6   4 -10   35.10    3.70
  -7   4 -10  105.99    7.00
  -8   4 -10   26.60    4.10
  -9   4 -10  179.28   10.10
  12   3 -10  236.38   10.60
  11   3 -10 1003.10   35.00
  10   3 -10   90.59    5.80
   9   3 -10 1223.98   42.10
   8   3 -10  308.47   11.80
   7   3 -10    5.40    1.80
   7   3 -10    5.40    0.90
   6   3 -10 1627.14   54.69
   6   3 -10 1603.64   54.09
   5   3 -10 2399.56   83.79
   5   3 -10 2539.05   83.89
   5   3 -10 2541.45   83.89
   4   3 -10   64.39    3.20
   4   3 -10   69.19    3.60
   3   3 -10 1536.65   50.49
   3   3 -10 1461.85   50.89
   2   3 -10  312.77   11.40
   2   3 -10  323.77   11.30
  -2  -3  10  322.77   11.50
   1   3 -10 1043.50   36.40
   1   3 -10 1074.89   36.20
  -1  -3  10 1094.69   36.40
   0   3 -10 1102.69   36.60
   0   3 -10 1025.60   37.00
   0  -3  10 1134.49   37.00
  -1   3 -10  979.90   34.30
  -1   3 -10 1013.30   33.70
   1  -3  10 1016.30   34.30
  -2   3 -10  958.20   34.20
  -2   3 -10 1025.30   33.30
   2  -3  10 1000.00   34.00
  -3   3 -10   20.90    3.30
  -3   3 -10   20.80    1.40
   3  -3  10   19.30    2.90
  -4   3 -10  144.89    6.90
   4  -3  10  154.08    5.40
   4  -3  10  150.38    6.50
  -5   3 -10  164.48    7.60
   5  -3  10  155.78    7.00
  -6   3 -10    5.50    2.70
  -7   3 -10  155.38    8.50
   7  -3  10  167.48    6.00
  -8   3 -10  555.04   21.00
  12   2 -10  567.64   20.90
  11   2 -10  366.26   14.20
  10   2 -10  113.89    6.20
   9   2 -10  727.73   25.10
   9   2 -10  692.53   23.90
   8   2 -10   58.19    4.40
   8   2 -10   58.49    4.20
   8   2 -10   57.49    2.60
   7   2 -10  205.68    8.30
   7   2 -10  202.18    7.30
   6   2 -10 3530.45  115.79
   6   2 -10 3327.17  114.99
   5   2 -10   11.20    1.80
   4   2 -10 4084.69  137.79
   4   2 -10 4033.60  136.99
   3   2 -10  160.58    6.20
   2   2 -10 3506.65  119.39
   2   2 -10 3536.45  120.09
   1   2 -10  808.22   28.60
   1   2 -10  841.72   28.40
  -1  -2  10  860.11   28.70
   0   2 -10  336.07   12.30
   0   2 -10  341.97   11.90
   0  -2  10  347.57   12.30
  -1   2 -10  101.99    3.90
  -1   2 -10  100.09    4.80
   1  -2  10   96.79    4.60
   1  -2  10  100.59    4.10
  -2   2 -10  457.05   14.90
  -2   2 -10  400.86   15.90
   2  -2  10  438.06   15.60
   2  -2  10  449.36   15.10
  -3   2 -10  120.09    5.70
  -3   2 -10  106.99    4.50
   3  -2  10  121.89    5.50
   3  -2  10  124.69    4.70
  -4   2 -10 1523.65   55.59
  -4   2 -10 1647.64   56.59
   4  -2  10 1731.53   55.69
   4  -2  10 1741.63   56.39
  -5   2 -10  125.59    5.10
  -5   2 -10  126.09    6.70
   5  -2  10  140.99    5.20
   5  -2  10  132.89    6.20
  -6   2 -10 1066.89   37.40
  -6   2 -10 1027.80   36.20
   6  -2  10 1120.79   36.20
  -7   2 -10  400.46   16.10
   7  -2  10  420.76   14.40
  -8   2 -10  119.19    8.30
  13   1 -10  386.86   15.40
  12   1 -10 1025.20   35.90
  11   1 -10    3.00    2.40
  10   1 -10 1549.34   51.09
  10   1 -10 1409.96   49.90
  10   1 -10 1513.25   49.99
   9   1 -10  314.07   12.30
   9   1 -10  323.37   11.10
   8   1 -10  545.25   18.70
   8   1 -10  549.25   19.60
   7   1 -10  888.81   30.80
   7   1 -10  932.51   31.50
   6   1 -10  836.22   28.60
   6   1 -10  822.62   28.20
   5   1 -10 3940.61  136.09
   5   1 -10 4079.09  135.69
   4   1 -10  320.47   11.50
   4   1 -10  327.87   11.70
   3   1 -10  344.47   12.20
   2   1 -10  829.82   28.10
   2   1 -10  819.12   28.20
   0   1 -10  301.97   11.20
   0   1 -10  303.17   10.70
   0  -1  10  310.57   10.90
  -1   1 -10  746.43   26.30
  -1   1 -10  775.62   25.70
   1  -1  10  756.82   25.90
  -2   1 -10  110.19    5.90
  -2   1 -10  119.09    4.60
   2  -1  10  111.29    5.30
   2  -1  10  118.29    4.70
  -3   1 -10 2196.78   76.69
  -3   1 -10 2333.47   77.39
   3  -1  10 2350.26   77.29
   3  -1  10 2289.87   76.79
  -4   1 -10    1.60    2.00
  -4   1 -10   -0.60    1.20
   4  -1  10    1.50    1.30
   4  -1  10    1.30    1.70
  -5   1 -10 1564.44   56.99
  -5   1 -10 1768.52   57.89
   5  -1  10 1750.42   56.89
  -6   1 -10   67.19    5.70
  -6   1 -10   58.49    4.30
   6  -1  10   68.69    3.70
  -7   1 -10  105.39    7.30
   7  -1  10  107.79    5.00
  -8   1 -10   79.09    7.40
  13   0 -10 1182.38   41.20
  12   0 -10    8.30    2.90
  12   0 -10   10.90    1.80
  11   0 -10 1581.34   55.09
  11   0 -10 1640.64   55.19
  11   0 -10 1714.83   56.29
  10   0 -10  507.85   17.40
   9   0 -10  660.43   22.40
   9   0 -10  653.33   23.30
   8   0 -10  595.14   20.70
   8   0 -10  615.14   21.50
   7   0 -10  442.06   15.30
   7   0 -10  437.96   15.90
   6   0 -10  686.83   23.90
   6   0 -10  711.63   24.30
   5   0 -10  116.89    5.20
   5   0 -10  117.19    4.80
   4   0 -10   10.60    1.50
   4   0 -10   11.60    1.50
   3   0 -10 1598.94   54.89
   3   0 -10 1655.53   54.89
  -3   0  10 1629.94   54.99
   2   0 -10  510.15   17.50
   2   0 -10  500.55   17.60
  -2   0  10  498.55   17.60
   1   0 -10 1610.14   53.79
   1   0 -10 1588.54   54.09
  -1   0  10 1603.54   53.99
   0   0 -10 1131.79   39.70
   0   0 -10 1221.28   39.40
   0   0  10 1147.39   39.50
  -1   0 -10  932.11   33.40
  -1   0 -10 1018.80   33.00
   1   0  10  972.40   33.10
  -2   0 -10  395.16   13.70
  -2   0 -10  396.66   14.30
   2   0  10  381.16   13.80
  -3   0 -10  106.89    5.20
  -3   0 -10   82.99    4.70
   3   0  10  101.69    4.50
  -4   0 -10  596.14   20.30
  -4   0 -10  530.65   19.50
   4   0  10  565.04   19.50
  -5   0 -10  172.08    7.90
  -5   0 -10  146.29    6.70
   5   0  10  170.38    6.60
  -6   0 -10   12.10    3.00
  -6   0 -10   10.80    2.10
   6   0  10   11.60    1.90
  -7   0 -10  307.97   13.10
   7   0  10  313.87   11.50
  13  -1 -10    5.10    3.20
  12  -1 -10 1173.98   39.70
  11  -1 -10  468.65   16.40
  10  -1 -10  777.62   27.50
   9  -1 -10  737.63   26.00
   8  -1 -10  152.88    6.70
   7  -1 -10  267.67   10.20
   6  -1 -10  609.94   21.30
   5  -1 -10  267.77   10.00
   5  -1 -10  267.07    9.70
   4  -1 -10 2628.94   84.59
   4  -1 -10 2449.75   83.69
  -4   1  10 2400.86   83.79
   3  -1 -10  654.83   22.50
   3  -1 -10  639.94   22.50
  -3   1  10  663.93   22.70
   2  -1 -10 2445.66   82.99
   2  -1 -10 2525.95   82.89
  -2   1  10 2439.66   82.99
   1  -1 -10  504.75   17.60
   1  -1 -10  496.95   17.90
  -1   1  10  523.75   17.80
   0  -1 -10  155.28    6.30
   0  -1 -10  149.29    5.80
   0   1  10  147.39    6.10
  -1  -1 -10  111.19    4.70
  -1  -1 -10  117.59    5.20
   1   1  10  108.09    5.00
  -2  -1 -10   54.19    3.80
  -2  -1 -10   47.80    3.20
   2   1  10   51.09    3.30
  -3  -1 -10  148.39    6.30
  -3  -1 -10  159.78    6.90
   3   1  10  148.19    6.30
  -4  -1 -10  580.14   20.20
  -4  -1 -10  540.95   19.70
   4   1  10  566.54   19.60
  -5  -1 -10   72.69    4.70
  -5  -1 -10   83.09    5.60
   5   1  10   78.69    4.50
  -6  -1 -10 1009.10   36.20
  -6  -1 -10 1099.09   36.90
   6   1  10 1046.40   35.90
  -7  -1 -10  490.95   18.80
   7   1  10  484.75   17.40
  14  -2 -10   19.30    3.50
  12  -2 -10  356.16   12.80
  10  -2 -10 1200.88   41.40
   9  -2 -10 1009.60   34.90
   8  -2 -10 1047.90   36.10
   7  -2 -10 1913.81   64.69
   6  -2 -10  475.15   16.90
  -6   2  10  476.85   17.20
   5  -2 -10 2100.79   69.19
  -5   2  10 2000.90   69.29
   4  -2 -10   30.00    2.60
   4  -2 -10   31.90    2.80
  -4   2  10   31.20    3.10
   3  -2 -10  638.34   22.80
   3  -2 -10  681.63   22.80
  -3   2  10  657.33   23.00
   2  -2 -10  343.97   13.00
   2  -2 -10  368.46   12.90
  -2   2  10  371.06   13.10
   1  -2 -10   22.00    2.40
   1  -2 -10   23.30    2.80
  -1   2  10   22.40    2.90
   0  -2 -10 1016.40   35.50
   0  -2 -10 1090.19   35.30
   0   2  10 1007.70   35.40
  -1  -2 -10  518.45   17.50
  -1  -2 -10  496.75   17.80
   1   2  10  489.75   17.70
  -2  -2 -10   81.19    4.40
  -2  -2 -10   94.09    4.80
   2   2  10   83.99    4.50
  -3  -2 -10 1201.18   40.80
  -3  -2 -10 1208.58   40.50
   3   2  10 1160.88   40.50
  -4  -2 -10   13.70    2.70
  -4  -2 -10    7.50    2.10
   4   2  10   10.00    2.00
  -5  -2 -10  784.42   28.30
  -5  -2 -10  860.31   28.70
   5   2  10  789.22   28.00
  -6  -2 -10   46.40    5.80
   6   2  10   39.60    4.30
  13  -3 -10  176.78    7.20
  12  -3 -10    8.40    1.80
   9  -3 -10 1957.70   66.39
   8  -3 -10 1682.33   57.19
   7  -3 -10  211.08    8.10
  -7   3  10  183.08    8.90
   6  -3 -10  640.84   22.30
  -6   3  10  630.24   22.50
   5  -3 -10   97.69    4.80
  -5   3  10  104.39    5.20
   4  -3 -10   54.19    3.40
  -4   3  10   49.80    3.80
   3  -3 -10  342.97   12.60
   3  -3 -10  357.86   12.60
  -3   3  10  349.17   12.90
   2  -3 -10  142.49    5.80
   2  -3 -10  137.99    6.40
  -2   3  10  141.19    6.20
   1  -3 -10 2372.06   76.69
   1  -3 -10 2216.78   76.79
  -1   3  10 2258.17   76.79
   0  -3 -10 2437.96   78.19
   0  -3 -10 2271.77   78.39
   0   3  10 2276.17   78.39
  -1  -3 -10  275.87   10.10
  -1  -3 -10  271.87   10.30
   1   3  10  258.07   10.20
  -2  -3 -10  715.93   25.30
  -2  -3 -10  764.12   25.10
   2   3  10  689.13   25.10
  -3  -3 -10   39.90    4.10
  -3  -3 -10   28.40    3.80
   3   3  10   33.30    3.80
  -4  -3 -10  421.66   15.10
  -4  -3 -10  392.86   14.90
   4   3  10  392.26   14.70
  -5  -3 -10    8.10    2.90
  -5  -3 -10    4.70    2.50
   5   3  10    5.10    2.30
  13  -4 -10   37.00    3.60
  12  -4 -10  815.32   28.20
  10  -4 -10  994.00   34.60
   9  -4 -10  691.83   24.40
   8  -4 -10    1.00    1.80
  -8   4  10    2.10    2.00
   7  -4 -10  541.75   19.10
  -7   4  10  527.25   19.40
   6  -4 -10  690.93   23.10
  -6   4  10  624.34   23.40
   5  -4 -10   53.99    3.70
  -5   4  10   62.69    4.30
   4  -4 -10  810.92   27.50
  -4   4  10  782.82   27.70
   3  -4 -10  125.49    5.40
  -3   4  10  123.29    5.90
   2  -4 -10 1718.53   56.19
   2  -4 -10 1617.44   56.29
  -2   4  10 1659.83   56.49
   1  -4 -10  176.58    7.60
   1  -4 -10  195.28    7.40
  -1   4  10  182.98    7.70
   0  -4 -10  529.35   17.80
   0  -4 -10  514.95   18.00
   0   4  10  466.75   18.50
  -1  -4 -10  339.97   12.40
  -1  -4 -10  337.47   12.60
   1   4  10  329.57   12.60
  -2  -4 -10   23.10    3.80
  -2  -4 -10   32.40    3.90
   2   4  10   32.70    4.00
  -3  -4 -10   30.50    4.30
   3   4  10   35.30    4.30
  -4  -4 -10  157.98    7.70
   4   4  10  160.68    7.50
  -5  -4 -10   49.90    5.50
   5   4  10   38.20    4.80
  14  -5 -10   20.30    3.30
  13  -5 -10  866.51   30.10
   9  -5 -10  246.88   10.30
  -9   5  10  272.07   10.90
   8  -5 -10  978.10   33.80
  -8   5  10  969.30   34.00
   7  -5 -10 1566.84   52.79
  -7   5  10 1534.95   53.09
   6  -5 -10  309.77   11.70
  -6   5  10  312.47   12.10
   5  -5 -10 1754.42   58.69
  -5   5  10 1710.03   58.89
   4  -5 -10  315.47   11.80
  -4   5  10  323.07   12.30
   3  -5 -10  147.69    6.20
  -3   5  10  141.99    6.70
   2  -5 -10   13.50    2.10
   2  -5 -10   12.20    1.90
  -2   5  10   13.00    2.20
   1  -5 -10  410.16   14.70
   1  -5 -10  412.56   14.90
  -1   5  10  402.66   15.00
   0  -5 -10  603.34   21.50
   0  -5 -10  620.24   21.30
   0   5  10  594.04   21.50
  -1  -5 -10  597.64   21.30
  -1  -5 -10  603.34   21.20
   1   5  10  596.04   21.30
  -2  -5 -10  119.39    6.30
  -2  -5 -10  125.59    7.20
   2   5  10  117.19    6.40
  -3  -5 -10  964.80   33.50
   3   5  10  964.80   33.50
  -4  -5 -10    2.50    2.70
   4   5  10   -1.60    2.60
  14  -6 -10  475.15   19.80
  13  -6 -10  361.66   13.70
 -10   6  10  170.78    8.40
   9  -6 -10 1342.57   46.90
  -9   6  10 1382.76   47.10
   8  -6 -10 1837.82   62.59
  -8   6  10 1844.22   62.89
   7  -6 -10  232.58    9.60
  -7   6  10  246.78   10.10
   6  -6 -10 1337.07   46.40
  -6   6  10 1382.06   46.80
   5  -6 -10   41.30    3.60
  -5   6  10   42.90    4.50
   4  -6 -10  224.98    8.90
  -4   6  10  230.28    9.50
   3  -6 -10  201.08    8.30
  -3   6  10  214.58    8.80
   2  -6 -10    5.70    1.90
   2  -6 -10   10.30    2.10
  -2   6  10    8.90    2.30
   1  -6 -10  386.96   14.10
   1  -6 -10  370.86   14.00
  -1   6  10  384.76   14.30
   0  -6 -10  397.66   14.80
   0   6  10  402.06   15.00
  -1  -6 -10  526.25   19.10
   1   6  10  527.35   19.20
  -2  -6 -10 1405.16   48.40
   2   6  10 1425.06   48.50
  -3  -6 -10   12.60    2.90
   3   6  10    8.30    3.00
 -11   7  10   26.20    3.60
 -10   7  10  609.04   22.40
  -9   7  10   20.00    3.00
  -8   7  10   88.89    6.10
   7  -7 -10 1088.49   38.40
  -7   7  10 1136.69   38.80
   6  -7 -10  220.58    9.30
  -6   7  10  243.38   10.00
   5  -7 -10   91.39    5.20
  -5   7  10  100.29    6.20
   4  -7 -10 1943.61   66.49
  -4   7  10 1994.20   66.99
  -3   7  10   27.90    4.40
  -2   7  10  249.48   10.40
   1  -7 -10   93.49    5.40
  -1   7  10   98.59    6.00
   0  -7 -10  448.86   16.50
   0   7  10  437.56   16.60
  -1  -7 -10  619.14   22.30
   1   7  10  624.74   22.60
  -2  -7 -10   24.70    3.20
   2   7  10   22.00    3.40
 -11   8  10  384.06   15.60
 -10   8  10  272.97   12.00
  -9   8  10  110.09    7.00
  -8   8  10  306.57   12.70
  -7   8  10  441.56   16.90
  -6   8  10   44.60    5.50
  -5   8  10 1758.02   60.09
  -4   8  10   40.50    5.00
  -3   8  10  473.95   17.70
  -2   8  10   51.99    5.40
   1  -8 -10  128.69    6.70
  -1   8  10  125.09    7.20
   0  -8 -10   64.39    5.40
   0   8  10   69.99    6.00
  -1  -8 -10    4.20    2.80
 -12   9  10    8.10    3.70
 -11   9  10 1315.97   46.10
 -10   9  10  170.48    9.20
  -9   9  10  153.98    8.50
  -8   9  10  503.55   19.30
  -7   9  10  279.57   12.00
  -6   9  10 1036.80   36.50
  -5   9  10    4.10    2.90
  -4   9  10  898.11   31.80
  -3   9  10  294.47   12.40
  -2   9  10   12.50    3.20
   1  -9 -10   96.19    6.10
  -1   9  10   94.99    7.00
 -12  10  10 1143.59   40.70
 -11  10  10   97.79    8.00
 -10  10  10  526.45   20.40
  -9  10  10  394.46   16.10
  -8  10  10  227.78   10.80
  -7  10  10  214.98   10.40
  -6  10  10    1.50    3.40
  -5  10  10  365.96   14.80
  -4  10  10  617.74   22.80
  -3  10  10   14.90    3.50
 -11  11  10  836.52   32.90
 -10  11  10  443.26   18.00
  -9  11  10   50.59    7.50
  -8  11  10   67.49    7.20
  -7  11  10   55.39    6.90
  -6  11  10   63.79    7.10
  -5  11  10  403.96   16.90
   1  13 -11    1.80    2.30
   0  13 -11  775.82   26.80
   0 -13  11  757.32   26.80
  -1  13 -11  793.12   27.50
  -2  13 -11  518.25   18.20
  -2  13 -11  508.05   19.10
  -3  13 -11  779.82   30.40
  -3  13 -11  936.71   30.60
  -4  13 -11    0.90    3.40
  -5  13 -11  479.45   18.60
  -6  13 -11  149.29    9.10
   3  12 -11 1717.83   58.39
   2  12 -11   91.79    5.60
   1  12 -11  884.51   30.10
  -1 -12  11  856.21   29.90
   0  12 -11   62.29    4.40
   0 -12  11   54.49    4.20
  -1  12 -11  621.24   22.10
  -1  12 -11  598.74   21.40
   1 -12  11  620.64   21.70
  -2  12 -11  395.06   15.40
  -2  12 -11  409.16   14.40
  -3  12 -11  169.28    8.50
  -3  12 -11  173.48    6.80
  -4  12 -11  263.57   11.40
  -5  12 -11 1047.00   36.90
  -6  12 -11   48.00    6.50
  -7  12 -11 1025.50   36.70
   5  11 -11  403.66   15.20
   4  11 -11 1385.36   47.40
   3  11 -11   47.00    4.40
   2  11 -11  936.51   32.10
  -2 -11  11  926.71   31.80
   1  11 -11   81.19    5.70
   1  11 -11   94.59    5.00
  -1 -11  11   84.89    4.60
   0  11 -11    3.00    2.40
   0  11 -11    4.30    1.70
   0 -11  11    1.70    1.90
  -1  11 -11  195.18    8.50
  -1  11 -11  187.88    7.60
   1 -11  11  196.08    8.00
  -2  11 -11  417.96   14.70
  -2  11 -11  420.76   15.80
   2 -11  11  413.16   15.40
  -3  11 -11  391.16   15.10
  -3  11 -11  397.86   13.70
  -4  11 -11 1793.62   61.39
  -5  11 -11   24.00    3.90
  -6  11 -11 1993.60   68.29
  -7  11 -11   66.79    7.30
   6  10 -11  437.46   16.30
   5  10 -11  210.88    9.00
   4  10 -11  236.48    9.60
   3  10 -11  483.65   17.20
  -3 -10  11  477.95   16.80
   2  10 -11 1255.97   42.00
   2  10 -11 1226.18   42.10
  -2 -10  11 1222.18   41.80
   1  10 -11  391.76   14.00
   1  10 -11  389.96   14.30
  -1 -10  11  383.76   13.90
   0  10 -11 1471.45   49.90
   0  10 -11 1427.16   49.30
   0 -10  11 1479.25   49.40
  -1  10 -11  144.59    6.00
  -1  10 -11  150.38    7.20
   1 -10  11  150.28    6.50
  -2  10 -11  670.83   22.90
  -2  10 -11  687.23   23.90
   2 -10  11  656.43   23.50
  -3  10 -11  908.81   31.90
  -3  10 -11  908.81   30.60
  -4  10 -11  864.91   30.60
  -5  10 -11 1008.00   35.50
  -6  10 -11  131.39    8.20
  -7  10 -11   66.79    6.90
  -8  10 -11  486.15   19.30
   7   9 -11    7.50    2.70
   6   9 -11  200.18    8.70
   5   9 -11  328.57   12.50
   4   9 -11  248.58   10.00
  -4  -9  11  261.17    9.40
   3   9 -11 2408.56   80.89
   3   9 -11 2386.76   80.79
  -3  -9  11 2420.66   80.69
   2   9 -11  161.88    6.90
   2   9 -11  167.68    6.70
  -2  -9  11  157.38    6.50
   1   9 -11 2194.88   74.79
   1   9 -11 2202.58   74.49
  -1  -9  11 2258.07   74.59
   0   9 -11  159.28    7.20
   0   9 -11  163.38    6.30
   0  -9  11  155.08    6.60
  -1   9 -11 1257.47   42.60
  -1   9 -11 1175.38   41.80
   1  -9  11 1290.87   42.30
  -2   9 -11  264.57   10.60
  -2   9 -11  260.57    9.20
   2  -9  11  260.17   10.00
  -3   9 -11    3.40    2.40
   3  -9  11    2.90    2.00
  -4   9 -11  336.47   13.30
  -5   9 -11  609.54   22.40
  -6   9 -11    7.00    3.30
  -7   9 -11 1326.47   46.30
  -8   9 -11   25.50    4.30
   8   8 -11   35.40    4.80
   7   8 -11 1385.76   47.50
   6   8 -11  442.56   16.20
   5   8 -11  293.77   11.20
   4   8 -11 1213.48   42.40
   4   8 -11 1224.08   42.10
  -4  -8  11 1298.77   42.10
   3   8 -11  300.97   12.60
   3   8 -11  337.77   11.90
  -3  -8  11  338.27   11.70
   2   8 -11 1654.93   55.89
   2   8 -11 1652.73   56.09
  -2  -8  11 1665.83   55.79
   1   8 -11  546.15   19.10
   1   8 -11  541.65   18.70
  -1  -8  11  532.95   18.80
   0   8 -11  195.38    8.00
   0   8 -11  190.88    7.10
   0  -8  11  188.68    7.50
  -1   8 -11  469.15   16.70
  -1   8 -11  506.55   17.70
   1  -8  11  488.95   17.20
  -2   8 -11 1026.30   35.50
  -2   8 -11 1074.99   35.50
  -2   8 -11 1075.49   36.60
   2  -8  11 1057.79   36.20
  -3   8 -11   83.49    5.30
   3  -8  11   77.99    4.60
  -4   8 -11  219.38    9.50
  -5   8 -11  235.68   10.30
  -6   8 -11 1578.44   54.39
  -7   8 -11    8.90    3.50
  -8   8 -11  936.91   33.70
   9   7 -11  128.09    7.00
   8   7 -11 1644.94   56.09
   7   7 -11  649.83   23.10
   6   7 -11  437.16   15.90
   5   7 -11  453.95   15.70
   5   7 -11  453.05   16.30
   4   7 -11   94.89    4.50
   4   7 -11   98.59    5.00
  -4  -7  11  101.49    4.50
   3   7 -11  379.26   13.80
   3   7 -11  389.26   13.80
  -3  -7  11  391.66   13.70
   2   7 -11  901.11   31.00
   2   7 -11  908.91   30.90
  -2  -7  11  907.51   30.90
   1   7 -11   30.60    3.20
   1   7 -11   36.90    2.60
  -1  -7  11   30.80    2.80
   0   7 -11 1936.61   65.49
   0   7 -11 1954.70   65.99
   0   7 -11 1918.21   65.39
   0  -7  11 2001.70   65.79
  -1   7 -11  738.43   24.50
  -1   7 -11  702.73   24.50
   1  -7  11  730.23   25.00
  -2   7 -11 2210.98   74.39
   2  -7  11 2184.18   73.99
  -3   7 -11 1016.20   34.90
   3  -7  11  990.80   34.40
  -4   7 -11  255.67   10.30
   4  -7  11  239.68    9.90
  -5   7 -11  308.87   12.50
  -6   7 -11    4.30    2.90
  -7   7 -11  124.09    8.00
  -8   7 -11   81.79    7.40
  10   6 -11   11.40    3.50
   9   6 -11  763.82   27.00
   8   6 -11  638.34   22.80
   7   6 -11   73.99    4.90
   6   6 -11 1039.20   35.30
   6   6 -11 1056.99   36.00
   5   6 -11  176.28    7.40
   5   6 -11  176.58    6.70
   4   6 -11  439.96   15.80
   4   6 -11  442.46   15.50
  -4  -6  11  449.06   15.50
   3   6 -11 1094.19   37.50
   3   6 -11 1100.79   37.60
  -3  -6  11 1121.29   37.50
   2   6 -11   45.60    3.00
   2   6 -11   47.60    3.20
  -2  -6  11   49.20    3.10
   1   6 -11 2416.56   81.19
   1   6 -11 2434.76   81.59
   1   6 -11 2429.96   81.29
  -1  -6  11 2417.76   81.39
   0   6 -11   71.59    4.30
   0   6 -11   74.39    3.40
   0   6 -11   74.29    3.30
   0  -6  11   72.69    3.90
  -1   6 -11 2243.38   72.89
  -1   6 -11 2058.79   73.69
  -1   6 -11 2179.68   72.49
   1  -6  11 2198.38   73.09
  -2   6 -11 2002.70   66.69
   2  -6  11 1929.11   66.29
  -3   6 -11   24.20    2.90
   3  -6  11   24.90    3.10
  -4   6 -11   49.90    4.50
   4  -6  11   38.30    3.70
  -5   6 -11  172.28    8.20
  -6   6 -11    4.20    2.80
  -7   6 -11  617.64   23.00
  -8   6 -11   42.50    6.70
  10   5 -11  368.36   14.30
   9   5 -11  659.63   23.60
   8   5 -11   21.00    2.70
   7   5 -11 1186.18   39.50
   7   5 -11 1171.78   40.40
   6   5 -11 1513.15   50.99
   6   5 -11 1525.55   51.59
   5   5 -11  495.15   17.00
   5   5 -11  485.05   17.50
   4   5 -11 1216.48   41.60
   4   5 -11 1231.28   41.40
   3   5 -11  473.95   17.00
   3   5 -11  472.15   16.90
  -3  -5  11  507.35   17.00
   2   5 -11 1563.04   52.79
   2   5 -11 1585.04   52.99
   2   5 -11 1520.25   52.89
  -2  -5  11 1606.34   52.99
   1   5 -11    7.90    1.80
   1   5 -11    9.80    1.30
   1   5 -11    9.70    1.30
  -1  -5  11    7.20    1.60
   0   5 -11  397.96   13.80
   0   5 -11  398.16   13.80
   0   5 -11  404.06   14.50
   0  -5  11  395.36   14.20
  -1   5 -11 1050.49   34.60
  -1   5 -11 1006.40   35.50
  -1   5 -11 1024.10   34.60
   1  -5  11 1039.60   35.20
  -2   5 -11  160.88    7.10
   2  -5  11  156.38    6.70
  -3   5 -11  762.92   26.30
   3  -5  11  725.13   25.80
  -4   5 -11 1324.07   44.10
   4  -5  11 1230.08   43.60
  -5   5 -11   10.30    2.70
  -6   5 -11 1129.39   39.50
  -7   5 -11    0.60    3.00
  -8   5 -11  544.55   20.90
  11   4 -11  218.58    9.90
  10   4 -11  335.27   13.20
   9   4 -11    1.10    2.20
   8   4 -11 1741.63   59.19
   7   4 -11  341.77   12.80
   7   4 -11  341.87   11.80
   6   4 -11 1197.38   40.00
   6   4 -11 1176.68   40.60
   5   4 -11 1783.52   60.69
   5   4 -11 1833.62   61.09
   4   4 -11  138.09    5.90
   4   4 -11  137.09    5.90
   4   4 -11  139.19    5.50
   3   4 -11  172.18    6.80
   3   4 -11  171.28    6.80
   3   4 -11  177.38    6.80
  -3  -4  11  175.78    6.80
   2   4 -11  113.89    4.80
   2   4 -11  108.29    4.90
  -2  -4  11  115.89    5.00
   1   4 -11    6.20    1.10
   1   4 -11    3.90    1.50
  -1  -4  11    6.40    1.60
   0   4 -11  474.25   15.90
   0   4 -11  454.95   16.50
   0  -4  11  461.15   16.40
  -1   4 -11   23.30    3.40
  -1   4 -11   24.20    1.70
   1  -4  11   21.90    2.80
  -2   4 -11 1257.97   41.20
  -2   4 -11 1191.18   42.20
   2  -4  11 1249.38   42.00
  -3   4 -11 1521.35   52.39
   3  -4  11 1547.25   52.09
  -4   4 -11  387.16   14.20
   4  -4  11  355.96   13.70
  -5   4 -11  590.14   21.50
  -6   4 -11    2.60    3.00
  -7   4 -11   36.10    6.10
  -8   4 -11   22.70    4.60
  11   3 -11  897.71   31.60
  10   3 -11   45.50    5.00
   9   3 -11 1108.59   38.30
   8   3 -11  535.75   18.50
   8   3 -11  555.54   19.60
   7   3 -11  655.13   23.10
   7   3 -11  642.24   22.20
   7   3 -11  660.53   23.00
   6   3 -11 2401.56   84.49
   6   3 -11 2492.55   84.49
   6   3 -11 2627.24   84.69
   5   3 -11  140.29    6.00
   5   3 -11  129.99    5.40
   4   3 -11  494.55   17.50
   4   3 -11  513.75   17.70
   3   3 -11  600.44   20.40
   3   3 -11  575.34   20.30
   2   3 -11    4.90    1.20
   2   3 -11    4.00    1.30
  -2  -3  11    5.50    1.50
   1   3 -11  907.81   32.40
   1   3 -11  947.01   32.00
  -1  -3  11  982.60   32.40
   0   3 -11  141.29    6.10
   0   3 -11  141.89    5.30
   0  -3  11  138.99    5.90
  -1   3 -11 1463.65   48.40
   1  -3  11 1425.56   49.00
  -2   3 -11  627.14   20.30
  -2   3 -11  576.84   21.20
   2  -3  11  595.04   21.10
  -3   3 -11  165.88    6.20
  -3   3 -11  182.08    7.70
   3  -3  11  178.98    7.40
  -4   3 -11  317.07   11.00
  -4   3 -11  330.57   12.60
   4  -3  11  315.77   12.20
  -5   3 -11   21.60    3.10
  -6   3 -11   31.50    3.80
  -7   3 -11  341.67   14.40
  -8   3 -11   74.69    7.50
  12   2 -11 1563.54   53.79
  11   2 -11   14.10    2.80
  10   2 -11  882.71   31.00
   9   2 -11   42.60    2.30
   9   2 -11   42.70    4.30
   8   2 -11   60.29    4.50
   8   2 -11   63.99    4.50
   8   2 -11   62.69    3.00
   7   2 -11  503.05   17.50
   7   2 -11  467.15   16.70
   6   2 -11  424.16   15.10
   6   2 -11  408.06   14.50
   5   2 -11 1241.78   42.70
   5   2 -11 1288.97   43.10
   4   2 -11 3012.80   98.79
   4   2 -11 2794.92   97.39
   3   2 -11   83.29    4.00
   3   2 -11   87.89    4.00
   2   2 -11 2479.65   82.99
   2   2 -11 2461.65   82.79
   1   2 -11  420.06   15.10
   1   2 -11  430.46   14.80
   0   2 -11  798.12   27.40
   0   2 -11  785.82   26.90
   0  -2  11  795.62   27.30
  -1   2 -11   72.99    4.30
  -1   2 -11   80.69    3.30
   1  -2  11   74.59    4.20
   1  -2  11   80.39    3.60
  -2   2 -11    8.70    1.90
  -2   2 -11    5.90    1.00
   2  -2  11    6.10    1.20
   2  -2  11    5.70    1.70
  -3   2 -11  435.06   15.00
  -3   2 -11  440.66   16.10
   3  -2  11  420.96   15.80
   3  -2  11  451.45   15.10
  -4   2 -11  873.21   31.20
  -4   2 -11  947.91   32.30
   4  -2  11  949.80   31.20
  -5   2 -11  100.79    4.50
  -5   2 -11  112.39    6.50
   5  -2  11  115.89    4.60
  -6   2 -11 1153.68   40.90
   6  -2  11 1187.08   39.50
  -7   2 -11   27.70    4.10
  12   1 -11   86.79    6.50
  11   1 -11  646.44   22.50
  11   1 -11  692.13   24.10
  11   1 -11  663.73   22.60
  10   1 -11  402.76   14.10
  10   1 -11  417.86   15.50
   9   1 -11   17.40    2.00
   9   1 -11   13.40    2.40
   8   1 -11  680.73   23.30
   8   1 -11  685.53   24.10
   7   1 -11  197.48    8.20
   7   1 -11  200.78    7.40
   6   1 -11 1101.99   37.30
   6   1 -11 1101.09   37.70
   5   1 -11 1594.64   53.69
   5   1 -11 1580.24   53.49
   4   1 -11  537.45   19.10
   4   1 -11  557.74   19.00
   3   1 -11 2326.87   78.49
   3   1 -11 2344.97   78.39
   2   1 -11   77.59    3.90
   1   1 -11  163.28    6.50
   1   1 -11  158.68    6.10
  -1  -1  11  155.18    6.40
   0   1 -11  134.29    6.20
   0   1 -11  143.39    5.40
   0  -1  11  141.59    5.70
  -1   1 -11  186.68    7.60
  -1   1 -11  188.18    6.90
   1  -1  11  184.88    7.10
  -2   1 -11 1237.08   40.10
  -2   1 -11 1177.98   40.80
   2  -1  11 1156.68   40.20
  -3   1 -11  833.12   28.50
  -3   1 -11  849.02   29.40
   3  -1  11  839.82   28.60
  -4   1 -11  149.49    6.30
  -4   1 -11  174.88    7.70
   4  -1  11  160.88    6.40
  -5   1 -11  707.43   27.50
  -5   1 -11  840.62   28.10
   5  -1  11  818.32   27.00
  -6   1 -11   22.40    3.60
   6  -1  11   20.10    3.00
  -7   1 -11  268.17   12.10
  13   0 -11  259.77   11.50
  12   0 -11  147.99    5.80
  12   0 -11  149.59    7.90
  11   0 -11 1604.14   54.59
  11   0 -11 1649.33   54.69
  10   0 -11   14.50    2.20
   9   0 -11  843.72   28.70
   9   0 -11  843.02   29.60
   8   0 -11  134.49    6.30
   8   0 -11  132.69    5.40
   7   0 -11 1155.38   39.30
   7   0 -11 1168.08   39.80
   6   0 -11  380.46   13.40
   6   0 -11  378.86   13.80
   5   0 -11  186.08    7.00
   5   0 -11  170.28    7.10
   4   0 -11  558.24   19.80
   4   0 -11  578.44   19.80
   3   0 -11  242.38    9.40
   3   0 -11  260.77    9.40
  -3   0  11  251.57    9.60
   2   0 -11   13.30    2.20
   2   0 -11   21.30    2.70
  -2   0  11   15.60    1.90
   1   0 -11 1251.47   43.30
   1   0 -11 1272.07   43.00
  -1   0  11 1298.17   43.20
   0   0 -11  268.87   10.30
   0   0  11  279.47   10.10
  -1   0 -11  796.02   27.70
   1   0  11  800.72   27.30
  -2   0 -11  546.85   19.40
  -2   0 -11  548.85   19.10
   2   0  11  538.05   18.90
  -3   0 -11  213.68    8.50
  -3   0 -11  197.28    7.70
   3   0  11  189.28    7.70
  -4   0 -11  451.85   16.60
  -4   0 -11  438.16   15.70
   4   0  11  446.16   15.70
  -5   0 -11    6.30    2.90
  -5   0 -11    4.30    1.90
   5   0  11    3.60    1.70
  -6   0 -11  241.38   10.70
   6   0  11  230.88    9.10
  13  -1 -11  399.66   15.90
   9  -1 -11  329.87   12.60
   8  -1 -11  287.87   11.10
   7  -1 -11   84.09    4.70
   7  -1 -11   83.19    4.00
   6  -1 -11  414.76   14.90
   6  -1 -11  410.46   14.60
   5  -1 -11  194.08    7.80
   5  -1 -11  202.78    7.50
  -5   1  11  185.88    8.10
   4  -1 -11 1544.35   53.59
   4  -1 -11 1649.73   53.79
  -4   1  11 1571.24   53.89
   3  -1 -11  109.19    5.00
   3  -1 -11  115.59    4.90
  -3   1  11  104.29    5.20
   2  -1 -11 2853.51   94.19
   2  -1 -11 2756.52   94.39
  -2   1  11 2825.52   94.39
   1  -1 -11   92.09    4.20
   1  -1 -11   88.09    4.60
  -1   1  11   95.89    4.70
   0  -1 -11  882.21   29.30
   0  -1 -11  853.51   29.70
   0   1  11  843.92   29.50
  -1  -1 -11   14.50    1.60
  -1  -1 -11   11.00    1.90
   1   1  11   14.90    1.90
  -2  -1 -11   23.80    2.90
  -2  -1 -11   31.10    3.60
   2   1  11   25.60    3.10
  -3  -1 -11  442.46   16.20
  -3  -1 -11  451.85   15.70
   3   1  11  428.96   15.70
  -4  -1 -11  325.27   12.20
  -4  -1 -11  337.67   12.90
   4   1  11  329.57   12.20
  -5  -1 -11  129.89    7.10
  -5  -1 -11  119.09    6.20
   5   1  11  125.09    5.90
  -6  -1 -11  482.25   17.80
   6   1  11  441.66   16.90
  12  -2 -11   19.50    2.80
   9  -2 -11    7.10    2.20
   8  -2 -11  954.40   33.10
   7  -2 -11  636.34   22.40
   6  -2 -11  371.36   13.50
  -6   2  11  362.66   13.70
   5  -2 -11 1350.46   44.80
   5  -2 -11 1311.97   44.60
  -5   2  11 1288.67   45.00
   4  -2 -11  358.26   12.70
   4  -2 -11  346.87   12.70
  -4   2  11  344.17   13.00
   3  -2 -11 1461.85   48.10
   3  -2 -11 1377.06   48.20
  -3   2  11 1417.76   48.30
   2  -2 -11  172.88    7.20
   2  -2 -11  180.68    6.90
  -2   2  11  178.58    7.40
   1  -2 -11 1389.46   49.50
   1  -2 -11 1489.65   49.30
  -1   2  11 1499.05   49.50
   0  -2 -11  614.74   20.30
   0  -2 -11  568.14   20.60
   0   2  11  574.84   20.50
  -1  -2 -11  179.68    7.20
  -1  -2 -11  191.08    7.70
   1   2  11  177.28    7.50
  -2  -2 -11  526.35   18.90
  -2  -2 -11  542.95   18.60
   2   2  11  515.65   18.70
  -3  -2 -11  489.95   17.30
  -3  -2 -11  503.25   17.80
   3   2  11  465.95   17.30
  -4  -2 -11  180.98    7.90
  -4  -2 -11  190.98    8.50
   4   2  11  177.58    7.70
  -5  -2 -11  587.34   21.10
   5   2  11  561.54   20.40
  13  -3 -11    6.60    1.90
   9  -3 -11 1886.51   64.09
   8  -3 -11  656.33   23.20
   7  -3 -11 2144.69   71.59
  -7   3  11 2088.49   71.79
   6  -3 -11  116.69    5.60
   5  -3 -11  627.94   22.50
  -5   3  11  661.13   22.90
   4  -3 -11  688.93   23.60
   4  -3 -11  647.64   23.70
  -4   3  11  696.73   23.90
   3  -3 -11  337.87   12.10
   3  -3 -11  328.07   12.20
  -3   3  11  328.77   12.50
   2  -3 -11   11.00    1.70
   2  -3 -11   13.20    2.00
  -2   3  11   10.20    2.00
   1  -3 -11 1376.56   48.50
   1  -3 -11 1498.45   48.30
  -1   3  11 1406.76   48.50
   0  -3 -11   70.09    4.10
   0  -3 -11   73.09    4.50
   0   3  11   75.89    4.60
  -1  -3 -11  323.57   12.30
  -1  -3 -11  341.87   12.10
   1   3  11  319.07   12.40
  -2  -3 -11  381.46   14.10
  -2  -3 -11  385.16   13.80
   2   3  11  366.16   13.90
  -3  -3 -11  300.57   11.30
  -3  -3 -11  277.57   10.90
   3   3  11  263.57   10.90
  -4  -3 -11  368.26   14.20
  -4  -3 -11  365.86   13.90
   4   3  11  361.66   13.70
  -5  -3 -11   75.79    6.20
  13  -4 -11  121.79    5.90
   9  -4 -11  192.28    8.40
   8  -4 -11  414.66   15.50
  -8   4  11  428.76   16.00
   7  -4 -11  568.24   20.10
  -7   4  11  555.44   20.40
   6  -4 -11   60.39    4.20
  -6   4  11   62.59    4.80
   5  -4 -11  279.47   10.80
  -5   4  11  289.37   11.20
   4  -4 -11  167.18    7.00
  -4   4  11  169.48    8.90
   3  -4 -11   59.89    3.80
   3  -4 -11   61.89    3.90
   2  -4 -11 2091.19   69.59
   2  -4 -11 2196.58   69.49
  -2   4  11 1896.01   70.19
   1  -4 -11    3.50    2.00
   1  -4 -11   -0.80    1.60
  -1   4  11    3.10    2.00
   0  -4 -11  988.30   33.00
   0  -4 -11  936.41   33.20
   0   4  11  956.20   33.20
  -1  -4 -11  216.18    9.20
  -1  -4 -11  235.58    9.10
   1   4  11  222.68    9.20
  -2  -4 -11  231.98    9.40
  -2  -4 -11  235.78    9.50
   2   4  11  215.18    9.40
  -3  -4 -11  171.68    8.00
   3   4  11  167.88    7.90
  -4  -4 -11   39.30    5.10
   4   4  11   35.00    4.90
  13  -5 -11  549.15   19.70
  -9   5  11   25.30    3.30
   8  -5 -11 1298.67   45.80
  -8   5  11 1376.26   46.20
   7  -5 -11  382.16   14.40
  -7   5  11  394.66   14.90
   6  -5 -11  479.45   17.40
  -6   5  11  485.65   17.80
   5  -5 -11  450.45   16.50
  -5   5  11  463.45   16.90
   4  -5 -11  287.67   11.00
  -4   5  11  294.97   11.50
   3  -5 -11 1739.13   58.59
   3  -5 -11 1764.32   58.49
  -3   5  11 1681.63   58.79
   2  -5 -11    2.30    1.90
   2  -5 -11    0.20    1.70
  -2   5  11    2.10    2.00
   1  -5 -11  581.24   20.10
   1  -5 -11  568.44   20.40
  -1   5  11  559.54   20.40
   0  -5 -11  534.25   19.60
   0  -5 -11  547.65   19.40
   0   5  11  556.14   19.70
  -1  -5 -11   16.60    2.60
   1   5  11   14.70    2.60
  -2  -5 -11  305.17   12.10
   2   5  11  307.37   12.20
  -3  -5 -11  180.08    8.30
   3   5  11  174.58    8.40
 -10   6  11   26.30    3.40
  -9   6  11 1898.51   64.99
  -8   6  11   96.19    6.40
   7  -6 -11 1158.78   41.10
  -7   6  11 1232.28   41.50
   6  -6 -11 1340.67   47.00
  -6   6  11 1414.36   47.50
   5  -6 -11  266.67   10.80
  -5   6  11  296.47   11.50
   4  -6 -11  158.08    7.20
  -4   6  11  178.88    8.00
   3  -6 -11   -1.00    1.70
  -3   6  11    2.30    2.30
   2  -6 -11  419.56   15.10
   2  -6 -11  384.36   14.60
  -2   6  11  377.86   14.80
   1  -6 -11  454.05   16.80
  -1   6  11  464.55   17.00
   0  -6 -11    4.70    2.50
   0   6  11    4.70    2.70
  -1  -6 -11  622.34   22.30
   1   6  11  621.54   22.50
  -2  -6 -11  361.86   14.10
   2   6  11  370.96   14.40
 -11   7  11  137.59    8.40
 -10   7  11 1036.50   36.60
  -9   7  11    7.70    3.10
  -8   7  11  661.53   24.10
  -7   7  11 1062.29   37.20
  -6   7  11  198.48    9.30
  -5   7  11  145.09    7.60
  -4   7  11  209.98    9.40
  -3   7  11   29.60    4.80
   2  -7 -11  583.54   20.90
  -2   7  11  581.14   21.20
   1  -7 -11    3.00    2.50
  -1   7  11    2.90    2.70
   0  -7 -11  571.94   20.90
   0   7  11  580.74   21.10
  -1  -7 -11   46.70    5.40
   1   7  11   49.80    5.90
 -11   8  11  392.46   16.00
 -10   8  11  106.59    7.70
  -9   8  11  274.47   12.00
  -8   8  11  376.76   15.10
  -7   8  11    3.50    3.00
  -6   8  11  649.74   23.80
  -5   8  11  586.44   21.60
  -4   8  11  198.58    9.40
  -3   8  11  764.32   27.30
   2  -8 -11   14.60    2.80
  -2   8  11   11.10    3.10
   1  -8 -11  344.67   13.50
  -1   8  11  347.07   14.00
 -12   9  11  270.57   12.80
 -11   9  11   51.09    7.10
 -10   9  11    8.70    3.30
  -9   9  11  135.09    8.40
  -8   9  11   68.09    6.90
  -7   9  11 1252.87   43.80
  -6   9  11  499.55   19.20
  -5   9  11  389.46   15.50
  -4   9  11  782.62   28.10
  -3   9  11   45.90    6.10
   2  -9 -11  132.69    7.30
  -2   9  11  127.39    8.10
 -11  10  11  133.59    9.30
 -10  10  11  401.56   16.60
  -9  10  11   43.40    6.90
  -8  10  11  819.92   29.80
  -7  10  11   19.30    3.90
  -6  10  11  207.18   10.60
  -5  10  11  220.48   10.80
  -4  10  11   87.29    7.40
   0  13 -12  733.33   25.60
  -1  13 -12  118.69    5.90
  -1  13 -12  113.79    7.00
  -2  13 -12  989.30   34.80
  -3  13 -12  240.38   11.10
  -4  13 -12  719.83   26.40
   2  12 -12  351.66   13.30
   1  12 -12 1187.28   39.90
  -1 -12  12 1142.19   40.00
   0  12 -12   23.90    3.10
   0  12 -12   17.40    2.40
   0 -12  12   19.30    2.50
  -1  12 -12  582.54   20.60
  -1  12 -12  596.14   21.50
  -2  12 -12   31.40    3.30
  -2  12 -12   31.80    5.20
  -3  12 -12   47.50    5.90
  -4  12 -12  482.85   18.50
  -5  12 -12  269.77   12.10
  -6  12 -12  262.47   12.40
   4  11 -12  864.81   30.20
   3  11 -12  205.58    8.80
   2  11 -12 1187.38   40.80
   2  11 -12 1211.08   40.80
  -2 -11  12 1178.78   40.50
   1  11 -12   90.19    4.90
   1  11 -12   81.59    5.40
  -1 -11  12   82.29    4.70
   0  11 -12  258.77   10.50
   0  11 -12  256.57    9.80
   0 -11  12  253.87   10.00
  -1  11 -12  421.36   15.70
  -1  11 -12  410.16   14.70
   1 -11  12  416.26   15.30
  -2  11 -12   19.50    2.70
  -2  11 -12   20.50    3.30
  -3  11 -12  591.74   21.80
  -4  11 -12  512.55   19.40
  -5  11 -12  572.84   21.60
  -6  11 -12  673.73   25.10
   6  10 -12  749.13   26.50
   5  10 -12  287.87   11.40
   4  10 -12  125.69    6.30
   3  10 -12  587.44   20.90
   3  10 -12  611.14   21.10
  -3 -10  12  588.64   20.70
   2  10 -12  308.27   11.50
   2  10 -12  302.77   11.60
  -2 -10  12  306.77   11.30
   1  10 -12  447.06   16.60
   1  10 -12  467.15   16.10
  -1 -10  12  445.96   16.10
   0  10 -12 1030.00   35.60
   0  10 -12 1066.99   36.20
   0 -10  12 1042.70   35.80
  -1  10 -12   16.40    2.70
  -1  10 -12   21.90    3.00
   1 -10  12   20.60    3.50
  -2  10 -12 1451.75   48.80
  -2  10 -12 1456.85   49.99
  -3  10 -12  104.49    6.60
  -4  10 -12 1039.70   36.50
  -5  10 -12  840.52   30.20
  -6  10 -12    4.00    3.50
  -7  10 -12  294.37   13.30
   7   9 -12  286.17   11.60
   6   9 -12  134.09    6.90
   5   9 -12   81.19    5.10
   4   9 -12  543.85   19.50
   4   9 -12  549.05   19.20
  -4  -9  12  556.74   19.20
   3   9 -12  676.93   23.70
   3   9 -12  679.53   23.70
  -3  -9  12  684.03   23.50
   2   9 -12  759.72   26.40
   2   9 -12  761.42   26.20
  -2  -9  12  759.42   26.20
   1   9 -12 1012.70   34.30
   1   9 -12 1003.80   35.30
  -1  -9  12 1004.20   34.40
   0   9 -12    7.50    2.40
   0   9 -12    9.00    1.50
   0  -9  12    7.80    1.90
  -1   9 -12 1412.86   46.20
  -1   9 -12 1263.87   45.20
   1  -9  12 1353.26   45.70
  -2   9 -12   50.69    2.60
  -2   9 -12   52.39    2.60
  -2   9 -12   52.09    4.80
   2  -9  12   48.30    4.20
  -3   9 -12  334.57   13.30
  -4   9 -12  349.37   14.00
  -5   9 -12   -1.00    3.00
  -6   9 -12  264.37   12.00
  -7   9 -12  732.13   27.10
   8   8 -12  175.88    8.40
   7   8 -12  470.25   17.30
   6   8 -12    3.90    2.00
   5   8 -12  933.91   32.20
   5   8 -12  930.41   31.70
   4   8 -12  354.46   13.20
   4   8 -12  361.06   13.00
  -4  -8  12  363.06   12.90
   3   8 -12  807.72   28.00
  -3  -8  12  815.02   27.80
   2   8 -12 1594.24   54.79
   2   8 -12 1655.93   55.09
  -2  -8  12 1624.24   54.89
   1   8 -12    2.20    1.40
   1   8 -12    3.40    2.00
  -1  -8  12    2.10    1.60
   0   8 -12  617.54   21.00
   0   8 -12  616.04   21.10
   0   8 -12  614.24   21.70
   0  -8  12  603.64   21.40
  -1   8 -12  121.89    4.90
  -1   8 -12  130.99    5.00
  -1   8 -12  132.29    6.40
   1  -8  12  120.99    5.80
  -2   8 -12  235.68    9.70
  -2   8 -12  234.08    8.00
   2  -8  12  216.38    9.00
  -3   8 -12   60.69    5.10
  -4   8 -12   10.60    2.90
  -5   8 -12  190.88    9.30
  -6   8 -12  882.31   31.60
  -7   8 -12  254.07   12.00
   9   7 -12   82.29    5.90
   8   7 -12 1981.70   67.29
   7   7 -12   84.29    5.50
   6   7 -12 1154.58   39.10
   6   7 -12 1120.19   38.30
   5   7 -12   34.30    2.90
   5   7 -12   34.20    3.70
   4   7 -12  321.77   12.00
   4   7 -12  319.97   11.70
  -4  -7  12  325.97   11.70
   3   7 -12 1128.29   38.30
   3   7 -12 1084.99   38.30
  -3  -7  12 1161.88   38.30
   2   7 -12    1.30    1.70
   2   7 -12    2.10    1.40
  -2  -7  12    1.90    1.60
   1   7 -12  723.53   24.90
   1   7 -12  720.43   24.50
   1   7 -12  690.93   24.30
  -1  -7  12  711.73   24.60
   0   7 -12 1048.20   34.90
   0   7 -12 1038.10   35.60
   0   7 -12 1002.00   34.80
   0  -7  12 1030.80   35.20
  -1   7 -12  171.08    7.70
  -1   7 -12  171.98    6.30
  -1   7 -12  177.28    6.40
   1  -7  12  169.18    7.20
  -2   7 -12  711.73   24.70
   2  -7  12  677.03   24.20
  -3   7 -12   95.19    5.90
  -4   7 -12  685.43   24.70
  -5   7 -12  567.84   21.10
  -6   7 -12  128.69    8.00
  -7   7 -12  152.18    9.10
   9   6 -12 1807.12   61.59
   8   6 -12   20.30    2.90
   7   6 -12 1011.10   35.00
   6   6 -12  255.47    9.40
   6   6 -12  263.27   10.20
   5   6 -12  161.18    6.40
   5   6 -12  163.08    7.00
   4   6 -12  909.71   31.20
   4   6 -12  907.21   31.00
   3   6 -12    9.20    1.60
   3   6 -12    9.30    1.80
  -3  -6  12    8.80    1.70
   2   6 -12  296.17   10.80
   2   6 -12  292.87   11.00
   2   6 -12  291.57   10.70
  -2  -6  12  294.77   10.90
   1   6 -12 1961.70   66.29
   1   6 -12 1927.81   66.19
   1   6 -12 2003.60   66.69
  -1  -6  12 1998.60   66.49
   0   6 -12   31.50    4.30
   0   6 -12   37.00    2.40
   0   6 -12   36.60    2.40
   0  -6  12   26.20    3.10
  -1   6 -12 2442.76   81.89
  -1   6 -12 2463.85   82.59
  -1   6 -12 2420.06   81.69
   1  -6  12 2461.35   82.39
  -2   6 -12  337.57   12.70
   2  -6  12  315.87   12.10
  -3   6 -12  454.75   16.20
   3  -6  12  402.66   16.10
  -4   6 -12  200.58    9.10
  -5   6 -12   25.00    3.30
  -6   6 -12   75.79    6.50
  -7   6 -12  151.78    9.00
  10   5 -12  525.75   19.50
   9   5 -12   39.70    5.00
   8   5 -12  440.96   16.30
   7   5 -12  802.32   27.90
   7   5 -12  793.62   27.00
   6   5 -12    1.50    1.30
   6   5 -12    1.30    1.90
   5   5 -12  415.66   16.20
   5   5 -12  457.15   15.40
   4   5 -12  350.46   12.80
   4   5 -12  363.36   13.10
   4   5 -12  359.16   13.00
   3   5 -12  711.23   24.90
   3   5 -12  719.43   25.00
   3   5 -12  709.63   25.00
  -3  -5  12  750.72   24.90
   2   5 -12  811.02   27.30
   2   5 -12  788.52   27.50
   2   5 -12  781.52   27.30
  -2  -5  12  808.02   27.40
   1   5 -12  625.54   21.80
   1   5 -12  628.34   21.80
   1   5 -12  635.14   22.20
  -1  -5  12  647.94   22.10
   0   5 -12 2528.25   97.59
   0   5 -12 3075.89   97.49
   0   5 -12 3055.59   97.09
   0  -5  12 2898.61   96.99
  -1   5 -12  549.05   18.30
  -1   5 -12  542.05   19.30
  -1   5 -12  524.85   18.30
   1  -5  12  535.15   19.00
  -2   5 -12  150.48    7.00
   2  -5  12  142.89    6.50
  -3   5 -12  152.18    7.40
   3  -5  12  151.18    7.40
  -4   5 -12  181.58    8.50
  -5   5 -12  242.48   10.70
  -6   5 -12  372.46   15.00
  -7   5 -12   96.59    7.60
  11   4 -12  103.39    6.90
  10   4 -12   46.00    5.20
   9   4 -12  429.76   16.10
   8   4 -12 1400.56   48.40
   8   4 -12 1485.85   49.40
   7   4 -12   18.90    2.50
   7   4 -12   17.80    2.10
   7   4 -12   18.40    2.70
   6   4 -12 1417.06   47.30
   6   4 -12 1337.77   46.60
   6   4 -12 1394.36   47.20
   5   4 -12  790.82   26.70
   5   4 -12  765.82   26.60
   5   4 -12  744.83   26.20
   4   4 -12 1097.59   36.90
   4   4 -12 1076.89   36.70
   4   4 -12 1063.99   36.80
   3   4 -12  760.52   25.60
   3   4 -12  724.53   25.60
   2   4 -12  695.93   24.60
   2   4 -12  696.13   24.80
  -2  -4  12  756.82   24.80
   1   4 -12   40.00    2.60
   1   4 -12   39.70    3.40
  -1  -4  12   37.30    3.20
   0   4 -12   70.29    3.10
   0   4 -12   64.19    4.30
   0  -4  12   62.39    4.00
  -1   4 -12    2.10    0.90
  -1   4 -12    4.30    2.10
   1  -4  12    6.90    2.00
  -2   4 -12 1345.77   42.20
  -2   4 -12 1207.28   43.30
   2  -4  12 1230.48   43.10
  -3   4 -12  321.57   12.50
  -4   4 -12  911.41   32.10
  -5   4 -12  370.96   14.70
  -6   4 -12   58.39    6.30
  -7   4 -12  141.99    8.90
  11   3 -12  649.04   23.60
  10   3 -12  428.96   16.30
   9   3 -12 1222.88   41.50
   9   3 -12 1177.88   40.30
   8   3 -12    4.40    2.20
   8   3 -12    4.10    2.80
   8   3 -12    3.30    1.20
   7   3 -12 1494.75   49.10
   7   3 -12 1402.86   49.10
   7   3 -12 1410.26   48.30
   6   3 -12 1038.00   36.30
   6   3 -12 1106.59   36.90
   5   3 -12   78.59    4.40
   5   3 -12   80.29    3.90
   4   3 -12  341.17   12.50
   4   3 -12  355.56   12.70
   3   3 -12   67.39    3.70
   3   3 -12   66.49    3.60
   2   3 -12   54.89    3.50
   2   3 -12   52.19    3.40
   1   3 -12  707.13   24.70
   1   3 -12  713.63   24.30
  -1  -3  12  713.83   24.70
   0   3 -12   39.40    2.50
   0   3 -12   41.90    3.50
   0  -3  12   41.60    3.40
  -1   3 -12 2042.90   70.49
  -1   3 -12 2129.39   69.69
   1  -3  12 2077.59   70.29
  -2   3 -12  224.18    7.50
  -2   3 -12  210.38    8.80
   2  -3  12  194.38    8.50
  -3   3 -12 1593.74   53.79
  -3   3 -12 1621.24   54.89
  -4   3 -12  335.07   13.20
  -5   3 -12   29.00    5.00
  -6   3 -12  253.57   11.50
  -7   3 -12  119.59    8.60
  12   2 -12  695.13   25.20
  11   2 -12  257.97   11.10
  10   2 -12  672.63   23.70
  10   2 -12  642.74   22.30
   9   2 -12  285.67   10.20
   9   2 -12  293.37   11.60
   8   2 -12  921.31   31.20
   8   2 -12  920.11   32.10
   7   2 -12   89.39    5.00
   7   2 -12   78.99    3.90
   6   2 -12   32.80    3.60
   6   2 -12   46.10    2.80
   5   2 -12 1355.56   45.10
   5   2 -12 1296.77   44.80
   4   2 -12 1851.41   62.69
   4   2 -12 1871.21   62.79
   3   2 -12 1135.29   38.40
   3   2 -12 1126.89   38.50
   2   2 -12 1232.28   41.40
   2   2 -12 1214.78   41.60
   1   2 -12   47.30    2.80
   0   2 -12  922.91   32.00
   0   2 -12  931.31   31.30
  -1   2 -12   31.80    3.50
  -1   2 -12   34.10    2.30
   1  -2  12   35.80    2.80
  -2   2 -12  613.84   19.70
  -2   2 -12  590.24   20.70
   2  -2  12  529.55   20.40
   2  -2  12  574.44   19.80
  -3   2 -12  177.48    7.90
  -3   2 -12  163.48    6.30
   3  -2  12  166.48    6.40
  -4   2 -12   53.19    3.10
  -4   2 -12   61.69    5.20
   4  -2  12   58.29    3.20
  -5   2 -12  570.44   21.20
   5  -2  12  578.04   19.70
  -6   2 -12  685.53   25.10
  -7   2 -12  162.88    9.50
  12   1 -12  282.87   12.10
  11   1 -12  382.26   13.50
  11   1 -12  400.26   15.30
  10   1 -12   61.89    3.20
   9   1 -12  243.28    8.90
   8   1 -12  234.88    8.50
   8   1 -12  221.98    9.40
   7   1 -12  137.59    6.60
   7   1 -12  154.08    5.90
   6   1 -12 2198.38   73.19
   6   1 -12 2156.88   73.49
   5   1 -12 1171.88   39.40
   5   1 -12 1137.29   39.20
   4   1 -12 2639.44   87.89
   4   1 -12 2599.14   87.99
   3   1 -12 1188.08   39.50
   3   1 -12 1138.29   39.60
   2   1 -12   62.39    3.60
   2   1 -12   50.69    3.20
   1   1 -12  191.98    7.60
   1   1 -12  173.38    7.20
  -1  -1  12  189.28    7.30
   0   1 -12  119.69    5.90
   0   1 -12  130.29    5.10
   0  -1  12  130.89    5.50
  -1   1 -12   23.30    3.30
  -1   1 -12   19.80    2.20
   1  -1  12   24.20    2.70
  -2   1 -12  253.27   10.10
  -2   1 -12  262.17    9.20
   2  -1  12  248.38    9.40
  -3   1 -12   29.60    4.10
  -3   1 -12   27.90    2.70
   3  -1  12   30.00    2.90
  -4   1 -12 1005.30   36.90
  -4   1 -12 1142.89   37.70
   4  -1  12 1100.79   36.70
  -5   1 -12  539.45   19.80
   5  -1  12  522.35   18.50
  -6   1 -12  356.76   14.60
  12   0 -12  545.25   20.30
  11   0 -12  815.32   27.80
  10   0 -12  201.78    7.60
   9   0 -12  677.33   23.30
   8   0 -12  182.18    6.90
   8   0 -12  170.88    7.70
   7   0 -12 1010.20   34.80
   7   0 -12 1032.80   35.20
   6   0 -12  148.29    6.60
   6   0 -12  151.18    6.20
   5   0 -12 1084.09   37.10
   5   0 -12 1096.19   37.30
   4   0 -12  585.24   20.20
   4   0 -12  564.44   20.10
   3   0 -12  102.29    4.90
   3   0 -12  106.39    4.80
  -3   0  12  103.29    5.20
   2   0 -12  521.05   19.00
   2   0 -12  552.64   18.80
  -2   0  12  541.65   19.00
   1   0 -12 1079.59   37.60
   1   0 -12 1106.59   37.20
  -1   0  12 1113.49   37.50
   0   0 -12  104.59    4.50
   0   0 -12  109.19    5.20
   0   0  12  103.79    5.00
  -1   0 -12 1330.97   42.50
  -1   0 -12 1240.88   43.00
   1   0  12 1200.68   42.60
  -2   0 -12    7.40    1.60
  -2   0 -12   10.50    2.20
   2   0  12   10.40    1.80
  -3   0 -12  460.15   16.10
  -3   0 -12  467.65   16.90
   3   0  12  446.46   16.20
  -4   0 -12   95.69    5.00
  -4   0 -12  105.59    6.40
   4   0  12   99.19    5.00
  -5   0 -12  202.98    9.40
   5   0  12  184.88    7.80
  -6   0 -12  406.26   16.20
  13  -1 -12  677.43   24.90
  12  -1 -12  964.60   32.80
  11  -1 -12  445.56   15.60
  10  -1 -12 1877.61   63.09
   9  -1 -12    4.20    2.10
   9  -1 -12    9.40    1.60
   8  -1 -12  340.47   13.30
   8  -1 -12  363.36   12.70
   7  -1 -12   89.59    4.40
   7  -1 -12   85.49    4.90
   6  -1 -12   43.00    3.70
   6  -1 -12   50.69    3.30
   5  -1 -12  695.53   24.40
   5  -1 -12  713.23   24.50
  -5   1  12  703.73   24.80
   4  -1 -12   66.79    3.90
   4  -1 -12   68.29    4.00
  -4   1  12   70.39    4.50
   3  -1 -12 1654.43   55.79
   3  -1 -12 1656.53   55.89
  -3   1  12 1643.04   55.99
   2  -1 -12 1284.87   42.20
   2  -1 -12 1186.98   42.40
  -2   1  12 1261.07   42.40
   1  -1 -12   18.90    2.60
   1  -1 -12   25.80    3.10
  -1   1  12   16.10    2.20
   0  -1 -12 3328.57  106.29
   0  -1 -12 3108.89  106.69
   0   1  12 3094.39  106.49
  -1  -1 -12   43.70    3.80
  -1  -1 -12   37.50    3.10
   1   1  12   41.20    3.70
  -2  -1 -12  192.78    7.50
  -2  -1 -12  188.98    8.20
   2   1  12  182.58    7.60
  -3  -1 -12   41.90    3.80
  -3  -1 -12   44.00    4.60
   3   1  12   42.70    3.80
  -4  -1 -12    7.50    2.20
  -4  -1 -12   10.80    2.80
   4   1  12    7.50    2.10
  -5  -1 -12  335.97   12.90
   5   1  12  276.57   13.70
   9  -2 -12  677.53   24.50
   8  -2 -12  290.37   11.30
   7  -2 -12   21.20    3.50
   6  -2 -12 1392.06   46.20
   6  -2 -12 1329.37   46.00
  -6   2  12 1337.57   46.40
   5  -2 -12   21.60    3.40
   5  -2 -12   16.20    2.10
  -5   2  12   20.90    3.70
   4  -2 -12 1076.09   37.00
   4  -2 -12 1077.09   37.00
  -4   2  12 1091.19   37.20
   3  -2 -12 1075.69   38.20
   3  -2 -12 1173.18   38.10
  -3   2  12 1104.29   38.30
   2  -2 -12  226.78    8.80
   2  -2 -12  214.68    8.40
  -2   2  12  220.38    8.90
   1  -2 -12  802.92   27.00
   1  -2 -12  768.02   27.40
  -1   2  12  790.22   27.30
   0  -2 -12  113.89    5.70
   0  -2 -12  119.09    5.30
   0   2  12  119.79    5.80
  -1  -2 -12  181.08    7.70
  -1  -2 -12  180.48    7.30
   1   2  12  178.28    7.60
  -2  -2 -12  394.56   14.80
  -2  -2 -12  407.96   14.40
   2   2  12  387.56   14.50
  -3  -2 -12    8.90    2.20
  -3  -2 -12    9.60    2.60
   3   2  12   10.60    2.30
  -4  -2 -12  336.97   13.30
   4   2  12  333.17   12.70
   8  -3 -12   27.10    3.90
   7  -3 -12 2405.76   82.09
  -7   3  12 2456.65   82.39
   6  -3 -12  168.58    7.40
  -6   3  12  173.68    7.90
   5  -3 -12  113.79    5.60
   5  -3 -12  125.19    5.60
  -5   3  12  117.49    6.20
   4  -3 -12  476.95   16.50
   4  -3 -12  479.95   16.60
  -4   3  12  418.86   18.70
   3  -3 -12  357.16   12.90
   3  -3 -12  376.56   13.20
  -3   3  12  333.07   14.00
   2  -3 -12  367.56   13.20
   2  -3 -12  363.46   13.50
  -2   3  12  359.16   14.10
   1  -3 -12  125.29    5.50
   1  -3 -12  126.59    5.90
  -1   3  12  103.59    8.70
   0  -3 -12  228.88    9.30
   0  -3 -12  233.88    8.90
   0   3  12  225.68    9.40
  -1  -3 -12  690.03   23.00
  -1  -3 -12  636.34   23.20
   1   3  12  645.44   23.20
  -2  -3 -12   19.60    2.50
  -2  -3 -12   29.80    4.20
   2   3  12   19.80    2.70
  -3  -3 -12  387.46   14.80
  -3  -3 -12  393.16   14.50
   3   3  12  383.36   14.50
  -4  -3 -12   49.10    5.60
   4   3  12   47.90    4.90
  13  -4 -12  242.58    9.70
   8  -4 -12 1295.47   45.70
  -8   4  12 1368.56   46.10
   7  -4 -12  167.78    7.60
  -7   4  12  172.48    8.20
   6  -4 -12  258.07   10.30
  -6   4  12  266.37   10.80
   5  -4 -12  775.62   27.10
  -5   4  12  784.32   27.50
   4  -4 -12    6.90    1.80
   4  -4 -12    3.70    1.80
  -4   4  12    5.70    2.30
   3  -4 -12   87.79    4.70
   3  -4 -12   87.29    5.00
  -3   4  12   93.89    5.50
   2  -4 -12  678.53   24.40
   2  -4 -12  703.63   24.10
  -2   4  12  701.93   24.50
   1  -4 -12  388.86   13.90
   1  -4 -12  382.06   14.30
  -1   4  12  377.66   14.40
   0  -4 -12 1582.54   55.69
   0  -4 -12 1731.53   55.39
   0   4  12 1592.64   55.59
  -1  -4 -12   33.10    4.40
  -1  -4 -12   20.20    2.60
   1   4  12   22.70    3.00
  -2  -4 -12  344.67   13.40
   2   4  12  348.37   13.40
  -3  -4 -12   46.60    5.20
   3   4  12   48.50    5.20
  -9   5  12  700.93   25.40
  -8   5  12  265.77   11.40
   7  -5 -12  670.63   24.30
  -7   5  12  688.93   24.50
   6  -5 -12 1098.89   38.80
  -6   5  12 1161.38   39.30
   5  -5 -12  236.88    9.90
  -5   5  12  269.17   10.70
   4  -5 -12  536.45   19.90
   4  -5 -12  585.04   20.10
  -4   5  12  572.64   20.50
   3  -5 -12  392.76   14.70
   3  -5 -12  407.16   15.00
  -3   5  12  411.86   15.20
   2  -5 -12  159.18    7.10
   2  -5 -12  167.58    7.40
  -2   5  12  158.98    7.60
   1  -5 -12  432.16   16.40
   1  -5 -12  453.55   16.20
  -1   5  12  442.56   16.50
   0   5  12    3.00    2.40
  -1  -5 -12  278.67   11.30
   1   5  12  281.77   11.60
  -2  -5 -12  154.98    7.80
   2   5  12  164.98    8.10
 -10   6  12  259.77   11.70
  -9   6  12  331.97   13.70
  -8   6  12   97.79    6.70
  -7   6  12  912.31   32.20
  -6   6  12  345.17   13.70
  -5   6  12 1602.74   54.89
  -4   6  12  171.78    8.30
   3  -6 -12  258.87   10.40
  -3   6  12  255.27   10.80
   2  -6 -12  174.48    8.00
  -2   6  12  180.08    8.40
   1  -6 -12   15.10    3.00
  -1   6  12   19.80    3.20
   0  -6 -12  174.58    8.40
   0   6  12  183.08    8.70
  -1  -6 -12  202.48    9.40
   1   6  12  222.28   10.00
 -11   7  12  475.75   18.80
 -10   7  12  463.25   18.10
  -9   7  12  196.78    9.80
  -8   7  12  854.01   30.50
  -7   7  12   37.30    5.80
  -6   7  12  916.91   32.50
  -5   7  12  139.29    7.80
  -4   7  12   13.80    3.20
   3  -7 -12   64.59    5.10
  -3   7  12   65.69    5.80
   2  -7 -12  191.38    8.80
  -2   7  12  200.88    9.30
   1  -7 -12  140.79    7.60
  -1   7  12  142.59    8.00
   0  -7 -12  366.76   14.40
 -12   8  12  447.96   18.40
 -11   8  12  872.51   31.70
 -10   8  12   47.60    6.70
  -9   8  12  239.28   11.20
  -8   8  12    5.40    3.10
  -7   8  12  220.48   10.70
  -6   8  12  458.15   17.70
  -5   8  12  131.79    8.00
  -4   8  12  528.55   19.90
   3  -8 -12  190.68    8.70
  -3   8  12  184.08    9.30
   2  -8 -12  185.78    8.90
  -2   8  12  192.68    9.50
 -11   9  12   70.69    7.90
 -10   9  12  171.08    9.80
  -9   9  12   21.90    3.80
  -8   9  12   31.70    4.40
  -7   9  12  937.91   33.60
  -6   9  12  105.89    7.80
  -5   9  12  598.94   22.40
  -4   9  12  170.48    9.40
  -8  10  12  635.44   27.80
   1  12 -13  341.97   12.90
   1  12 -13  344.17   13.30
   0  12 -13  448.66   16.30
   0  12 -13  462.05   17.10
  -1  12 -13  187.68    8.10
  -1  12 -13  192.88    9.10
  -2  12 -13    2.50    3.20
  -3  12 -13  778.22   28.10
  -4  12 -13  102.59    7.70
   3  11 -13 1142.79   39.30
   2  11 -13  622.44   22.10
   2  11 -13  631.74   22.30
   1  11 -13  271.17   10.90
   1  11 -13  280.17   10.40
  -1 -11  13  258.57   10.40
   0  11 -13  385.26   14.70
   0  11 -13  369.86   13.70
   0 -11  13  391.66   14.70
  -1  11 -13   -0.20    1.60
  -1  11 -13    0.60    2.90
  -2  11 -13  170.28    8.70
  -3  11 -13  220.68   10.40
  -4  11 -13    1.80    3.20
  -5  11 -13  704.43   26.10
   5  10 -13   10.60    2.60
   4  10 -13  744.93   26.10
   4  10 -13  761.42   26.40
   3  10 -13  339.27   12.80
   3  10 -13  351.16   12.90
  -3 -10  13  342.17   13.00
   2  10 -13   39.10    3.70
   2  10 -13   33.00    4.10
  -2 -10  13   31.50    3.60
   1  10 -13 1373.06   47.80
   1  10 -13 1461.35   48.40
  -1 -10  13 1403.76   48.00
   0  10 -13   12.50    1.90
   0  10 -13   14.70    2.80
   0 -10  13   12.40    2.30
  -1  10 -13   27.60    4.70
  -1  10 -13   23.00    2.80
  -1  10 -13   25.20    3.00
  -2  10 -13  600.04   22.40
  -2  10 -13  728.23   24.10
  -3  10 -13   13.00    3.30
  -4  10 -13 1269.27   44.30
  -5  10 -13  152.38    8.90
  -6  10 -13  609.34   23.30
   6   9 -13  124.39    6.70
   5   9 -13  291.97   11.30
   5   9 -13  284.07   10.80
   4   9 -13  292.97   11.10
   4   9 -13  299.17   11.40
  -4  -9  13  302.07   11.10
   3   9 -13    5.70    2.00
   3   9 -13    8.10    2.20
  -3  -9  13    7.90    2.10
   2   9 -13 1229.88   42.00
  -2  -9  13 1234.98   41.90
   1   9 -13  345.67   12.90
   1   9 -13  346.77   12.20
  -1  -9  13  317.97   12.40
   0   9 -13  686.53   23.20
   0   9 -13  633.64   22.40
   0   9 -13  632.74   22.20
   0  -9  13  638.64   22.70
  -1   9 -13  938.41   31.30
  -1   9 -13  892.71   30.20
  -1   9 -13  885.21   30.10
   1  -9  13  847.42   31.60
  -2   9 -13   61.19    5.50
  -3   9 -13  346.17   13.90
  -4   9 -13   68.39    6.40
  -5   9 -13  131.29    8.30
  -6   9 -13  168.58    9.80
   7   8 -13  115.69    6.50
   6   8 -13  219.88    9.20
   5   8 -13  442.86   16.10
   5   8 -13  441.36   15.60
   4   8 -13   29.20    3.50
   4   8 -13   28.20    3.30
  -4  -8  13   23.00    3.20
   3   8 -13  843.42   30.00
   3   8 -13  879.21   30.00
  -3  -8  13  883.51   29.90
   2   8 -13  619.54   21.40
   2   8 -13  622.04   21.80
  -2  -8  13  606.44   21.50
   1   8 -13  629.24   21.80
   1   8 -13  643.04   22.40
   1   8 -13  635.64   21.90
  -1  -8  13  613.24   22.00
   0   8 -13  882.51   30.60
   0   8 -13  932.71   31.50
   0   8 -13  915.21   30.70
   0  -8  13  876.01   31.10
  -1   8 -13  124.49    5.00
  -1   8 -13  133.29    5.00
  -1   8 -13  132.49    6.80
   1  -8  13  120.09    6.10
  -2   8 -13  183.98    8.60
  -3   8 -13   86.39    6.20
  -4   8 -13  100.39    7.00
  -5   8 -13  517.75   19.80
  -6   8 -13  205.88   10.40
   8   7 -13  765.32   27.20
   7   7 -13  203.38    8.90
   6   7 -13 1175.58   40.00
   6   7 -13 1187.98   40.60
   5   7 -13    8.90    2.10
   5   7 -13   10.60    1.90
   4   7 -13  738.43   25.80
   4   7 -13  746.43   25.70
   3   7 -13  386.36   14.00
   3   7 -13  385.76   14.10
  -3  -7  13  388.36   14.00
   2   7 -13  114.39    5.20
   2   7 -13  112.39    5.30
   2   7 -13  116.79    5.70
  -2  -7  13  111.69    5.40
   1   7 -13  302.67   10.80
   1   7 -13  303.47   11.50
   1   7 -13  298.07   10.80
  -1  -7  13  287.37   11.20
   0   7 -13    4.10    2.30
   0   7 -13    6.30    1.30
   0   7 -13    6.30    1.30
   0  -7  13    6.10    1.90
  -1   7 -13  414.06   14.70
  -1   7 -13  445.36   14.80
  -1   7 -13  455.05   16.10
   1  -7  13  407.16   15.60
  -2   7 -13 1338.57   46.10
  -3   7 -13   14.20    3.00
  -4   7 -13  863.51   30.80
  -5   7 -13   78.69    6.80
  -6   7 -13  549.25   21.10
   9   6 -13  983.40   34.50
   8   6 -13  415.76   15.80
   7   6 -13 1339.37   45.20
   7   6 -13 1345.77   46.10
   6   6 -13   45.60    3.10
   6   6 -13   45.10    4.30
   5   6 -13  662.53   23.50
   5   6 -13  675.43   23.10
   4   6 -13  248.78    9.50
   4   6 -13  241.58    9.20
   4   6 -13  228.08   10.10
   3   6 -13    2.20    1.70
   3   6 -13    2.40    1.80
   3   6 -13    1.40    1.60
  -3  -6  13    0.80    1.70
   2   6 -13  924.11   31.10
   2   6 -13  901.61   31.00
   2   6 -13  889.61   31.30
  -2  -6  13  913.61   31.20
   1   6 -13  585.74   20.30
   1   6 -13  565.34   19.70
  -1  -6  13  558.54   20.10
   0   6 -13  749.33   25.30
   0   6 -13  760.92   26.10
   0   6 -13  730.43   25.20
   0  -6  13  729.23   25.80
  -1   6 -13  896.41   30.70
  -1   6 -13  916.61   30.70
  -1   6 -13  953.00   31.90
   1  -6  13  877.91   31.40
  -2   6 -13   89.09    5.80
  -3   6 -13 1297.47   44.90
  -4   6 -13    7.90    3.10
  -5   6 -13  132.49    7.90
  -6   6 -13   19.30    3.90
  10   5 -13  188.08    9.30
   9   5 -13  329.97   13.20
   8   5 -13  945.81   32.90
   8   5 -13  939.71   31.80
   7   5 -13   29.10    2.60
   7   5 -13   31.20    4.30
   6   5 -13  506.35   18.00
   6   5 -13  481.85   18.20
   6   5 -13  508.55   17.40
   5   5 -13  415.46   14.80
   5   5 -13  410.06   15.20
   5   5 -13  418.56   15.10
   4   5 -13   47.50    3.70
   4   5 -13   50.49    3.70
   4   5 -13   48.60    3.50
   3   5 -13 1054.49   35.40
   3   5 -13 1021.30   35.40
   3   5 -13 1030.40   35.30
   2   5 -13  573.64   20.20
   2   5 -13  579.34   20.50
   2   5 -13  591.84   20.20
  -2  -5  13  581.94   20.40
   1   5 -13  731.03   25.00
   1   5 -13  753.22   25.70
   1   5 -13  721.23   25.00
  -1  -5  13  723.93   25.40
   0   5 -13  642.84   22.20
   0   5 -13  668.23   22.10
   0   5 -13  649.54   23.00
   0  -5  13  634.34   22.70
  -1   5 -13    5.00    1.10
  -1   5 -13    3.20    0.90
  -1   5 -13    3.70    2.20
   1  -5  13    4.10    2.00
  -2   5 -13  758.32   26.90
  -3   5 -13  115.69    6.80
  -4   5 -13   92.29    6.40
  -5   5 -13   85.59    6.80
  -6   5 -13  154.48    8.90
  10   4 -13   70.39    6.00
   9   4 -13  288.77   11.80
   8   4 -13  987.30   34.00
   8   4 -13  961.40   32.90
   7   4 -13  254.37   11.00
   7   4 -13  286.27   10.00
   7   4 -13  285.57   11.00
   6   4 -13 2145.09   73.69
   6   4 -13 2165.78   74.19
   6   4 -13 2273.47   74.29
   5   4 -13   25.90    2.80
   5   4 -13   24.60    3.30
   4   4 -13  750.12   26.20
   4   4 -13  770.72   26.40
   4   4 -13  761.42   26.40
   3   4 -13  170.48    7.10
   3   4 -13  175.88    7.00
   2   4 -13  703.73   21.50
   2   4 -13  534.25   22.40
   1   4 -13  352.16   12.00
   1   4 -13  330.97   12.60
  -1  -4  13  328.27   12.40
   0   4 -13   10.20    1.30
   0   4 -13    9.00    2.10
   0  -4  13    9.00    2.10
  -1   4 -13  501.35   17.90
  -1   4 -13  507.25   16.70
   1  -4  13  463.75   17.60
  -2   4 -13  994.10   32.00
  -2   4 -13  909.91   33.20
  -3   4 -13  209.78    9.30
  -4   4 -13 1089.19   38.10
  -5   4 -13   75.99    6.60
  -6   4 -13  337.37   14.30
  11   3 -13   22.90    3.50
  10   3 -13  325.17   13.10
   9   3 -13 1136.29   38.60
   9   3 -13 1084.79   37.40
   8   3 -13  245.78   10.10
   8   3 -13  238.28    8.80
   7   3 -13  721.33   26.10
   7   3 -13  759.02   26.10
   7   3 -13  738.53   25.30
   6   3 -13   18.60    2.50
   6   3 -13   14.40    2.30
   5   3 -13 1000.80   34.20
   5   3 -13  991.20   34.00
   4   3 -13  520.35   18.40
   4   3 -13  528.25   18.50
   3   3 -13  189.28    7.70
   3   3 -13  198.78    7.60
   2   3 -13  714.23   23.30
   2   3 -13  634.44   23.70
   1   3 -13  138.49    5.50
   1   3 -13  131.99    6.20
   0   3 -13 1087.59   35.90
   0   3 -13 1068.69   36.60
   0  -3  13 1031.20   36.40
  -1   3 -13 1013.40   34.10
  -1   3 -13 1031.10   33.10
   1  -3  13  903.01   33.80
  -2   3 -13  123.79    4.80
  -2   3 -13  125.89    6.60
  -3   3 -13 1925.91   64.89
  -3   3 -13 1960.30   66.19
  -4   3 -13   67.59    5.80
  -5   3 -13  191.98    9.50
  -6   3 -13  120.09    8.30
  11   2 -13 1022.90   36.00
  10   2 -13   78.89    6.10
  10   2 -13   70.79    3.50
   9   2 -13 1118.09   37.70
   9   2 -13 1045.50   36.60
   8   2 -13 1141.59   39.10
   8   2 -13 1032.90   36.80
   7   2 -13    2.00    1.90
   7   2 -13    2.80    1.40
   6   2 -13 1134.19   38.10
   6   2 -13 1109.39   38.50
   5   2 -13  978.70   34.10
   5   2 -13 1017.80   34.30
   4   2 -13   13.50    1.90
   4   2 -13   18.60    2.70
   3   2 -13  893.71   29.20
   3   2 -13  804.02   29.60
   2   2 -13   67.39    4.10
   2   2 -13   67.89    3.70
   1   2 -13  678.83   23.50
   1   2 -13  661.53   23.00
   0   2 -13  324.77   11.40
   0   2 -13  318.77   12.20
  -1   2 -13  153.78    5.80
  -1   2 -13  154.58    7.00
   1  -2  13  145.99    6.20
  -2   2 -13 1307.97   42.60
  -2   2 -13 1261.67   43.50
   2  -2  13 1225.58   42.70
  -3   2 -13    5.50    2.50
  -3   2 -13    3.60    1.30
   3  -2  13    5.20    1.50
  -4   2 -13  250.77   10.60
   4  -2  13  234.08    8.80
  -5   2 -13  427.76   16.70
  -6   2 -13    2.50    3.50
  12   1 -13  979.00   34.70
  11   1 -13   55.69    3.20
  11   1 -13   57.39    5.90
  10   1 -13  270.47    9.80
   9   1 -13  519.95   18.10
   8   1 -13  195.38    8.80
   8   1 -13  215.28    7.90
   7   1 -13  463.95   15.90
   7   1 -13  438.76   16.50
   6   1 -13  874.51   30.30
   6   1 -13  871.51   29.90
   5   1 -13    9.50    1.90
   5   1 -13   11.60    1.80
   4   1 -13 1947.41   66.69
   4   1 -13 2008.70   66.69
   3   1 -13  236.68    9.10
   3   1 -13  232.68    8.90
   2   1 -13  575.04   19.80
   2   1 -13  547.35   19.50
   1   1 -13  131.59    5.50
   1   1 -13  134.29    6.20
  -1  -1  13  137.49    5.90
   0   1 -13  187.98    7.70
   0   1 -13  177.98    6.80
   0  -1  13  173.08    7.20
  -1   1 -13  421.46   15.50
  -1   1 -13  431.26   14.70
   1  -1  13  411.06   14.90
  -2   1 -13   97.19    5.60
  -2   1 -13  100.09    5.70
   2  -1  13  106.29    4.80
  -3   1 -13  318.97   12.00
  -3   1 -13  279.77   11.20
   3  -1  13  292.27   10.90
  -4   1 -13  952.70   33.30
   4  -1  13  939.91   32.20
  -5   1 -13   11.20    3.60
  12   0 -13  295.67   12.70
  11   0 -13   60.89    3.50
  10   0 -13  668.93   23.10
   9   0 -13  226.78    8.60
   8   0 -13  753.82   25.30
   8   0 -13  714.83   25.90
   7   0 -13  526.85   18.40
   7   0 -13  517.75   18.80
   6   0 -13    1.40    1.80
   6   0 -13    3.00    1.60
   5   0 -13 2043.60   66.59
   5   0 -13 1892.81   66.79
   4   0 -13  464.65   16.50
   4   0 -13  457.85   16.50
   3   0 -13  210.68    8.30
   3   0 -13  222.48    8.50
  -3   0  13  206.28    8.70
   2   0 -13 1721.93   58.59
   2   0 -13 1729.83   58.29
  -2   0  13 1737.53   58.59
   1   0 -13  194.18    7.50
   1   0 -13  198.18    8.00
  -1   0  13  192.48    7.90
   0   0 -13   20.10    2.60
   0   0 -13   22.10    3.50
   0   0  13   22.70    3.20
  -1   0 -13  493.55   18.20
  -1   0 -13  509.05   17.50
   1   0  13  505.45   17.80
  -2   0 -13   96.79    4.60
  -2   0 -13   97.59    5.60
   2   0  13   93.59    4.90
  -3   0 -13  800.42   28.20
  -3   0 -13  814.22   27.40
   3   0  13  776.12   27.40
  -4   0 -13    0.90    2.80
   4   0  13    1.00    1.90
  -5   0 -13  393.76   15.70
  12  -1 -13  144.39    6.00
  11  -1 -13 1364.86   46.20
  10  -1 -13  415.86   14.80
   9  -1 -13  577.24   20.20
   8  -1 -13  936.61   31.00
   8  -1 -13  871.41   31.50
   7  -1 -13  349.47   13.40
   7  -1 -13  365.66   13.10
   6  -1 -13  579.64   21.30
   6  -1 -13  611.84   21.20
   5  -1 -13  181.48    7.50
   5  -1 -13  180.28    7.60
   4  -1 -13  152.58    6.70
   4  -1 -13  164.68    6.80
  -4   1  13  149.09    7.10
   3  -1 -13 2002.80   66.99
   3  -1 -13 1979.60   67.19
  -3   1  13 1983.70   67.29
   2  -1 -13   95.09    4.60
   2  -1 -13   91.79    5.00
  -2   1  13   96.89    5.20
   1  -1 -13  568.54   20.20
   1  -1 -13  569.44   19.70
  -1   1  13  564.84   20.10
   0  -1 -13  798.62   28.70
   0  -1 -13  847.82   28.20
   0   1  13  826.92   28.50
  -1  -1 -13   52.19    3.60
  -1  -1 -13   54.19    4.40
   1   1  13   48.50    4.10
  -2  -1 -13  508.55   19.20
  -2  -1 -13  542.95   18.60
   2   1  13  531.85   18.80
  -3  -1 -13   43.90    4.90
  -3  -1 -13   41.80    3.90
   3   1  13   37.30    4.00
  -4  -1 -13  277.17   11.80
   4   1  13  280.37   11.70
  13  -2 -13   79.29    5.60
   9  -2 -13 1070.19   37.60
   8  -2 -13   67.59    4.10
   8  -2 -13   53.49    4.70
   7  -2 -13  140.89    6.70
   7  -2 -13  141.89    6.20
   6  -2 -13   75.99    4.40
   6  -2 -13   72.29    4.70
  -6   2  13   75.29    5.40
   5  -2 -13  477.25   16.60
   5  -2 -13  446.66   16.60
  -5   2  13  454.55   16.90
   4  -2 -13 1283.67   43.10
   4  -2 -13 1281.77   43.30
  -4   2  13 1230.48   44.00
   3  -2 -13  228.68    8.90
   3  -2 -13  228.38    9.20
  -3   2  13  225.88    9.40
   2  -2 -13 1587.74   52.89
   2  -2 -13 1507.65   53.09
  -2   2  13 1595.24   53.19
   1  -2 -13  399.06   14.10
   1  -2 -13  387.36   14.50
  -1   2  13  391.96   14.50
   0  -2 -13  165.78    7.20
   0  -2 -13  153.28    6.60
   0   2  13  149.59    7.20
  -1  -2 -13  230.38    9.70
  -1  -2 -13  241.38    9.20
  -2  -2 -13    1.70    1.90
  -2  -2 -13    4.00    2.40
   2   2  13    0.80    2.10
  -3  -2 -13   45.60    5.10
   3   2  13   43.40    4.60
   7  -3 -13  671.03   22.50
   7  -3 -13  610.04   22.80
  -7   3  13  641.54   23.20
   6  -3 -13  167.98    7.00
   6  -3 -13  149.88    7.10
  -6   3  13  157.78    7.70
   5  -3 -13  788.12   28.00
   5  -3 -13  812.62   28.00
  -5   3  13  812.92   28.30
   4  -3 -13   46.00    3.90
   4  -3 -13   41.40    4.10
  -4   3  13   54.59    4.70
   3  -3 -13 1172.28   40.10
   3  -3 -13 1166.68   40.40
  -3   3  13 1186.38   40.50
   2  -3 -13   36.50    3.50
   2  -3 -13   36.50    4.20
  -2   3  13   42.40    4.40
   1  -3 -13  212.28    8.70
   1  -3 -13  203.38    8.30
  -1   3  13  203.28    8.80
   0  -3 -13  462.95   17.20
   0  -3 -13  477.45   16.80
   0   3  13  471.45   17.20
  -1  -3 -13  274.97   11.20
  -1  -3 -13  286.27   10.80
   1   3  13  283.17   11.20
  -2  -3 -13   49.10    5.00
  -2  -3 -13   46.40    4.50
   2   3  13   45.60    4.80
  -3  -3 -13  280.27   11.70
  -8   4  13 1730.23   59.39
  -7   4  13    3.80    2.60
   6  -4 -13   33.10    4.00
   6  -4 -13   40.50    3.90
  -6   4  13   37.00    4.80
   5  -4 -13   65.29    4.50
   5  -4 -13   55.39    4.40
  -5   4  13   63.39    5.20
   4  -4 -13  374.46   14.50
   4  -4 -13  415.46   14.90
  -4   4  13  408.96   15.10
   3  -4 -13  149.19    6.80
   3  -4 -13  151.78    7.30
  -3   4  13  167.18    7.60
   2  -4 -13  116.79    6.30
   2  -4 -13  112.39    5.70
  -2   4  13  118.79    6.50
   1  -4 -13  530.55   19.60
   1  -4 -13  542.05   19.20
  -1   4  13  552.24   19.70
   0  -4 -13 1023.30   34.20
   0  -4 -13  960.30   34.40
   0   4  13  983.10   34.40
  -1  -4 -13  169.28    8.00
   1   4  13  167.18    8.10
  -2  -4 -13  246.78   10.70
   2   4  13  260.47   10.70
  -9   5  13  663.43   24.40
  -8   5  13    3.10    2.90
  -7   5  13  512.65   19.20
  -6   5  13  239.68   10.40
   5  -5 -13   10.60    2.40
  -5   5  13    8.10    2.80
   4  -5 -13  546.35   19.60
  -4   5  13  536.05   19.80
   3  -5 -13   45.30    4.50
  -3   5  13   49.20    5.10
   2  -5 -13  564.64   20.30
  -2   5  13  555.34   20.50
   1  -5 -13  149.59    7.70
  -1   5  13  162.08    7.90
   0  -5 -13  416.36   15.80
   0   5  13  417.06   15.90
  -1  -5 -13  265.67   11.40
   1   5  13  284.77   11.60
 -10   6  13  129.89    8.50
  -9   6  13    9.30    3.50
  -8   6  13 1059.89   37.30
  -7   6  13 1203.28   42.00
  -6   6  13  134.09    7.60
  -5   6  13  747.63   26.80
   4  -6 -13    1.70    2.40
  -4   6  13    1.60    2.70
   3  -6 -13  459.75   17.10
  -3   6  13  457.95   17.30
   2  -6 -13   17.60    3.20
  -2   6  13   12.80    3.10
   1  -6 -13   88.09    6.40
  -1   6  13   89.09    6.50
   0  -6 -13  116.29    7.70
 -11   7  13  180.58   10.20
 -10   7  13  101.49    7.90
  -9   7  13  867.31   31.30
  -8   7  13  645.14   23.90
  -7   7  13  238.78   11.00
  -6   7  13  591.94   22.10
  -5   7  13   21.60    3.70
   4  -7 -13  166.08    8.00
  -4   7  13  164.78    8.70
   3  -7 -13   80.29    6.10
  -3   7  13   90.69    6.80
   2  -7 -13   62.09    5.80
  -2   7  13   61.99    6.50
 -11   8  13    2.60    4.40
 -10   8  13  104.49    8.30
  -9   8  13   16.40    3.90
  -8   8  13  130.79    8.40
  -7   8  13  242.18   11.40
  -6   8  13  108.19    7.90
  -5   8  13   92.89    7.40
   4  -8 -13  547.45   19.90
  -4   8  13  527.85   20.40
  -9   9  13    5.20    4.70
  -8   9  13  226.18   11.50
  -7   9  13  262.47   12.40
  -6   9  13   68.39    8.00
   2  11 -14    4.80    2.20
   2  11 -14    5.10    2.50
   1  11 -14  294.17   11.20
   1  11 -14  297.57   12.00
   0  11 -14  266.07   10.10
   0  11 -14  271.47   11.40
  -1  11 -14  185.18    9.20
  -2  11 -14  281.67   12.30
  -3  11 -14    6.00    3.50
  -4  11 -14  451.55   18.00
   4  10 -14 1386.46   47.40
   3  10 -14   14.50    3.10
   3  10 -14   13.30    2.40
   2  10 -14  686.13   23.90
   2  10 -14  679.63   23.50
  -2 -10  14  652.63   23.60
   1  10 -14  387.66   13.90
   1  10 -14  395.46   14.70
  -1 -10  14  373.56   14.20
   0  10 -14    0.80    2.80
   0  10 -14    1.80    1.70
  -1  10 -14  319.37   12.00
  -2  10 -14   46.90    6.00
  -3  10 -14  118.49    7.90
  -4  10 -14  538.35   20.80
  -5  10 -14   43.70    7.90
   6   9 -14  487.75   18.00
   5   9 -14  399.16   15.00
   4   9 -14    1.00    2.20
   4   9 -14    1.00    2.00
   3   9 -14  514.35   18.40
  -3  -9  14  521.35   18.40
   2   9 -14 1191.18   39.30
   2   9 -14 1093.79   39.20
  -2  -9  14 1132.39   39.00
   1   9 -14   36.00    3.30
   1   9 -14   34.30    4.70
   1   9 -14   34.70    3.60
  -1  -9  14   32.50    3.90
   0   9 -14  663.53   23.80
   0   9 -14  729.83   25.00
   0   9 -14  696.63   24.00
  -1   9 -14  155.68    6.00
  -1   9 -14  154.48    8.00
  -2   9 -14  290.77   12.20
  -3   9 -14  165.18    9.00
  -4   9 -14  116.69    7.90
  -5   9 -14  473.35   18.80
   7   8 -14   29.10    4.60
   6   8 -14   99.59    5.90
   5   8 -14  192.98    8.30
   5   8 -14  192.78    7.80
   4   8 -14  142.39    6.50
   4   8 -14  140.49    6.60
   3   8 -14  786.52   27.30
   3   8 -14  782.02   27.50
  -3  -8  14  801.12   27.40
   2   8 -14   29.80    3.30
   2   8 -14   29.40    3.60
   2   8 -14   29.70    4.20
  -2  -8  14   29.40    3.80
   1   8 -14 1183.38   40.30
   1   8 -14 1217.98   41.00
   1   8 -14 1191.88   40.40
  -1  -8  14 1160.78   40.60
   0   8 -14  551.84   19.30
   0   8 -14  514.95   18.10
   0   8 -14  530.45   18.20
   0  -8  14  498.05   19.70
  -1   8 -14  746.33   25.90
  -1   8 -14  707.63   24.40
  -1   8 -14  710.33   24.40
  -2   8 -14  418.46   16.20
  -3   8 -14   88.89    6.90
  -4   8 -14  175.18    9.40
  -5   8 -14  307.97   13.60
   8   7 -14   76.59    6.00
   7   7 -14  554.54   20.20
   6   7 -14  929.81   31.60
   6   7 -14  919.01   32.10
   5   7 -14  232.98    9.10
   5   7 -14  238.88    9.50
   4   7 -14  422.36   15.30
   4   7 -14  423.26   15.60
   4   7 -14  421.46   15.40
   3   7 -14  291.97   11.30
   3   7 -14  298.17   11.20
  -3  -7  14  299.17   11.20
   2   7 -14 1515.85   52.59
   2   7 -14 1581.14   53.09
   2   7 -14 1562.24   52.79
  -2  -7  14 1576.44   52.89
   1   7 -14 1124.99   37.50
   1   7 -14 1093.99   36.80
   1   7 -14 1064.29   36.70
  -1  -7  14 1047.90   37.10
   0   7 -14  222.28    9.20
   0   7 -14  210.18    7.90
   0   7 -14  211.28    7.90
   0  -7  14  206.28    8.80
  -1   7 -14  456.35   16.80
  -1   7 -14  445.16   15.20
  -1   7 -14  431.96   15.20
  -2   7 -14  374.46   14.70
  -3   7 -14  150.08    8.10
  -4   7 -14  407.16   16.20
  -5   7 -14   80.69    7.20
   9   6 -14  137.29    7.70
   8   6 -14 1367.56   47.10
   7   6 -14  812.82   27.80
   7   6 -14  816.22   28.70
   6   6 -14  728.93   24.70
   6   6 -14  700.03   25.20
   5   6 -14  641.04   22.10
   5   6 -14  632.94   22.30
   5   6 -14  622.24   22.50
   4   6 -14   11.90    2.20
   4   6 -14   10.90    2.10
   4   6 -14   11.80    2.20
   3   6 -14  158.18    6.80
   3   6 -14  163.28    6.80
  -3  -6  14  158.78    6.90
   2   6 -14  316.47   11.50
   2   6 -14  318.27   11.50
   2   6 -14  314.77   12.00
  -2  -6  14  300.97   11.70
   1   6 -14  117.89    5.20
   1   6 -14  124.89    6.20
   1   6 -14  120.59    5.10
  -1  -6  14  113.99    5.80
   0   6 -14 1407.26   47.40
   0   6 -14 1357.66   46.50
   0   6 -14 1407.46   46.50
   0  -6  14 1353.36   47.10
  -1   6 -14  268.77   11.00
  -1   6 -14  265.17    9.30
  -1   6 -14  264.57    9.30
  -2   6 -14 1038.20   36.30
  -3   6 -14  396.06   15.60
  -4   6 -14   38.80    6.00
  -5   6 -14  410.56   16.50
   9   5 -14 1065.39   37.20
   8   5 -14  450.05   16.80
   8   5 -14  443.16   15.60
   7   5 -14  214.78    9.30
   7   5 -14  217.68    8.30
   6   5 -14  629.04   21.50
   6   5 -14  599.54   22.10
   6   5 -14  622.04   22.00
   5   5 -14  196.08    8.30
   5   5 -14  198.88    7.90
   5   5 -14  193.68    8.30
   4   5 -14  146.19    6.40
   4   5 -14  141.99    6.40
   4   5 -14  142.99    6.50
   3   5 -14  332.87   11.90
   3   5 -14  328.37   11.90
   3   5 -14  309.57   12.50
   2   5 -14    6.90    1.60
   2   5 -14    7.90    2.20
   2   5 -14    9.60    1.80
  -2  -5  14    8.60    2.10
   1   5 -14 1711.53   57.09
   1   5 -14 1653.33   56.49
  -1  -5  14 1667.33   56.89
   0   5 -14   58.89    3.30
   0   5 -14   54.89    4.70
   0   5 -14   57.59    3.10
   0  -5  14   55.39    4.50
  -1   5 -14  908.51   31.40
  -1   5 -14  899.61   30.00
  -1   5 -14  871.51   30.10
  -2   5 -14  404.56   15.60
  -3   5 -14    0.40    3.00
  -4   5 -14  257.07   11.40
  -5   5 -14    2.70    3.40
  10   4 -14  449.66   17.20
   9   4 -14  188.98    9.00
   8   4 -14   47.40    3.20
   8   4 -14   45.50    5.10
   7   4 -14  716.63   24.60
   7   4 -14  710.63   25.20
   6   4 -14  961.60   33.80
   6   4 -14 1006.80   33.80
   6   4 -14  954.40   33.30
   5   4 -14  483.25   16.90
   5   4 -14  483.15   17.20
   5   4 -14  460.95   17.20
   4   4 -14 1268.07   42.20
   4   4 -14 1207.08   42.20
   3   4 -14   25.30    3.10
   3   4 -14   27.50    3.40
   2   4 -14 1281.37   44.60
   2   4 -14 1327.67   44.20
   1   4 -14   21.30    2.60
  -1  -4  14   20.30    2.50
   0   4 -14  100.59    4.50
   0   4 -14  109.89    6.00
   0  -4  14  127.89    8.30
  -1   4 -14  820.42   28.80
  -1   4 -14  815.92   27.60
  -2   4 -14    9.30    2.80
  -2   4 -14    5.30    1.00
  -3   4 -14  336.47   13.60
  -4   4 -14  539.35   20.30
  -5   4 -14    8.80    3.60
  11   3 -14   59.49    6.50
  10   3 -14  312.57   12.90
   9   3 -14   11.40    1.70
   9   3 -14   12.40    2.90
   8   3 -14 1529.15   51.49
   8   3 -14 1473.05   50.59
   7   3 -14  344.97   13.50
   7   3 -14  357.36   12.70
   6   3 -14 1574.74   53.89
   6   3 -14 1615.04   54.29
   5   3 -14 1124.29   38.70
   5   3 -14 1143.79   38.90
   4   3 -14   21.10    3.20
   3   3 -14  658.83   22.90
   3   3 -14  647.14   22.70
   2   3 -14  186.58    7.30
   2   3 -14  182.68    7.80
   1   3 -14    8.40    2.20
   1   3 -14    4.80    1.40
   0   3 -14  847.22   28.90
   0   3 -14  804.82   28.00
  -1   3 -14    8.40    1.20
  -1   3 -14    8.60    2.50
  -2   3 -14  457.85   17.30
  -2   3 -14  465.05   15.80
  -3   3 -14 1153.58   40.20
  -4   3 -14   93.79    6.80
  -5   3 -14  401.26   16.10
  11   2 -14  893.41   31.80
  10   2 -14   26.00    3.60
  10   2 -14   31.40    2.80
   9   2 -14 1418.56   47.90
   8   2 -14  122.79    5.30
   7   2 -14  552.34   18.50
   7   2 -14  501.25   19.00
   6   2 -14 1168.58   40.30
   6   2 -14 1180.18   40.00
   5   2 -14    7.80    2.10
   5   2 -14    7.90    2.00
   4   2 -14  270.87   10.20
   4   2 -14  267.67   10.20
   3   2 -14  487.65   17.50
   3   2 -14  489.65   17.30
   2   2 -14  335.27   12.50
   2   2 -14  356.66   12.90
   1   2 -14 1411.76   47.60
   1   2 -14 1408.36   48.10
   0   2 -14    4.60    2.10
   0   2 -14    2.70    1.30
  -1   2 -14  552.34   19.30
  -1   2 -14  576.44   20.40
  -2   2 -14  437.16   16.40
  -2   2 -14  439.06   15.10
   2  -2  14  426.56   15.30
  -3   2 -14  397.16   15.10
   3  -2  14  380.06   13.70
  -4   2 -14  426.76   16.70
  11   1 -14   15.40    3.40
  10   1 -14  640.54   22.10
   9   1 -14   12.90    1.90
   8   1 -14   23.70    2.90
   7   1 -14  408.46   15.70
   7   1 -14  443.56   15.20
   6   1 -14  104.39    5.50
   5   1 -14  466.65   17.30
   5   1 -14  497.85   17.20
   4   1 -14 1365.96   47.80
   4   1 -14 1449.06   47.90
   3   1 -14  570.94   19.90
   3   1 -14  555.24   19.70
   2   1 -14  926.71   31.90
   2   1 -14  943.41   32.30
   1   1 -14  234.68    8.80
   1   1 -14  242.98    9.60
  -1  -1  14  238.88    9.30
   0   1 -14  546.15   19.00
   0   1 -14  558.84   19.80
   0  -1  14  544.25   19.30
  -1   1 -14    7.80    2.30
  -1   1 -14   10.20    1.60
   1  -1  14   11.70    1.90
  -2   1 -14  104.49    4.80
  -2   1 -14  112.29    6.30
   2  -1  14  101.29    5.10
  -3   1 -14  317.57   12.60
   3  -1  14  296.97   11.30
  -4   1 -14  131.09    7.80
  11   0 -14  273.77   10.10
  10   0 -14  427.76   15.20
   9   0 -14   22.80    3.10
   8   0 -14 1067.69   36.50
   7   0 -14  184.28    8.10
   7   0 -14  190.98    8.30
   6   0 -14 1140.89   38.00
   6   0 -14 1082.89   38.20
   5   0 -14 1047.80   35.70
   5   0 -14 1030.80   35.60
   4   0 -14  102.09    5.10
   4   0 -14   82.89    4.90
   3   0 -14  345.57   12.70
   3   0 -14  335.07   12.50
  -3   0  14  338.27   12.90
   2   0 -14   18.40    2.90
   2   0 -14   19.60    3.40
  -2   0  14   20.80    3.70
   1   0 -14  113.99    5.20
   1   0 -14  122.19    6.00
  -1   0  14  115.29    5.80
   0   0 -14  200.08    7.70
   0   0 -14  198.58    8.60
   0   0  14  198.68    8.10
  -1   0 -14  121.09    5.30
  -1   0 -14  117.89    6.30
   1   0  14  118.19    5.70
  -2   0 -14  189.68    8.70
  -2   0 -14  199.48    7.70
   2   0  14  186.38    7.90
  -3   0 -14  214.58    9.80
   3   0  14  223.58    8.80
  -4   0 -14  250.37   14.30
  12  -1 -14  178.78    7.30
  11  -1 -14 1311.47   44.50
   9  -1 -14 1058.09   36.30
   8  -1 -14  149.09    6.60
   7  -1 -14 1051.09   35.10
   7  -1 -14  993.70   35.40
   6  -1 -14  207.38    8.40
   6  -1 -14  208.18    8.60
   5  -1 -14    5.90    2.00
   5  -1 -14    6.40    2.10
   4  -1 -14  756.52   26.60
   4  -1 -14  778.82   26.80
  -4   1  14  764.72   27.00
   3  -1 -14  212.88    8.20
   3  -1 -14  201.38    8.50
  -3   1  14  201.48    9.60
   2  -1 -14   13.50    1.90
   2  -1 -14   22.30    3.60
  -2   1  14   14.30    2.50
   1  -1 -14  782.52   27.90
   1  -1 -14  831.82   27.60
  -1   1  14  787.22   27.80
   0  -1 -14  215.78    8.20
   0  -1 -14  206.28    8.90
   0   1  14  208.38    8.70
  -1  -1 -14  386.66   13.50
  -1  -1 -14  364.46   14.20
   1   1  14  368.86   13.80
  -2  -1 -14  144.09    7.70
  -2  -1 -14  173.78    8.30
   2   1  14  159.28    7.10
  -3  -1 -14  310.17   12.70
  12  -2 -14 1356.96   46.10
  11  -2 -14   84.89    4.80
  10  -2 -14  947.71   32.60
   9  -2 -14   11.90    2.20
   8  -2 -14  442.96   16.00
   7  -2 -14  175.58    8.20
   7  -2 -14  194.78    7.90
   6  -2 -14   91.99    5.10
   6  -2 -14   87.39    5.30
  -6   2  14   93.49    6.10
   5  -2 -14  672.93   24.80
   5  -2 -14  729.53   24.90
  -5   2  14  720.33   25.20
   4  -2 -14  898.91   31.50
   4  -2 -14  916.41   31.70
  -4   2  14  927.11   31.90
   3  -2 -14  161.08    7.00
   3  -2 -14  178.28    7.60
  -3   2  14  161.78    7.70
   2  -2 -14 1160.28   39.40
   2  -2 -14 1157.98   39.80
  -2   2  14 1153.78   39.80
   1  -2 -14   19.30    2.80
   1  -2 -14   12.50    2.10
  -1   2  14   16.10    2.70
   0  -2 -14  542.55   19.80
   0  -2 -14  556.14   19.30
   0   2  14  548.95   19.70
  -1  -2 -14    8.60    2.70
  -1  -2 -14    6.10    2.10
   1   2  14    8.30    2.50
  -2  -2 -14   57.89    5.40
   2   2  14   57.89    5.00
   9  -3 -14   34.30    4.00
   8  -3 -14  688.33   24.20
   7  -3 -14  132.89    6.40
  -7   3  14  135.69    7.60
   6  -3 -14  498.15   19.40
   6  -3 -14  565.74   19.40
  -6   3  14  551.34   19.90
   5  -3 -14  323.87   12.30
   5  -3 -14  301.67   12.10
  -5   3  14  327.57   12.70
   4  -3 -14  206.88    9.00
   4  -3 -14  237.18    9.50
  -4   3  14  230.28    9.60
   3  -3 -14  518.95   18.80
   3  -3 -14  536.95   19.30
  -3   3  14  540.95   19.40
   2  -3 -14    4.60    1.90
   2  -3 -14    7.60    2.30
  -2   3  14   11.80    2.70
   1  -3 -14  374.86   14.40
   1  -3 -14  389.56   13.90
  -1   3  14  371.96   14.40
   0  -3 -14  349.77   13.90
   0  -3 -14  368.36   13.40
   0   3  14  367.36   13.90
  -1  -3 -14  107.59    6.30
  -1  -3 -14  104.19    5.70
   1   3  14  106.79    6.30
  -8   4  14   18.10    3.50
   7  -4 -14 1003.30   33.80
  -7   4  14  945.21   34.30
   6  -4 -14  152.08    7.30
  -6   4  14  163.08    8.10
   5  -4 -14  312.17   12.00
  -5   4  14  298.07   12.30
   4  -4 -14   69.89    5.40
  -4   4  14   76.09    5.70
   3  -4 -14  122.99    6.80
  -3   4  14  132.29    7.10
   2  -4 -14   60.39    5.20
  -2   4  14   60.99    5.40
   1  -4 -14  422.76   16.20
  -1   4  14  438.36   16.30
   0  -4 -14   66.59    5.50
   0   4  14   73.09    5.90
  -9   5  14   41.80    6.40
  -8   5  14  174.08    9.20
  -7   5  14  153.38    8.40
   6  -5 -14   47.50    4.70
  -6   5  14   45.30    5.50
   5  -5 -14  206.48    9.10
  -5   5  14  206.88    9.60
   4  -5 -14  417.46   16.00
  -4   5  14  431.06   16.30
   3  -5 -14   61.99    5.50
  -3   5  14   57.09    5.70
   2  -5 -14  445.56   17.30
  -2   5  14  472.85   17.40
   1  -5 -14   13.60    3.00
  -1   5  14   12.00    3.30
 -10   6  14   46.40    7.10
  -9   6  14   44.00    6.40
  -8   6  14  667.53   24.70
  -7   6  14  135.79    8.10
   6  -6 -14  440.36   15.90
  -6   6  14  397.26   16.30
   5  -6 -14  540.35   19.70
  -5   6  14  535.05   20.20
   4  -6 -14   77.89    5.90
  -4   6  14   74.79    6.40
   3  -6 -14  247.58   11.00
  -3   6  14  266.47   11.40
   2  -6 -14   12.00    3.70
  -2   6  14   10.30    3.40
 -10   7  14    8.00    3.70
  -9   7  14 1078.19   38.40
  -8   7  14   47.70    6.60
  -7   7  14  866.71   31.10
  -6   7  14  285.57   12.60
   5  -7 -14   66.89    5.80
  -5   7  14   59.69    6.60
   4  -7 -14  356.86   14.10
  -4   7  14  320.87   14.00
  -9   8  14  151.18   11.50
  -8   8  14  486.45   19.10
  -7   8  14  188.48   10.10
  -6   8  14   -0.40    3.70
   0  11 -15   34.20    5.70
  -1  11 -15  534.05   20.30
   3  10 -15  445.66   16.30
   3  10 -15  448.26   16.60
   2  10 -15 1106.19   37.80
   2  10 -15 1085.79   37.20
  -2 -10  15 1070.69   37.50
   1  10 -15    5.70    2.90
   1  10 -15    4.90    1.90
   0  10 -15  100.09    7.00
  -1  10 -15   40.80    6.20
  -2  10 -15   22.90    4.10
  -3  10 -15  469.35   18.50
   5   9 -15  287.07   11.50
   4   9 -15  245.28   10.00
   3   9 -15  250.07    9.90
   3   9 -15  250.37   10.20
   3   9 -15  247.98   10.30
  -3  -9  15  254.07   10.00
   2   9 -15  257.67   10.60
   2   9 -15  252.67   10.40
  -2  -9  15  247.78   10.10
   1   9 -15  155.28    6.60
   1   9 -15  162.58    8.00
   0   9 -15  860.51   29.80
   0   9 -15  891.51   31.00
  -1   9 -15   -0.10    3.10
  -2   9 -15  783.22   28.30
  -3   9 -15    2.30    3.50
  -4   9 -15  827.72   30.70
   6   8 -15   90.59    6.00
   5   8 -15   14.60    2.40
   5   8 -15   16.00    2.70
   4   8 -15  368.56   14.20
   4   8 -15  396.36   14.00
   4   8 -15  363.96   14.70
   3   8 -15  626.24   22.30
   3   8 -15  621.34   22.00
   3   8 -15  620.64   22.10
  -3  -8  15  632.74   22.10
   2   8 -15  462.05   16.70
   2   8 -15  453.15   16.00
   2   8 -15  433.36   16.10
  -2  -8  15  441.36   16.30
   1   8 -15 1501.35   51.69
   1   8 -15 1546.45   51.79
   1   8 -15 1551.14   52.59
   0   8 -15   41.50    3.10
   0   8 -15   47.50    5.40
  -1   8 -15  873.81   31.00
  -2   8 -15   36.70    5.90
  -3   8 -15   10.70    3.90
  -4   8 -15   69.79    7.30
   7   7 -15  404.66   15.40
   6   7 -15   10.00    2.50
   6   7 -15    8.40    2.10
   5   7 -15 1097.49   40.00
   5   7 -15 1104.89   40.20
   5   7 -15 1321.07   42.00
   4   7 -15  566.34   20.20
   4   7 -15  551.24   20.20
   4   7 -15  573.54   20.10
   3   7 -15 1103.09   38.40
   3   7 -15 1104.49   38.20
  -3  -7  15 1133.19   38.20
   2   7 -15  835.72   28.90
   2   7 -15  832.92   28.30
   2   7 -15  828.32   28.40
  -2  -7  15  799.22   28.60
   1   7 -15   32.40    3.30
   1   7 -15   33.50    3.10
   1   7 -15   34.20    4.70
   0   7 -15  645.84   22.00
   0   7 -15  648.44   23.10
   0   7 -15  618.34   21.80
  -1   7 -15  300.67   12.40
  -2   7 -15    3.30    3.00
  -3   7 -15  199.98    9.80
  -4   7 -15    7.80    4.00
   8   6 -15 1335.67   46.10
   7   6 -15  104.29    6.40
   7   6 -15  102.79    5.10
   6   6 -15 1401.86   48.20
   6   6 -15 1439.16   48.60
   5   6 -15   12.00    2.50
   5   6 -15   12.10    2.40
   5   6 -15   12.90    2.30
   4   6 -15  617.94   21.80
   4   6 -15  607.34   21.90
   4   6 -15  625.54   21.80
   3   6 -15  299.07   11.20
   3   6 -15  295.47   11.20
   3   6 -15  298.47   11.60
   2   6 -15   11.20    2.00
   2   6 -15    8.90    2.60
   2   6 -15   11.30    1.90
  -2  -6  15    8.00    2.30
   1   6 -15  348.37   12.60
   1   6 -15  358.76   13.60
   1   6 -15  347.47   12.60
   0   6 -15  606.04   20.90
   0   6 -15  614.24   22.10
   0   6 -15  606.14   20.80
  -1   6 -15   76.39    6.00
  -1   6 -15   75.09    3.40
  -2   6 -15 1525.45   52.69
  -3   6 -15    0.90    3.30
  -4   6 -15  292.97   13.00
   9   5 -15 1175.68   40.90
   8   5 -15    1.30    2.60
   7   5 -15  798.62   28.20
   7   5 -15  799.62   27.50
   6   5 -15  227.48    9.90
   6   5 -15  223.08    9.30
   6   5 -15  279.77   11.90
   5   5 -15   40.20    4.10
   5   5 -15   33.40    4.30
   5   5 -15   36.30    4.10
   4   5 -15  348.07   13.20
   4   5 -15  356.16   13.20
   4   5 -15  353.86   13.10
   3   5 -15   44.60    3.80
   3   5 -15   38.50    4.20
   3   5 -15   43.30    3.80
   2   5 -15  218.78    8.50
   2   5 -15  217.18    8.40
   2   5 -15  216.28    9.10
   1   5 -15  837.42   29.50
   1   5 -15  834.62   28.70
   1   5 -15  847.62   28.70
   0   5 -15  302.17   11.80
   0   5 -15  287.57   10.40
   0   5 -15  276.77   10.30
  -1   5 -15 1049.09   37.10
  -1   5 -15 1158.68   37.40
  -1   5 -15 1096.59   38.40
  -2   5 -15   58.79    5.90
  -3   5 -15  173.48    9.20
  -4   5 -15   53.89    6.60
  10   4 -15  557.04   20.90
   9   4 -15   13.30    3.10
   8   4 -15  247.48   10.60
   8   4 -15  248.98    9.40
   7   4 -15  565.14   20.10
   7   4 -15  585.74   20.90
   6   4 -15   93.59    5.70
   6   4 -15   91.79    4.90
   6   4 -15   89.39    5.50
   5   4 -15 1112.19   39.10
   5   4 -15 1140.59   39.20
   5   4 -15 1171.88   39.30
   4   4 -15  171.18    7.50
   4   4 -15  176.58    7.40
   3   4 -15  302.37   11.50
   3   4 -15  292.67   11.10
   2   4 -15  498.35   18.10
   2   4 -15  501.35   17.60
   1   4 -15  196.18    8.20
   1   4 -15  166.58    7.00
   0   4 -15  640.14   22.60
   0   4 -15  614.94   21.40
  -1   4 -15   84.29    5.90
  -1   4 -15   79.89    3.50
  -2   4 -15  266.07   11.40
  -3   4 -15  154.18    8.30
  -4   4 -15  112.09    7.80
  10   3 -15   16.60    3.50
   9   3 -15  221.38    8.50
   9   3 -15  222.28   10.20
   8   3 -15 1060.39   37.10
   8   3 -15 1119.09   38.00
   7   3 -15   22.00    3.10
   6   3 -15 2736.83   92.29
   5   3 -15  322.07   11.90
   5   3 -15  314.87   12.10
   4   3 -15  747.43   26.30
   4   3 -15  767.62   26.40
   3   3 -15  272.97   10.40
   3   3 -15  278.27   10.70
   2   3 -15   45.40    4.20
   2   3 -15   41.10    3.40
   1   3 -15   74.59    3.90
   1   3 -15   80.09    5.20
   0   3 -15   48.70    4.80
  -1   3 -15  127.09    5.10
  -1   3 -15  134.59    7.10
  -2   3 -15  660.83   24.00
  -3   3 -15  185.48    9.20
  11   2 -15  230.88   11.50
  10   2 -15  459.75   16.30
  10   2 -15  462.15   17.80
   9   2 -15  935.71   32.00
   8   2 -15   42.60    3.40
   7   2 -15  717.83   26.50
   6   2 -15  265.57   10.80
   6   2 -15  279.87   10.40
   5   2 -15  633.54   21.60
   5   2 -15  589.14   21.60
   4   2 -15  215.88    8.60
   4   2 -15  206.08    8.50
   3   2 -15  125.89    6.00
   3   2 -15  117.89    5.60
   2   2 -15  245.28    9.40
   2   2 -15  251.87   10.00
   1   2 -15  202.88    8.50
   1   2 -15  192.68    7.50
   0   2 -15   38.10    2.90
   0   2 -15   44.70    4.70
  -1   2 -15  947.41   31.90
  -1   2 -15  934.91   33.00
  -2   2 -15   10.10    3.20
  -3   2 -15  517.15   19.50
  10   1 -15  418.36   14.90
   9   1 -15  184.08    7.40
   8   1 -15  139.29    6.60
   7   1 -15   11.30    2.10
   6   1 -15   71.89    5.10
   6   1 -15   86.39    4.60
   5   1 -15  529.45   18.70
   5   1 -15  521.95   18.90
   4   1 -15  740.73   25.80
   4   1 -15  735.13   25.70
   3   1 -15  696.83   24.40
   3   1 -15  710.13   24.70
   2   1 -15  770.22   27.30
   2   1 -15  790.22   26.80
   1   1 -15   66.29    3.90
   1   1 -15   74.69    5.00
   0   1 -15  306.67   12.10
   0   1 -15  300.37   11.00
   0  -1  15  309.97   11.50
  -1   1 -15   95.19    4.70
  -1   1 -15  101.29    6.10
   1  -1  15   96.09    5.10
  -2   1 -15  149.39    7.70
   2  -1  15  143.89    6.50
  -3   1 -15  229.88   11.40
  11   0 -15  348.77   12.70
   9   0 -15   88.49    4.90
   8   0 -15  425.16   15.40
   7   0 -15    1.80    1.90
   6   0 -15 1186.88   39.90
   6   0 -15 1142.59   40.10
   5   0 -15  128.39    6.10
   5   0 -15  123.49    6.20
   4   0 -15 1017.20   36.20
   4   0 -15 1094.29   36.40
   3   0 -15 1014.90   34.60
   3   0 -15  987.50   34.30
   2   0 -15  170.98    7.10
   2   0 -15  188.68    7.90
  -2   0  15  171.58    7.80
   1   0 -15   43.60    4.40
   1   0 -15   38.40    3.30
  -1   0  15   42.60    4.20
   0   0 -15    5.40    2.50
   0   0 -15    3.10    1.70
   0   0  15    5.90    2.10
  -1   0 -15    7.50    2.50
   1   0  15   10.20    2.20
  -2   0 -15  207.18    9.70
   2   0  15  221.98    8.90
  12  -1 -15  467.95   17.30
  11  -1 -15  336.77   12.50
  10  -1 -15  275.27   10.60
   9  -1 -15 1145.19   39.20
   8  -1 -15  118.89    5.90
   7  -1 -15 1432.26   48.80
   6  -1 -15    2.80    2.20
   6  -1 -15    6.00    2.20
   5  -1 -15  465.25   17.50
   5  -1 -15  504.45   17.60
   4  -1 -15   30.50    4.10
   4  -1 -15   29.20    3.80
  -4   1  15   36.50    4.70
   3  -1 -15    6.50    2.00
   3  -1 -15   11.40    2.60
  -3   1  15    9.70    2.60
   2  -1 -15  259.27   10.00
   2  -1 -15  263.97   10.60
  -2   1  15  265.87   10.60
   1  -1 -15  594.04   21.70
   1  -1 -15  606.84   21.00
  -1   1  15  611.54   21.50
   0  -1 -15   21.10    3.00
   0  -1 -15   18.70    2.20
   0   1  15   20.40    2.70
  -1  -1 -15  200.58    9.30
   1   1  15  215.08    8.80
   2   1  15   28.10    4.70
  12  -2 -15  305.57   11.60
  11  -2 -15  897.01   31.00
  10  -2 -15 1366.66   46.60
   9  -2 -15   53.99    4.50
   8  -2 -15  289.87   11.30
   7  -2 -15   34.60    4.20
   6  -2 -15    5.90    2.30
   5  -2 -15  218.88    9.20
   5  -2 -15  207.38    9.00
  -5   2  15  229.18    9.80
   4  -2 -15  182.68    8.00
   4  -2 -15  187.18    8.40
  -4   2  15  205.08    8.90
   3  -2 -15  408.06   15.40
   3  -2 -15  437.06   15.90
  -3   2  15  436.16   16.00
   2  -2 -15 1103.69   38.00
   2  -2 -15 1106.19   38.50
  -2   2  15 1129.19   38.50
   1  -2 -15  298.27   11.20
   1  -2 -15  299.37   11.90
  -1   2  15  297.97   11.80
   0  -2 -15  466.65   16.50
   0  -2 -15  441.76   17.20
   0   2  15  478.05   17.10
  -1  -2 -15    3.30    3.40
   1   2  15    1.90    2.40
  12  -3 -15  547.45   19.60
  11  -3 -15  245.48    9.90
  10  -3 -15   29.10    4.30
   9  -3 -15  109.79    6.00
   8  -3 -15  344.37   13.10
   7  -3 -15   32.40    4.20
  -7   3  15   26.80    3.70
   6  -3 -15  688.43   24.60
  -6   3  15  698.13   25.10
  -5   3  15   75.49    6.20
   4  -3 -15  898.11   31.20
  -4   3  15  884.01   31.30
   3  -3 -15  327.57   13.50
   3  -3 -15  384.26   14.20
  -3   3  15  333.17   13.60
   2  -3 -15  260.67   10.80
   2  -3 -15  274.57   11.40
  -2   3  15  256.67   11.00
   1  -3 -15  413.26   16.50
  -1   3  15  470.05   16.70
   0  -3 -15   99.09    6.90
   0   3  15   94.09    6.30
   9  -4 -15 1636.04   55.69
  -8   4  15   23.50    3.80
   7  -4 -15 1480.35   49.50
  -7   4  15 1406.26   49.90
   6  -4 -15   14.00    2.80
  -6   4  15    8.70    3.10
   5  -4 -15  407.26   15.50
  -5   4  15  404.86   15.80
   4  -4 -15   17.00    3.30
  -4   4  15   19.80    3.30
   3  -4 -15   20.10    3.10
  -3   4  15   22.00    3.40
   2  -4 -15  256.07   11.10
  -2   4  15  278.17   11.40
  -1   4  15   80.39    6.30
  -9   5  15  172.08    9.80
   8  -5 -15  585.04   20.60
  -8   5  15  546.15   21.40
   7  -5 -15    7.20    2.80
  -7   5  15    5.80    3.30
   6  -5 -15   40.40    5.20
  -6   5  15   38.80    5.90
   5  -5 -15   48.80    5.50
  -5   5  15   61.69    6.20
   4  -5 -15   57.29    5.80
  -4   5  15   62.19    6.40
   3  -5 -15  166.88    8.80
  -3   5  15  186.58    9.10
  -2   5  15  123.99    7.70
 -10   6  15   67.79    7.90
  -9   6  15  109.09    8.40
  -8   6  15  287.47   13.00
   7  -6 -15   13.40    3.10
  -7   6  15   12.00    3.60
   6  -6 -15  609.54   22.00
  -6   6  15  595.44   22.50
   5  -6 -15   89.59    6.40
  -5   6  15   88.79    7.30
  -4   6  15  344.27   14.30
  -8   7  15    8.70    3.80
  -7   7  15  974.40   34.80
   3   9 -16  354.86   13.10
   3   9 -16  344.87   13.60
   2   9 -16   29.20    4.40
   2   9 -16   32.80    5.20
   1   9 -16  178.28    8.90
   0   9 -16   70.59    6.50
  -1   9 -16   52.99    6.60
  -2   9 -16  427.76   17.20
   5   8 -16  134.59    6.90
   5   8 -16  127.49    6.80
   4   8 -16  156.28    7.10
   4   8 -16  138.29    7.20
   4   8 -16  146.29    7.20
   3   8 -16   27.60    4.60
   3   8 -16   29.50    3.90
   2   8 -16 1257.77   43.60
   2   8 -16 1311.97   44.40
   1   8 -16  506.25   19.20
   1   8 -16  524.55   18.10
   0   8 -16  128.99    7.80
  -1   8 -16  801.02   28.90
  -2   8 -16  110.99    7.90
   6   7 -16   40.20    4.40
   6   7 -16   44.40    5.10
   5   7 -16  337.27   13.00
   5   7 -16  349.07   13.20
   4   7 -16    6.20    2.40
   4   7 -16    8.40    2.30
   4   7 -16    8.30    2.60
   3   7 -16 1768.42   60.49
   3   7 -16 1840.82   60.89
   3   7 -16 1754.72   60.49
   2   7 -16  389.86   15.50
   2   7 -16  388.96   14.60
   2   7 -16  443.46   16.20
   1   7 -16  595.14   20.80
   1   7 -16  602.94   21.90
   0   7 -16  887.51   31.50
  -1   7 -16  137.29    8.10
  -2   7 -16   82.19    7.00
  -3   7 -16    7.50    4.10
   7   6 -16  317.07   12.70
   6   6 -16  831.22   30.00
   6   6 -16  874.91   30.00
   5   6 -16    1.80    2.30
   5   6 -16    0.30    2.30
   5   6 -16    2.50    2.30
   4   6 -16  708.73   24.90
   4   6 -16  708.93   24.70
   4   6 -16  693.03   24.70
   3   6 -16   17.90    2.60
   3   6 -16   18.40    2.50
   3   6 -16   24.20    3.10
   2   6 -16  832.42   28.50
   2   6 -16  814.12   28.50
   2   6 -16  838.82   29.30
   1   6 -16  175.38    7.10
   1   6 -16  180.28    8.60
   0   6 -16   47.50    5.50
   0   6 -16   48.70    3.50
  -1   6 -16  241.18   10.90
  -2   6 -16  376.66   15.30
  -3   6 -16   62.69    8.20
   8   5 -16  590.14   21.60
   7   5 -16  780.42   27.50
   7   5 -16  767.72   26.80
   6   5 -16   15.10    2.50
   6   5 -16   12.80    2.70
   5   5 -16  124.99    6.20
   5   5 -16  117.29    6.40
   5   5 -16  118.39    6.30
   4   5 -16    7.30    2.30
   4   5 -16    9.10    2.30
   4   5 -16   10.50    2.60
   3   5 -16   44.50    4.10
   3   5 -16   45.20    3.90
   3   5 -16   49.20    4.70
   2   5 -16   51.89    4.00
   2   5 -16   52.69    5.00
   2   5 -16   53.99    4.00
   1   5 -16  495.45   18.20
   1   5 -16  483.95   17.20
   1   5 -16  490.95   17.20
   0   5 -16  708.63   25.70
   0   5 -16  719.53   24.50
  -1   5 -16  804.22   28.80
  -2   5 -16    7.70    3.50
   9   4 -16  407.26   16.00
   8   4 -16  666.63   23.10
   8   4 -16  656.63   24.00
   7   4 -16   12.30    2.90
   6   4 -16   77.39    4.80
   6   4 -16   77.19    5.50
   5   4 -16  457.95   16.90
   5   4 -16  467.35   16.80
   5   4 -16  455.55   16.90
   4   4 -16   43.10    4.30
   4   4 -16   42.50    4.00
   3   4 -16  666.73   23.30
   3   4 -16  668.73   23.70
   2   4 -16  216.18    9.20
   2   4 -16  209.28    8.30
   1   4 -16  939.21   32.50
   1   4 -16  973.50   33.50
   0   4 -16  605.64   22.10
  -1   4 -16   87.59    6.40
  -2   4 -16  360.86   14.60
   9   3 -16  371.46   14.90
   9   3 -16  375.36   13.60
   8   3 -16  372.96   14.60
   8   3 -16  406.86   15.30
   7   3 -16  392.66   14.30
   6   3 -16 2014.40   67.19
   6   3 -16 1938.91   66.79
   5   3 -16   15.70    2.50
   5   3 -16   26.10    3.70
   4   3 -16 1550.84   52.99
   4   3 -16 1567.64   53.09
   3   3 -16   10.50    2.10
   3   3 -16   11.10    2.50
   2   3 -16  423.16   15.40
   2   3 -16  398.06   14.70
   1   3 -16   24.10    3.30
   1   3 -16   20.70    2.90
   0   3 -16   98.39    6.30
  -1   3 -16  128.29    7.60
  -2   3 -16  518.75   19.60
  10   2 -16  387.06   15.60
   8   2 -16  502.55   17.90
   7   2 -16  620.34   21.80
   6   2 -16  119.99    5.60
   6   2 -16   95.09    6.00
   5   2 -16  677.23   23.50
   5   2 -16  654.63   23.50
   4   2 -16   19.60    2.50
   3   2 -16    6.10    2.00
   3   2 -16    8.60    2.40
   2   2 -16  140.19    6.90
   2   2 -16  138.49    6.10
   1   2 -16  235.48    9.80
   1   2 -16  222.18    8.60
   0   2 -16  167.68    8.30
  -1   2 -16  936.71   33.10
  -2   2 -16  357.66   16.10
  10   1 -16   43.00    3.70
   9   1 -16  554.74   19.60
   8   1 -16  170.58    7.30
   7   1 -16  155.68    7.00
   6   1 -16  236.28    9.30
   6   1 -16  224.98    9.80
   5   1 -16  722.23   25.40
   5   1 -16  721.53   25.30
   4   1 -16    3.90    2.10
   3   1 -16  539.35   19.30
   3   1 -16  524.85   18.80
   2   1 -16  377.96   14.00
   2   1 -16  355.46   13.30
   1   1 -16  356.36   13.70
   1   1 -16  348.37   12.70
   0   1 -16  319.87   12.80
  -1   1 -16  288.57   12.20
   1  -1  16  304.97   11.70
  11   0 -16  161.48    7.10
  10   0 -16  126.69    6.10
   9   0 -16   68.09    4.60
   8   0 -16   94.59    5.30
   7   0 -16   62.39    4.60
   6   0 -16 1453.15   49.60
   5   0 -16   37.40    4.10
   5   0 -16   23.60    4.20
   4   0 -16 1855.61   63.39
   4   0 -16 1892.01   63.59
   3   0 -16    3.70    2.00
   3   0 -16    7.70    2.50
   2   0 -16  379.66   14.00
   2   0 -16  392.46   14.70
  -2   0  16  389.36   14.60
   1   0 -16   45.70    3.80
   1   0 -16   48.20    4.90
   0   0 -16   13.20    2.90
   0   0  16   18.20    3.00
   1   0  16   62.29    5.10
  11  -1 -16    4.80    2.20
  10  -1 -16  706.03   24.80
   9  -1 -16  233.18    9.50
   8  -1 -16  252.17   10.20
   7  -1 -16  507.15   18.40
   6  -1 -16  211.48    9.00
   5  -1 -16  846.12   29.60
   5  -1 -16  827.12   29.30
   4  -1 -16   15.80    2.80
   4  -1 -16   11.80    2.40
  -4   1  16   14.10    3.10
   3  -1 -16  206.58    8.80
   3  -1 -16  228.88    9.50
  -3   1  16  231.18    9.70
   2  -1 -16  207.88    8.60
   2  -1 -16  211.38    9.40
  -2   1  16  226.98    9.40
   1  -1 -16  149.88    7.60
   1  -1 -16  148.49    6.60
  -1   1  16  153.78    7.40
   0  -1 -16  179.18    9.10
   0   1  16  187.08    8.20
  11  -2 -16  925.51   32.10
  10  -2 -16  171.88    7.80
   9  -2 -16  618.34   22.10
   8  -2 -16  338.07   13.10
   7  -2 -16  102.59    6.10
   6  -2 -16   56.19    5.10
   5  -2 -16   23.50    3.20
  -5   2  16   20.90    3.40
   4  -2 -16   63.29    5.30
  -4   2  16   71.69    6.10
   3  -2 -16  902.21   29.60
   3  -2 -16  780.22   29.40
  -3   2  16  823.92   29.40
   2  -2 -16  216.38    9.10
   2  -2 -16  231.98    9.90
  -2   2  16  233.98    9.90
   1  -2 -16  609.94   21.20
   1  -2 -16  561.54   21.70
  -1   2  16  624.04   21.60
  11  -3 -16  138.19    7.00
  10  -3 -16  319.67   12.50
   9  -3 -16  152.58    7.50
   8  -3 -16    3.60    2.70
   7  -3 -16  174.18    8.30
   6  -3 -16  283.57   11.60
  -6   3  16  279.07   12.10
   5  -3 -16   48.10    5.30
  -5   3  16   49.99    5.90
   4  -3 -16  907.31   32.50
  -4   3  16  949.71   32.80
   3  -3 -16   11.70    3.00
  -3   3  16   15.40    3.20
  -2   3  16  584.94   21.30
  10  -4 -16  312.37   12.50
   9  -4 -16  204.38    9.30
   8  -4 -16  444.86   16.30
  -8   4  16  413.16   17.20
   7  -4 -16  664.03   23.40
  -7   4  16  631.74   23.90
   6  -4 -16   23.00    3.50
  -6   4  16   22.90    3.90
   5  -4 -16  480.35   18.50
  -5   4  16  505.15   18.80
   4  -4 -16    7.50    2.90
  -4   4  16    7.00    3.20
  -3   4  16  324.27   13.30
   9  -5 -16  822.42   28.10
  -9   5  16  758.22   29.10
   8  -5 -16  376.06   14.70
  -8   5  16  372.96   15.60
   7  -5 -16   99.49    6.70
  -7   5  16   96.39    7.80
   6  -5 -16  155.88    8.40
  -6   5  16  158.18    9.10
  -5   5  16    7.00    3.20
   3   8 -17  106.89    5.70
   3   8 -17  104.29    6.70
   2   8 -17  887.61   31.50
   1   8 -17   28.60    4.10
   0   8 -17  386.46   15.70
   5   7 -17  103.89    6.30
   5   7 -17   98.49    6.10
   4   7 -17  241.98    9.90
   4   7 -17  239.08   10.20
   3   7 -17 1096.29   37.60
   3   7 -17 1100.99   38.30
   2   7 -17    8.60    3.30
   2   7 -17    8.20    2.20
   1   7 -17 1016.40   35.80
   0   7 -17   70.09    6.70
  -1   7 -17  256.27   11.80
   6   6 -17  179.98    8.60
   6   6 -17  180.18    8.10
   5   6 -17  511.25   18.70
   5   6 -17  514.85   18.70
   4   6 -17  368.16   13.90
   4   6 -17  367.46   13.90
   4   6 -17  371.96   14.20
   3   6 -17  167.58    8.20
   3   6 -17  160.88    7.40
   2   6 -17  992.90   33.70
   2   6 -17  975.50   34.60
   1   6 -17   32.60    4.10
   0   6 -17    9.30    3.50
  -1   6 -17  118.39    8.10
   7   5 -17  354.66   13.40
   7   5 -17  358.16   14.20
   6   5 -17  325.07   12.90
   6   5 -17  325.97   12.50
   5   5 -17   80.49    5.50
   5   5 -17   86.29    5.60
   5   5 -17   78.99    5.40
   4   5 -17   34.70    4.80
   4   5 -17   30.30    4.40
   4   5 -17   27.80    4.10
   3   5 -17  121.39    7.00
   3   5 -17  127.89    6.70
   2   5 -17  161.58    8.40
   2   5 -17  171.28    7.20
   1   5 -17    1.90    2.80
   1   5 -17    2.90    2.30
   0   5 -17  669.13   24.40
  -1   5 -17  352.56   14.60
   8   4 -17  266.17   10.50
   8   4 -17  263.37   11.40
   7   4 -17   50.49    5.60
   7   4 -17   46.10    4.30
   6   4 -17  476.85   17.70
   6   4 -17  472.55   17.20
   5   4 -17   81.79    5.50
   5   4 -17   79.49    5.30
   5   4 -17   68.79    5.20
   4   4 -17   32.60    4.30
   4   4 -17   36.50    4.60
   3   4 -17  378.46   13.90
   3   4 -17  374.66   14.50
   2   4 -17   12.30    3.00
   1   4 -17  895.21   31.60
   0   4 -17  100.99    7.20
  -1   4 -17  410.36   16.40
   8   3 -17    5.30    3.10
   8   3 -17    6.30    2.20
   7   3 -17  621.84   22.00
   6   3 -17  610.14   21.70
   5   3 -17  110.49    6.30
   5   3 -17  123.69    6.30
   4   3 -17  870.21   30.30
   4   3 -17  859.51   30.00
   3   3 -17  123.29    6.70
   3   3 -17  117.09    6.00
   2   3 -17  516.95   19.10
   1   3 -17    5.00    3.00
   0   3 -17  263.67   11.40
   9   2 -17    5.70    2.10
   8   2 -17  783.42   27.30
   7   2 -17   94.69    5.40
   6   2 -17  978.70   33.90
   5   2 -17  888.41   31.40
   5   2 -17  919.21   31.50
   4   2 -17    4.80    2.30
   4   2 -17    8.50    2.50
   3   2 -17  174.78    7.70
   3   2 -17  180.58    8.20
   2   2 -17   17.30    3.00
   2   2 -17   19.30    3.40
   1   2 -17   13.50    2.90
   0   2 -17  294.47   12.30
   9   1 -17  998.10   34.40
   8   1 -17  111.09    5.80
   7   1 -17  541.45   19.50
   6   1 -17  633.24   22.50
   5   1 -17   -0.80    2.40
   5   1 -17    1.60    2.40
   4   1 -17   65.49    5.10
   4   1 -17   56.59    4.60
   3   1 -17  590.14   20.90
   3   1 -17  596.94   21.50
   2   1 -17   10.30    2.70
   2   1 -17   11.30    2.90
   1   1 -17  372.16   14.50
   9   0 -17   11.80    2.50
   8   0 -17   28.30    4.20
   7   0 -17  134.49    6.80
   6   0 -17   50.09    4.80
   5   0 -17  389.36   14.70
   4   0 -17  960.50   32.80
   4   0 -17  917.61   32.50
   3   0 -17   13.30    2.30
   3   0 -17   15.90    2.90
   2   0 -17  724.13   25.90
   1   0 -17    4.30    3.10
  -1   0  17    1.30    2.50
   9  -1 -17   14.70    2.80
   8  -1 -17  321.47   12.60
   7  -1 -17  200.18    8.90
   6  -1 -17  883.01   30.90
   5  -1 -17  392.76   15.00
   4  -1 -17   51.99    5.10
   3  -1 -17  551.24   21.90
   3  -1 -17  687.13   22.60
  -3   1  17  589.74   22.00
   2  -1 -17   20.80    3.40
  -2   1  17   21.50    3.20
   9  -2 -17  727.33   25.80
   8  -2 -17   74.79    5.70
   7  -2 -17  591.34   21.50
   6  -2 -17   54.49    5.30
   5  -2 -17   96.99    6.20
  -5   2  17   84.49    7.00
   4  -2 -17  290.67   12.10
  -4   2  17  302.07   12.40
   3  -2 -17  262.47   11.90
  -3   2  17  262.77   11.30
   9  -3 -17   68.49    5.80
   8  -3 -17   92.49    6.50
   7  -3 -17   51.39    5.60
   6  -3 -17   10.60    3.30
  -6   3  17   11.00    3.60
   5  -3 -17  213.88    9.80
  -5   3  17  210.88   10.30
  -4   3  17  266.27   11.70
   7  -4 -17  126.29    7.50
   5   5 -18   20.40    3.10
   5   5 -18   24.50    3.30
   4   5 -18  329.67   13.30
   4   5 -18  340.97   12.90
   3   5 -18  169.38    8.70
   3   5 -18  175.18    7.70
   2   5 -18    5.00    3.20
   6   4 -18   53.29    5.70
   6   4 -18   53.39    4.90
   5   4 -18   34.50    4.90
   5   4 -18   36.30    5.10
   4   4 -18   99.69    6.50
   3   4 -18   74.89    6.00
   2   4 -18  281.87   12.00
   1   4 -18  555.84   20.70
   7   3 -18  267.37   10.80
   6   3 -18   87.09    5.70
   5   3 -18  433.46   16.30
   4   3 -18  151.88    7.80
   3   3 -18  420.46   16.10
   2   3 -18  223.78   10.20
   7   2 -18    4.60    2.50
   6   2 -18 1350.56   46.30
   5   2 -18  199.88    8.90
   4   2 -18  632.84   22.40
   4   2 -18  530.15   21.00
   3   2 -18   18.70    3.10
   2   2 -18   16.30    3.50
   7   1 -18  636.44   22.80
   6   1 -18  274.37   11.20
   5   1 -18   95.19    6.20
   4   1 -18  145.69    7.50
   3   1 -18   10.80    3.00
   7   0 -18    6.80    2.80
   6   0 -18    9.20    2.80
   5   0 -18  883.21   31.00
   4   0 -18  130.59    7.20
   7  -1 -18   82.89    6.00
   6  -1 -18  671.03   24.10
   5  -1 -18   44.70    5.20

_computing_structure_solution     'SHELXT 2014/4 (Sheldrick, 2014)'
_computing_structure_solution     'SHELXT 2014/4 (Sheldrick, 2014)'
;
_shelx_hkl_checksum              66489
loop_
_space_group_symop_operation_xyz
'x, y, z'
'-x, -y, -z'
loop_
_atom_site_label
_atom_site_type_symbol
_atom_site_fract_x
_atom_site_fract_y
_atom_site_fract_z
_atom_site_U_iso_or_equiv
_atom_site_adp_type
_atom_site_occupancy
_atom_site_site_symmetry_order
_atom_site_calc_flag
_atom_site_refinement_flags_posn
_atom_site_refinement_flags_adp
_atom_site_refinement_flags_occupancy
_atom_site_disorder_assembly
_atom_site_disorder_group
C1 C 0.0587(2) 0.4171(2) 0.58234(18) 0.0154(5) Uani 1 1 d . . . . .
C2 C 0.0506(3) 0.4119(2) 0.67085(19) 0.0210(6) Uani 1 1 d . . . . .
H1 H -0.0178 0.3587 0.6810 0.025 Uiso 1 1 calc R U . . .
C3 C 0.1614(3) 0.4992(2) 0.73847(18) 0.0202(6) Uani 1 1 d . . . . .
H2 H 0.1847 0.5179 0.8051 0.024 Uiso 1 1 calc R U . . .
C4 C 0.2359(2) 0.5572(2) 0.69088(17) 0.0149(5) Uani 1 1 d . . . . .
C5 C 0.3580(2) 0.6445(2) 0.72645(17) 0.0150(5) Uani 1 1 d . . . . .
C6 C 0.4146(2) 0.6908(2) 0.66683(17) 0.0140(5) Uani 1 1 d . . . . .
C7 C 0.5348(2) 0.7890(2) 0.69777(18) 0.0187(5) Uani 1 1 d . . . . .
H3 H 0.5925 0.8297 0.7617 0.022 Uiso 1 1 calc R U . . .
C8 C 0.5521(2) 0.8140(2) 0.61944(18) 0.0185(5) Uani 1 1 d . . . . .
H4 H 0.6225 0.8758 0.6180 0.022 Uiso 1 1 calc R U . . .
C9 C 0.4442(2) 0.7292(2) 0.54117(17) 0.0131(5) Uani 1 1 d . . . . .
C10 C 0.3111(2) 0.5823(2) 0.34745(17) 0.0142(5) Uani 1 1 d . . . . .
C11 C 0.2997(2) 0.5372(2) 0.25490(18) 0.0188(5) Uani 1 1 d . . . . .
H5 H 0.3500 0.5755 0.2237 0.023 Uiso 1 1 calc R U . . .
C12 C 0.2010(3) 0.4266(2) 0.21898(18) 0.0181(5) Uani 1 1 d . . . . .
H6 H 0.1714 0.3730 0.1584 0.022 Uiso 1 1 calc R U . . .
C13 C 0.1519(2) 0.4073(2) 0.28860(17) 0.0143(5) Uani 1 1 d . . . . .
C14 C 0.0445(2) 0.3070(2) 0.27695(17) 0.0144(5) Uani 1 1 d . . . . .
C15 C -0.0053(2) 0.2978(2) 0.34503(17) 0.0152(5) Uani 1 1 d . . . . .
C16 C -0.1111(2) 0.2034(2) 0.34674(18) 0.0181(5) Uani 1 1 d . . . . .
H7 H -0.1686 0.1332 0.2964 0.022 Uiso 1 1 calc R U . . .
C17 C -0.1142(2) 0.2327(2) 0.43413(18) 0.0190(5) Uani 1 1 d . . . . .
H8 H -0.1742 0.1878 0.4559 0.023 Uiso 1 1 calc R U . . .
C18 C -0.0088(2) 0.3445(2) 0.48582(17) 0.0157(5) Uani 1 1 d . . . . .
C19 C 0.4293(2) 0.6900(2) 0.83191(17) 0.0166(5) Uani 1 1 d . . . . .
C20 C 0.4449(3) 0.7944(2) 0.88451(19) 0.0243(6) Uani 1 1 d . . . . .
C21 C 0.5048(3) 0.8292(3) 0.9832(2) 0.0293(7) Uani 1 1 d . . . . .
H9 H 0.5148 0.8996 1.0195 0.035 Uiso 1 1 calc R U . . .
C22 C 0.5496(3) 0.7655(3) 1.02956(19) 0.0302(7) Uani 1 1 d . . . . .
C23 C 0.5354(3) 0.6633(3) 0.97597(19) 0.0268(6) Uani 1 1 d . . . . .
H10 H 0.5676 0.6193 1.0073 0.032 Uiso 1 1 calc R U . . .
C24 C 0.4750(3) 0.6233(2) 0.87725(18) 0.0213(6) Uani 1 1 d . . . . .
C25 C 0.4005(3) 0.8697(3) 0.8380(2) 0.0358(8) Uani 1 1 d . . . . .
H11 H 0.3605 0.8977 0.8734 0.054 Uiso 1 1 calc R U . . .
H12 H 0.3404 0.8243 0.7727 0.054 Uiso 1 1 calc R U . . .
H13 H 0.4717 0.9361 0.8376 0.054 Uiso 1 1 calc R U . . .
C26 C 0.6171(4) 0.8083(3) 1.1369(2) 0.0477(10) Uani 1 1 d . . . . .
H14 H 0.6884 0.8857 1.1565 0.072 Uiso 1 1 calc R U . . .
H15 H 0.6464 0.7545 1.1574 0.072 Uiso 1 1 calc R U . . .
H16 H 0.5599 0.8123 1.1659 0.072 Uiso 1 1 calc R U . . .
C27 C 0.4616(3) 0.5118(3) 0.8217(2) 0.0327(7) Uani 1 1 d . . . . .
H17 H 0.5159 0.4881 0.8630 0.049 Uiso 1 1 calc R U . . .
H18 H 0.4854 0.5240 0.7683 0.049 Uiso 1 1 calc R U . . .
H19 H 0.3749 0.4510 0.7979 0.049 Uiso 1 1 calc R U . . .
C28 C -0.0163(2) 0.2039(2) 0.19051(17) 0.0161(5) Uani 1 1 d . . . . .
C29 C 0.0164(3) 0.1155(2) 0.19572(19) 0.0229(6) Uani 1 1 d . . . . .
C30 C -0.0450(3) 0.0156(2) 0.1176(2) 0.0283(7) Uani 1 1 d . . . . .
H20 H -0.0227 -0.0445 0.1213 0.034 Uiso 1 1 calc R U . . .
C31 C -0.1372(3) 0.0013(3) 0.0352(2) 0.0279(7) Uani 1 1 d . . . . .
C32 C -0.1673(3) 0.0908(3) 0.03196(19) 0.0271(7) Uani 1 1 d . . . . .
H21 H -0.2302 0.0827 -0.0242 0.033 Uiso 1 1 calc R U . . .
C33 C -0.1090(3) 0.1917(3) 0.10767(18) 0.0224(6) Uani 1 1 d . . . . .
C34 C 0.1193(3) 0.1289(3) 0.2833(2) 0.0382(8) Uani 1 1 d . . . . .
H22 H 0.1958 0.1998 0.2968 0.057 Uiso 1 1 calc R U . . .
H23 H 0.1338 0.0616 0.2726 0.057 Uiso 1 1 calc R U . . .
H24 H 0.0949 0.1339 0.3373 0.057 Uiso 1 1 calc R U . . .
C35 C -0.2012(3) -0.1071(3) -0.0486(2) 0.0421(9) Uani 1 1 d . . . . .
H25 H -0.1555 -0.1516 -0.0388 0.063 Uiso 1 1 calc R U . . .
H26 H -0.2030 -0.0855 -0.1064 0.063 Uiso 1 1 calc R U . . .
H27 H -0.2866 -0.1546 -0.0549 0.063 Uiso 1 1 calc R U . . .
C36 C -0.1429(3) 0.2878(3) 0.1017(2) 0.0381(8) Uani 1 1 d . . . . .
H28 H -0.0725 0.3561 0.1024 0.057 Uiso 1 1 calc R U . . .
H29 H -0.1626 0.3081 0.1560 0.057 Uiso 1 1 calc R U . . .
H30 H -0.2156 0.2618 0.0428 0.057 Uiso 1 1 calc R U . . .
C37 C 0.5614(2) 0.7741(2) 0.40875(17) 0.0139(5) Uani 1 1 d . . . . .
C38 C 0.6164(2) 0.8753(2) 0.38387(16) 0.0143(5) Uani 1 1 d . . . . .
C39 C 0.7311(2) 0.9045(2) 0.37746(17) 0.0170(5) Uani 1 1 d . . . . .
H31 H 0.7693 0.9727 0.3613 0.020 Uiso 1 1 calc R U . . .
C40 C 0.7914(2) 0.8390(2) 0.39352(18) 0.0202(6) Uani 1 1 d . . . . .
C41 C 0.7370(3) 0.7407(2) 0.41882(19) 0.0216(6) Uani 1 1 d . . . . .
H32 H 0.7782 0.6953 0.4307 0.026 Uiso 1 1 calc R U . . .
C42 C 0.6232(2) 0.7069(2) 0.42722(18) 0.0180(5) Uani 1 1 d . . . . .
C43 C 0.5611(3) 0.9548(2) 0.3639(2) 0.0228(6) Uani 1 1 d . . . . .
H33 H 0.6153 1.0169 0.3458 0.034 Uiso 1 1 calc R U . . .
H34 H 0.5536 0.9888 0.4208 0.034 Uiso 1 1 calc R U . . .
H35 H 0.4785 0.9104 0.3120 0.034 Uiso 1 1 calc R U . . .
C44 C 0.9140(3) 0.8724(3) 0.3832(3) 0.0328(7) Uani 1 1 d . . . . .
H36 H 0.9718 0.8657 0.4371 0.049 Uiso 1 1 calc R U . . .
H37 H 0.9495 0.9526 0.3816 0.049 Uiso 1 1 calc R U . . .
H38 H 0.9001 0.8204 0.3242 0.049 Uiso 1 1 calc R U . . .
C45 C 0.5730(3) 0.6000(2) 0.4569(2) 0.0265(6) Uani 1 1 d . . . . .
H39 H 0.4894 0.5441 0.4095 0.040 Uiso 1 1 calc R U . . .
H40 H 0.5687 0.6215 0.5185 0.040 Uiso 1 1 calc R U . . .
H41 H 0.6281 0.5648 0.4621 0.040 Uiso 1 1 calc R U . . .
N1 N 0.16760(19) 0.50480(17) 0.59486(14) 0.0132(4) Uani 1 1 d . . . . .
N2 N 0.35981(19) 0.65404(17) 0.56734(14) 0.0127(4) Uani 1 1 d . . . . .
N3 N 0.22313(18) 0.50566(17) 0.36957(14) 0.0124(4) Uani 1 1 d . . . . .
N4 N 0.05264(19) 0.38301(18) 0.43084(14) 0.0138(4) Uani 1 1 d . . . . .
Ni1 Ni 0.20504(3) 0.51837(2) 0.48869(2) 0.01047(7) Uani 1 1 d . . . . .
P1 P 0.41360(6) 0.72955(5) 0.42119(4) 0.01242(13) Uani 1 1 d . . . . .
Au1 Au 0.30451(2) 0.82462(2) 0.38869(2) 0.01640(5) Uani 1 1 d . . . . .
Cl1 Cl 0.17938(7) 0.90937(6) 0.35852(6) 0.03364(18) Uani 1 1 d . . . . .
Cl2 Cl 0.77744(19) 0.54199(18) 0.01942(13) 0.0489(6) Uani 0.483(3) 1 d . . P A
1
C46 C 0.8896(9) 0.6803(7) 0.1084(6) 0.040(2) Uani 0.483(3) 1 d . . P A 1
H42 H 0.8606 0.7381 0.0974 0.048 Uiso 0.483(3) 1 calc R U P A 1
H43 H 0.8933 0.6726 0.1715 0.048 Uiso 0.483(3) 1 calc R U P A 1
C47 C 1.020(3) 0.725(3) 0.1093(19) 0.052(6) Uani 0.483(3) 1 d . . P A 1
H44 H 1.0752 0.8022 0.1581 0.062 Uiso 0.483(3) 1 calc R U P A 1
H45 H 1.0171 0.7352 0.0470 0.062 Uiso 0.483(3) 1 calc R U P A 1
Cl3 Cl 1.0807(3) 0.6305(3) 0.1334(2) 0.0511(7) Uani 0.483(3) 1 d . . P A 1
Cl4 Cl 0.8828(3) 0.6249(4) 0.0635(2) 0.0918(12) Uani 0.517(3) 1 d . . P A 2
C48 C 1.043(3) 0.721(3) 0.102(2) 0.077(10) Uani 0.517(3) 1 d . . P A 2
H46 H 1.0573 0.7618 0.0548 0.092 Uiso 0.517(3) 1 calc R U P A 2
H47 H 1.0717 0.7805 0.1628 0.092 Uiso 0.517(3) 1 calc R U P A 2
C49 C 1.1179(14) 0.6567(13) 0.1155(9) 0.058(4) Uani 0.517(3) 1 d . . P A 2
H48 H 1.0868 0.5948 0.0557 0.070 Uiso 0.517(3) 1 calc R U P A 2
H49 H 1.1075 0.6196 0.1653 0.070 Uiso 0.517(3) 1 calc R U P A 2
Cl5 Cl 1.2768(2) 0.75246(18) 0.14839(12) 0.0553(6) Uani 0.517(3) 1 d . . P A 2
loop_
_atom_site_aniso_label
_atom_site_aniso_U_11
_atom_site_aniso_U_22
_atom_site_aniso_U_33
_atom_site_aniso_U_23
_atom_site_aniso_U_13
_atom_site_aniso_U_12
C1 0.0138(12) 0.0144(12) 0.0181(12) 0.0051(10) 0.0083(10) 0.0055(10)
C2 0.0214(13) 0.0203(14) 0.0207(13) 0.0055(11) 0.0152(11) 0.0046(11)
C3 0.0223(13) 0.0201(13) 0.0160(12) 0.0038(10) 0.0122(11) 0.0055(11)
C4 0.0175(12) 0.0128(12) 0.0136(11) 0.0033(9) 0.0078(10) 0.0056(10)
C5 0.0184(12) 0.0138(12) 0.0156(12) 0.0043(10) 0.0072(10) 0.0100(10)
C6 0.0133(12) 0.0118(12) 0.0148(11) 0.0037(9) 0.0054(10) 0.0044(10)
C7 0.0146(12) 0.0173(13) 0.0164(12) 0.0037(10) 0.0031(10) 0.0031(11)
C8 0.0113(12) 0.0147(12) 0.0225(13) 0.0084(10) 0.0048(10) 0.0003(10)
C9 0.0147(12) 0.0117(12) 0.0155(11) 0.0062(9) 0.0074(10) 0.0070(10)
C10 0.0130(12) 0.0110(12) 0.0183(12) 0.0066(10) 0.0066(10) 0.0044(10)
C11 0.0236(13) 0.0180(13) 0.0209(12) 0.0100(10) 0.0157(11) 0.0091(11)
C12 0.0222(13) 0.0187(13) 0.0147(12) 0.0046(10) 0.0090(11) 0.0096(11)
C13 0.0149(12) 0.0141(12) 0.0133(11) 0.0041(9) 0.0046(10) 0.0070(10)
C14 0.0151(12) 0.0128(12) 0.0139(11) 0.0064(9) 0.0036(10) 0.0061(10)
C15 0.0131(12) 0.0136(12) 0.0140(11) 0.0037(9) 0.0028(10) 0.0038(10)
C16 0.0156(12) 0.0142(12) 0.0170(12) 0.0040(10) 0.0048(10) 0.0017(10)
C17 0.0147(12) 0.0163(13) 0.0209(13) 0.0061(10) 0.0082(11) 0.0017(11)
C18 0.0130(12) 0.0142(12) 0.0176(12) 0.0046(10) 0.0077(10) 0.0033(10)
C19 0.0145(12) 0.0147(12) 0.0157(12) 0.0023(10) 0.0074(10) 0.0023(10)
C20 0.0219(14) 0.0194(14) 0.0201(13) -0.0015(11) 0.0041(11) 0.0051(12)
C21 0.0331(16) 0.0249(15) 0.0190(13) -0.0034(11) 0.0071(12) 0.0095(13)
C22 0.0304(16) 0.0323(16) 0.0137(13) 0.0016(12) 0.0058(12) 0.0058(13)
C23 0.0301(15) 0.0287(15) 0.0168(13) 0.0100(11) 0.0069(12) 0.0104(13)
C24 0.0248(14) 0.0194(13) 0.0166(12) 0.0058(10) 0.0096(11) 0.0065(12)
C25 0.0448(19) 0.0266(16) 0.0278(15) -0.0031(13) 0.0036(14) 0.0213(15)
C26 0.060(2) 0.048(2) 0.0143(14) -0.0009(14) 0.0034(15) 0.0176(19)
C27 0.050(2) 0.0308(17) 0.0229(14) 0.0080(12) 0.0105(14) 0.0269(15)
C28 0.0124(12) 0.0156(12) 0.0144(12) 0.0028(10) 0.0069(10) 0.0008(10)
C29 0.0217(14) 0.0165(13) 0.0248(14) 0.0047(11) 0.0066(11) 0.0062(11)
C30 0.0259(15) 0.0155(14) 0.0363(16) 0.0000(12) 0.0122(13) 0.0059(12)
C31 0.0175(13) 0.0250(15) 0.0273(14) -0.0042(12) 0.0112(12) 0.0002(12)
C32 0.0181(14) 0.0352(17) 0.0154(13) -0.0007(12) 0.0031(11) 0.0066(13)
C33 0.0203(14) 0.0273(15) 0.0160(12) 0.0037(11) 0.0072(11) 0.0090(12)
C34 0.0423(19) 0.0258(16) 0.0361(17) 0.0051(13) -0.0010(15) 0.0199(15)
C35 0.0295(17) 0.0321(18) 0.0375(17) -0.0140(14) 0.0109(14) 0.0003(14)
C36 0.0406(19) 0.045(2) 0.0243(15) 0.0027(14) -0.0002(14) 0.0288(17)
C37 0.0110(11) 0.0127(12) 0.0160(11) 0.0043(9) 0.0070(10) 0.0027(10)
C38 0.0144(12) 0.0118(12) 0.0129(11) 0.0031(9) 0.0058(9) 0.0027(10)
C39 0.0168(12) 0.0120(12) 0.0167(12) 0.0043(9) 0.0085(10) 0.0006(10)
C40 0.0148(13) 0.0210(13) 0.0224(13) 0.0044(11) 0.0099(11) 0.0053(11)
C41 0.0206(13) 0.0236(14) 0.0287(14) 0.0115(11) 0.0129(12) 0.0144(12)
C42 0.0179(13) 0.0154(13) 0.0218(13) 0.0076(10) 0.0092(10) 0.0073(11)
C43 0.0228(14) 0.0184(13) 0.0373(15) 0.0179(12) 0.0189(12) 0.0107(12)
C44 0.0220(15) 0.0326(17) 0.0527(19) 0.0183(15) 0.0242(14) 0.0126(14)
C45 0.0270(15) 0.0250(15) 0.0451(17) 0.0241(13) 0.0212(13) 0.0187(13)
N1 0.0123(10) 0.0104(10) 0.0144(10) 0.0027(8) 0.0067(8) 0.0025(8)
N2 0.0140(10) 0.0128(10) 0.0136(10) 0.0062(8) 0.0071(8) 0.0066(9)
N3 0.0127(10) 0.0107(10) 0.0136(9) 0.0054(8) 0.0057(8) 0.0045(8)
N4 0.0128(10) 0.0138(10) 0.0134(10) 0.0047(8) 0.0059(8) 0.0043(9)
Ni1 0.00978(15) 0.00928(15) 0.01059(14) 0.00342(11) 0.00486(12) 0.00222(12)
P1 0.0125(3) 0.0112(3) 0.0152(3) 0.0068(2) 0.0074(2) 0.0048(3)
Au1 0.01460(7) 0.01453(7) 0.02659(7) 0.01133(4) 0.01227(5) 0.00819(5)
Cl1 0.0218(3) 0.0273(4) 0.0695(5) 0.0278(4) 0.0255(4) 0.0180(3)
Cl2 0.0447(12) 0.0580(12) 0.0382(10) 0.0183(9) 0.0128(8) 0.0205(10)
C46 0.059(5) 0.036(4) 0.036(4) 0.022(3) 0.029(4) 0.021(4)
C47 0.063(7) 0.048(8) 0.041(10) 0.022(7) 0.015(8) 0.024(7)
Cl3 0.0550(17) 0.0641(19) 0.0422(15) 0.0188(12) 0.0172(11) 0.0363(15)
Cl4 0.072(2) 0.150(4) 0.077(2) 0.077(2) 0.0445(18) 0.048(2)
C48 0.14(2) 0.082(11) 0.053(8) 0.046(8) 0.067(12) 0.059(12)
C49 0.080(10) 0.066(8) 0.041(6) 0.030(5) 0.028(5) 0.038(7)
Cl5 0.0624(12) 0.0596(12) 0.0281(8) 0.0187(8) 0.0081(8) 0.0198(10)
loop_
_atom_type_symbol
_atom_type_description
_atom_type_scat_dispersion_real
_atom_type_scat_dispersion_imag
_atom_type_scat_source
C C 0.0033 0.0016 'International Tables Vol C Tables 4.2.6.8 and 6.1.1.4'
H H 0.0000 0.0000 'International Tables Vol C Tables 4.2.6.8 and 6.1.1.4'
N N 0.0061 0.0033 'International Tables Vol C Tables 4.2.6.8 and 6.1.1.4'
P P 0.1023 0.0942 'International Tables Vol C Tables 4.2.6.8 and 6.1.1.4'
Cl Cl 0.1484 0.1585 'International Tables Vol C Tables 4.2.6.8 and 6.1.1.4'
Ni Ni 0.3393 1.1124 'International Tables Vol C Tables 4.2.6.8 and 6.1.1.4'
Au Au -2.0133 8.8022 'International Tables Vol C Tables 4.2.6.8 and 6.1.1.4'
loop_
_geom_angle_atom_site_label_1
_geom_angle_atom_site_label_2
_geom_angle_atom_site_label_3
_geom_angle
N1 C1 C2 110.7(2)
N1 C1 C18 111.6(2)
C2 C1 C18 136.9(2)
C3 C2 C1 105.8(2)
C3 C2 H1 127.1
C1 C2 H1 127.1
C2 C3 C4 107.8(2)
C2 C3 H2 126.1
C4 C3 H2 126.1
N1 C4 C5 121.3(2)
N1 C4 C3 107.9(2)
C5 C4 C3 130.6(2)
C4 C5 C6 121.8(2)
C4 C5 C19 118.0(2)
C6 C5 C19 120.2(2)
C5 C6 N2 126.0(2)
C5 C6 C7 125.3(2)
N2 C6 C7 108.5(2)
C8 C7 C6 108.0(2)
C8 C7 H3 126.0
C6 C7 H3 126.0
C7 C8 C9 105.8(2)
C7 C8 H4 127.1
C9 C8 H4 127.1
N2 C9 C8 112.5(2)
N2 C9 P1 123.22(18)
C8 C9 P1 123.92(19)
N3 C10 C11 111.8(2)
N3 C10 P1 122.87(19)
C11 C10 P1 124.72(19)
C12 C11 C10 106.2(2)
C12 C11 H5 126.9
C10 C11 H5 126.9
C11 C12 C13 107.4(2)
C11 C12 H6 126.3
C13 C12 H6 126.3
N3 C13 C12 109.5(2)
N3 C13 C14 125.3(2)
C12 C13 C14 125.1(2)
C15 C14 C13 122.2(2)
C15 C14 C28 117.8(2)
C13 C14 C28 119.9(2)
N4 C15 C14 121.5(2)
N4 C15 C16 108.0(2)
C14 C15 C16 130.3(2)
C17 C16 C15 107.6(2)
C17 C16 H7 126.2
C15 C16 H7 126.2
C16 C17 C18 106.0(2)
C16 C17 H8 127.0
C18 C17 H8 127.0
N4 C18 C17 110.2(2)
N4 C18 C1 111.9(2)
C17 C18 C1 137.0(2)
C20 C19 C24 120.7(2)
C20 C19 C5 120.4(2)
C24 C19 C5 118.9(2)
C21 C20 C19 118.3(3)
C21 C20 C25 119.6(3)
C19 C20 C25 122.0(2)
C22 C21 C20 122.3(3)
C22 C21 H9 118.8
C20 C21 H9 118.8
C21 C22 C23 118.5(3)
C21 C22 C26 120.6(3)
C23 C22 C26 120.9(3)
C22 C23 C24 121.8(3)
C22 C23 H10 119.1
C24 C23 H10 119.1
C23 C24 C19 118.4(3)
C23 C24 C27 120.1(3)
C19 C24 C27 121.5(2)
C20 C25 H11 109.5
C20 C25 H12 109.5
H11 C25 H12 109.5
C20 C25 H13 109.5
H11 C25 H13 109.5
H12 C25 H13 109.5
C22 C26 H14 109.5
C22 C26 H15 109.5
H14 C26 H15 109.5
C22 C26 H16 109.5
H14 C26 H16 109.5
H15 C26 H16 109.5
C24 C27 H17 109.5
C24 C27 H18 109.5
H17 C27 H18 109.5
C24 C27 H19 109.5
H17 C27 H19 109.5
H18 C27 H19 109.5
C29 C28 C33 120.0(2)
C29 C28 C14 118.3(2)
C33 C28 C14 121.6(2)
C28 C29 C30 119.0(3)
C28 C29 C34 120.7(2)
C30 C29 C34 120.3(3)
C31 C30 C29 122.1(3)
C31 C30 H20 118.9
C29 C30 H20 118.9
C30 C31 C32 117.6(3)
C30 C31 C35 121.0(3)
C32 C31 C35 121.4(3)
C31 C32 C33 122.4(3)
C31 C32 H21 118.8
C33 C32 H21 118.8
C32 C33 C28 118.9(3)
C32 C33 C36 121.2(3)
C28 C33 C36 119.9(2)
C29 C34 H22 109.5
C29 C34 H23 109.5
H22 C34 H23 109.5
C29 C34 H24 109.5
H22 C34 H24 109.5
H23 C34 H24 109.5
C31 C35 H25 109.5
C31 C35 H26 109.5
H25 C35 H26 109.5
C31 C35 H27 109.5
H25 C35 H27 109.5
H26 C35 H27 109.5
C33 C36 H28 109.5
C33 C36 H29 109.5
H28 C36 H29 109.5
C33 C36 H30 109.5
H28 C36 H30 109.5
H29 C36 H30 109.5
C38 C37 C42 120.1(2)
C38 C37 P1 121.3(2)
C42 C37 P1 118.59(18)
C39 C38 C37 117.7(2)
C39 C38 C43 117.1(2)
C37 C38 C43 125.2(2)
C40 C39 C38 123.0(2)
C40 C39 H31 118.5
C38 C39 H31 118.5
C39 C40 C41 118.5(2)
C39 C40 C44 121.1(2)
C41 C40 C44 120.3(3)
C40 C41 C42 121.5(3)
C40 C41 H32 119.2
C42 C41 H32 119.2
C41 C42 C37 119.1(2)
C41 C42 C45 117.5(2)
C37 C42 C45 123.4(2)
C38 C43 H33 109.5
C38 C43 H34 109.5
H33 C43 H34 109.5
C38 C43 H35 109.5
H33 C43 H35 109.5
H34 C43 H35 109.5
C40 C44 H36 109.5
C40 C44 H37 109.5
H36 C44 H37 109.5
C40 C44 H38 109.5
H36 C44 H38 109.5
H37 C44 H38 109.5
C42 C45 H39 109.5
C42 C45 H40 109.5
H39 C45 H40 109.5
C42 C45 H41 109.5
H39 C45 H41 109.5
H40 C45 H41 109.5
C1 N1 C4 107.8(2)
C1 N1 Ni1 117.91(16)
C4 N1 Ni1 133.62(17)
C9 N2 C6 105.1(2)
C9 N2 Ni1 128.69(16)
C6 N2 Ni1 126.01(16)
C10 N3 C13 105.1(2)
C10 N3 Ni1 128.66(17)
C13 N3 Ni1 125.98(16)
C18 N4 C15 108.1(2)
C18 N4 Ni1 117.36(16)
C15 N4 Ni1 133.40(18)
N4 Ni1 N1 81.18(9)
N4 Ni1 N2 170.58(9)
N1 Ni1 N2 89.56(9)
N4 Ni1 N3 89.72(9)
N1 Ni1 N3 170.47(9)
N2 Ni1 N3 99.44(9)
C9 P1 C10 106.87(11)
C9 P1 C37 106.19(11)
C10 P1 C37 107.76(12)
C9 P1 Au1 107.73(8)
C10 P1 Au1 105.72(8)
C37 P1 Au1 121.77(8)
P1 Au1 Cl1 174.73(2)
C47 C46 Cl2 113.7(12)
C47 C46 H42 108.8
Cl2 C46 H42 108.8
C47 C46 H43 108.8
Cl2 C46 H43 108.8
H42 C46 H43 107.7
C46 C47 Cl3 111.8(18)
C46 C47 H44 109.3
Cl3 C47 H44 109.3
C46 C47 H45 109.3
Cl3 C47 H45 109.3
H44 C47 H45 107.9
C49 C48 Cl4 111(2)
C49 C48 H46 109.5
Cl4 C48 H46 109.5
C49 C48 H47 109.5
Cl4 C48 H47 109.5
H46 C48 H47 108.1
C48 C49 Cl5 110.4(15)
C48 C49 H48 109.6
Cl5 C49 H48 109.6
C48 C49 H49 109.6
Cl5 C49 H49 109.6
H48 C49 H49 108.1
loop_
_geom_bond_atom_site_label_1
_geom_bond_atom_site_label_2
_geom_bond_distance
C1 N1 1.338(3)
C1 C2 1.420(4)
C1 C18 1.430(3)
C2 C3 1.369(4)
C2 H1 0.9500
C3 C4 1.429(4)
C3 H2 0.9500
C4 N1 1.376(3)
C4 C5 1.385(4)
C5 C6 1.403(4)
C5 C19 1.500(3)
C6 N2 1.404(3)
C6 C7 1.429(4)
C7 C8 1.365(4)
C7 H3 0.9500
C8 C9 1.408(3)
C8 H4 0.9500
C9 N2 1.354(3)
C9 P1 1.789(2)
C10 N3 1.352(3)
C10 C11 1.412(4)
C10 P1 1.789(2)
C11 C12 1.375(4)
C11 H5 0.9500
C12 C13 1.409(4)
C12 H6 0.9500
C13 N3 1.405(3)
C13 C14 1.410(4)
C14 C15 1.384(4)
C14 C28 1.498(3)
C15 N4 1.372(3)
C15 C16 1.435(4)
C16 C17 1.372(4)
C16 H7 0.9500
C17 C18 1.428(3)
C17 H8 0.9500
C18 N4 1.347(3)
C19 C20 1.399(4)
C19 C24 1.403(4)
C20 C21 1.398(4)
C20 C25 1.504(4)
C21 C22 1.372(5)
C21 H9 0.9500
C22 C23 1.389(4)
C22 C26 1.520(4)
C23 C24 1.397(4)
C23 H10 0.9500
C24 C27 1.508(4)
C25 H11 0.9800
C25 H12 0.9800
C25 H13 0.9800
C26 H14 0.9800
C26 H15 0.9800
C26 H16 0.9800
C27 H17 0.9800
C27 H18 0.9800
C27 H19 0.9800
C28 C29 1.395(4)
C28 C33 1.400(4)
C29 C30 1.396(4)
C29 C34 1.511(4)
C30 C31 1.384(4)
C30 H20 0.9500
C31 C32 1.386(5)
C31 C35 1.510(4)
C32 C33 1.387(4)
C32 H21 0.9500
C33 C36 1.505(4)
C34 H22 0.9800
C34 H23 0.9800
C34 H24 0.9800
C35 H25 0.9800
C35 H26 0.9800
C35 H27 0.9800
C36 H28 0.9800
C36 H29 0.9800
C36 H30 0.9800
C37 C38 1.413(3)
C37 C42 1.414(4)
C37 P1 1.818(3)
C38 C39 1.396(4)
C38 C43 1.504(4)
C39 C40 1.376(4)
C39 H31 0.9500
C40 C41 1.384(4)
C40 C44 1.512(4)
C41 C42 1.391(4)
C41 H32 0.9500
C42 C45 1.505(4)
C43 H33 0.9800
C43 H34 0.9800
C43 H35 0.9800
C44 H36 0.9800
C44 H37 0.9800
C44 H38 0.9800
C45 H39 0.9800
C45 H40 0.9800
C45 H41 0.9800
N1 Ni1 1.864(2)
N2 Ni1 1.915(2)
N3 Ni1 1.924(2)
N4 Ni1 1.863(2)
P1 Au1 2.2268(6)
Au1 Cl1 2.2764(7)
Cl2 C46 1.805(9)
C46 C47 1.52(3)
C46 H42 0.9900
C46 H43 0.9900
C47 Cl3 1.75(4)
C47 H44 0.9900
C47 H45 0.9900
Cl4 C48 1.77(3)
C48 C49 1.51(4)
C48 H46 0.9900
C48 H47 0.9900
C49 Cl5 1.762(15)
C49 H48 0.9900
C49 H49 0.9900
loop_
_geom_torsion_atom_site_label_1
_geom_torsion_atom_site_label_2
_geom_torsion_atom_site_label_3
_geom_torsion_atom_site_label_4
_geom_torsion
N1 C1 C2 C3 -1.4(3)
C18 C1 C2 C3 166.6(3)
C1 C2 C3 C4 0.3(3)
C2 C3 C4 N1 1.0(3)
C2 C3 C4 C5 -174.4(3)
N1 C4 C5 C6 5.6(4)
C3 C4 C5 C6 -179.6(3)
N1 C4 C5 C19 -174.9(2)
C3 C4 C5 C19 -0.1(4)
C4 C5 C6 N2 -2.5(4)
C19 C5 C6 N2 178.0(2)
C4 C5 C6 C7 172.8(3)
C19 C5 C6 C7 -6.7(4)
C5 C6 C7 C8 -174.4(2)
N2 C6 C7 C8 1.7(3)
C6 C7 C8 C9 -1.6(3)
C7 C8 C9 N2 1.1(3)
C7 C8 C9 P1 174.6(2)
N3 C10 C11 C12 -1.0(3)
P1 C10 C11 C12 -172.4(2)
C10 C11 C12 C13 1.6(3)
C11 C12 C13 N3 -1.7(3)
C11 C12 C13 C14 175.5(2)
N3 C13 C14 C15 2.7(4)
C12 C13 C14 C15 -174.1(2)
N3 C13 C14 C28 -174.5(2)
C12 C13 C14 C28 8.7(4)
C13 C14 C15 N4 -4.7(4)
C28 C14 C15 N4 172.6(2)
C13 C14 C15 C16 -178.7(3)
C28 C14 C15 C16 -1.4(4)
N4 C15 C16 C17 -0.8(3)
C14 C15 C16 C17 173.8(3)
C15 C16 C17 C18 -0.8(3)
C16 C17 C18 N4 2.2(3)
C16 C17 C18 C1 -165.7(3)
N1 C1 C18 N4 -1.0(3)
C2 C1 C18 N4 -169.0(3)
N1 C1 C18 C17 166.8(3)
C2 C1 C18 C17 -1.2(6)
C4 C5 C19 C20 -100.5(3)
C6 C5 C19 C20 79.1(3)
C4 C5 C19 C24 76.5(3)
C6 C5 C19 C24 -103.9(3)
C24 C19 C20 C21 -1.2(4)
C5 C19 C20 C21 175.8(3)
C24 C19 C20 C25 178.1(3)
C5 C19 C20 C25 -4.9(4)
C19 C20 C21 C22 0.7(5)
C25 C20 C21 C22 -178.6(3)
C20 C21 C22 C23 0.5(5)
C20 C21 C22 C26 178.4(3)
C21 C22 C23 C24 -1.3(5)
C26 C22 C23 C24 -179.2(3)
C22 C23 C24 C19 0.8(4)
C22 C23 C24 C27 180.0(3)
C20 C19 C24 C23 0.4(4)
C5 C19 C24 C23 -176.6(3)
C20 C19 C24 C27 -178.7(3)
C5 C19 C24 C27 4.3(4)
C15 C14 C28 C29 -83.0(3)
C13 C14 C28 C29 94.4(3)
C15 C14 C28 C33 93.3(3)
C13 C14 C28 C33 -89.3(3)
C33 C28 C29 C30 -0.3(4)
C14 C28 C29 C30 176.1(3)
C33 C28 C29 C34 177.9(3)
C14 C28 C29 C34 -5.7(4)
C28 C29 C30 C31 0.0(4)
C34 C29 C30 C31 -178.2(3)
C29 C30 C31 C32 0.2(4)
C29 C30 C31 C35 179.4(3)
C30 C31 C32 C33 -0.2(4)
C35 C31 C32 C33 -179.4(3)
C31 C32 C33 C28 0.0(4)
C31 C32 C33 C36 179.4(3)
C29 C28 C33 C32 0.3(4)
C14 C28 C33 C32 -176.0(3)
C29 C28 C33 C36 -179.2(3)
C14 C28 C33 C36 4.6(4)
C42 C37 C38 C39 0.7(3)
P1 C37 C38 C39 178.87(18)
C42 C37 C38 C43 -179.1(2)
P1 C37 C38 C43 -1.0(3)
C37 C38 C39 C40 0.5(4)
C43 C38 C39 C40 -179.7(2)
C38 C39 C40 C41 -1.2(4)
C38 C39 C40 C44 178.4(3)
C39 C40 C41 C42 0.7(4)
C44 C40 C41 C42 -178.9(3)
C40 C41 C42 C37 0.5(4)
C40 C41 C42 C45 -178.8(3)
C38 C37 C42 C41 -1.2(4)
P1 C37 C42 C41 -179.4(2)
C38 C37 C42 C45 178.1(2)
P1 C37 C42 C45 -0.1(3)
C2 C1 N1 C4 2.1(3)
C18 C1 N1 C4 -169.2(2)
C2 C1 N1 Ni1 173.77(18)
C18 C1 N1 Ni1 2.5(3)
C5 C4 N1 C1 174.0(2)
C3 C4 N1 C1 -1.8(3)
C5 C4 N1 Ni1 4.1(4)
C3 C4 N1 Ni1 -171.71(19)
C8 C9 N2 C6 -0.1(3)
P1 C9 N2 C6 -173.59(18)
C8 C9 N2 Ni1 -175.22(18)
P1 C9 N2 Ni1 11.3(3)
C5 C6 N2 C9 175.1(2)
C7 C6 N2 C9 -0.9(3)
C5 C6 N2 Ni1 -9.6(4)
C7 C6 N2 Ni1 174.36(17)
C11 C10 N3 C13 -0.1(3)
P1 C10 N3 C13 171.52(18)
C11 C10 N3 Ni1 174.56(17)
P1 C10 N3 Ni1 -13.9(3)
C12 C13 N3 C10 1.1(3)
C14 C13 N3 C10 -176.1(2)
C12 C13 N3 Ni1 -173.71(17)
C14 C13 N3 Ni1 9.1(3)
C17 C18 N4 C15 -2.7(3)
C1 C18 N4 C15 168.4(2)
C17 C18 N4 Ni1 -172.07(17)
C1 C18 N4 Ni1 -1.0(3)
C14 C15 N4 C18 -173.0(2)
C16 C15 N4 C18 2.2(3)
C14 C15 N4 Ni1 -6.1(4)
C16 C15 N4 Ni1 169.09(19)
C18 N4 Ni1 N1 1.82(19)
C15 N4 Ni1 N1 -164.2(2)
C18 N4 Ni1 N3 178.97(19)
C15 N4 Ni1 N3 13.0(2)
C1 N1 Ni1 N4 -2.43(19)
C4 N1 Ni1 N4 166.6(2)
C1 N1 Ni1 N2 179.33(19)
C4 N1 Ni1 N2 -11.6(2)
N2 C9 P1 C10 -32.6(2)
C8 C9 P1 C10 154.6(2)
N2 C9 P1 C37 -147.4(2)
C8 C9 P1 C37 39.8(2)
N2 C9 P1 Au1 80.6(2)
C8 C9 P1 Au1 -92.1(2)
N3 C10 P1 C9 33.8(2)
C11 C10 P1 C9 -155.7(2)
N3 C10 P1 C37 147.6(2)
C11 C10 P1 C37 -41.9(3)
N3 C10 P1 Au1 -80.7(2)
C11 C10 P1 Au1 89.7(2)
C38 C37 P1 C9 -119.4(2)
C42 C37 P1 C9 58.8(2)
C38 C37 P1 C10 126.4(2)
C42 C37 P1 C10 -55.4(2)
C38 C37 P1 Au1 4.2(2)
C42 C37 P1 Au1 -177.63(16)
Cl2 C46 C47 Cl3 -61.0(17)
Cl4 C48 C49 Cl5 177.1(12)
