#------------------------------------------------------------------------------
#$Date: 2019-11-26 01:55:22 +0200 (Tue, 26 Nov 2019) $
#$Revision: 242340 $
#$URL: file:///home/coder/svn-repositories/cod/cif/4/13/23/4132356.cif $
#------------------------------------------------------------------------------
#
# This file is available in the Crystallography Open Database (COD),
# http://www.crystallography.net/
#
# All data on this site have been placed in the public domain by the
# contributors.
#
data_4132356
loop_
_publ_author_name
'Zhang, Jiajing'
'Zhang, Wentao'
'Xu, Minghui'
'Zhang, Yang'
'Fu, Xuefeng'
'Fang, Huayi'
_publ_section_title
;
 Production of Formamides from CO and Amines Induced by Porphyrin
 Rhodium(II) Metalloradical.
;
_journal_issue                   21
_journal_name_full               'Journal of the American Chemical Society'
_journal_page_first              6656
_journal_page_last               6660
_journal_paper_doi               10.1021/jacs.8b03029
_journal_volume                  140
_journal_year                    2018
_chemical_formula_moiety         'C64 H68 N5 O2 Rh, 2(C4 H8 O)'
_chemical_formula_sum            'C72 H84 N5 O4 Rh'
_chemical_formula_weight         1186.35
_space_group_crystal_system      triclinic
_space_group_IT_number           2
_space_group_name_Hall           '-P 1'
_space_group_name_H-M_alt        'P -1'
_atom_sites_solution_hydrogens   geom
_atom_sites_solution_primary     direct
_audit_creation_date             2015-08-25
_audit_creation_method
;
Olex2 1.2
(compiled 2015.01.26 svn.r3150 for OlexSys, GUI svn.r4998)
;
_cell_angle_alpha                93.224(3)
_cell_angle_beta                 99.919(4)
_cell_angle_gamma                93.288(5)
_cell_formula_units_Z            1
_cell_length_a                   10.430(3)
_cell_length_b                   11.159(3)
_cell_length_c                   13.768(4)
_cell_measurement_reflns_used    5441
_cell_measurement_temperature    173.1500
_cell_measurement_theta_max      27.4843
_cell_measurement_theta_min      2.2717
_cell_volume                     1572.3(8)
_computing_cell_refinement       'CrystalClear (Rigaku Inc., 2007)'
_computing_data_collection       'CrystalClear (Rigaku Inc., 2007)'
_computing_data_reduction        'CrystalClear (Rigaku Inc., 2007)'
_computing_molecular_graphics    'Olex2 (Dolomanov et al., 2009)'
_computing_publication_material  'CIFTAB (Sheldrick, 2013)'
_computing_structure_refinement  'SHELXL (Sheldrick, 2014)'
_computing_structure_solution
;
'SHELXT (Sheldrick, 2014)'
;
_diffrn_ambient_temperature      173.1500
_diffrn_detector_area_resol_mean 28.5714
_diffrn_measured_fraction_theta_full 0.991
_diffrn_measured_fraction_theta_max 0.987
_diffrn_measurement_details
;
scan:
	Number of images: 360
	           Slice: -110.0000 - 70.0000
	     Image width: 0.5000
	        Exp time: 10.0000
	   Rotation axis: Omega
	           Omega: 0.0000
	             Chi: 45.0000
	             Phi: 180.0000
	             XTD: 45.1211
	          2theta: -20.1797
scan:
	Number of images: 356
	           Slice: -110.0000 - 68.0000
	     Image width: 0.5000
	        Exp time: 10.0000
	   Rotation axis: Omega
	           Omega: 0.0000
	             Chi: 45.0000
	             Phi: 270.0000
	             XTD: 45.1211
	          2theta: -20.1797
scan:
	Number of images: 338
	           Slice: -110.0000 - 59.0000
	     Image width: 0.5000
	        Exp time: 10.0000
	   Rotation axis: Omega
	           Omega: 0.0000
	             Chi: 45.0000
	             Phi: 90.0000
	             XTD: 45.1211
	          2theta: -20.1797
;
_diffrn_measurement_device
;
Saturn724+ (2x2 bin mode)
;
_diffrn_measurement_device_details
;
AFC10: Fixed Chi 2 circle
;
_diffrn_measurement_device_type  'Saturn724+ CCD'
_diffrn_measurement_method       '\w scans at fixed \c = 45\%'
_diffrn_orient_matrix_type       d*Trek
_diffrn_orient_matrix_UB_11      -0.0405
_diffrn_orient_matrix_UB_12      0.0474
_diffrn_orient_matrix_UB_13      -0.0750
_diffrn_orient_matrix_UB_21      -0.0753
_diffrn_orient_matrix_UB_22      -0.0492
_diffrn_orient_matrix_UB_23      0.0016
_diffrn_orient_matrix_UB_31      -0.0387
_diffrn_orient_matrix_UB_32      0.0513
_diffrn_orient_matrix_UB_33      0.0364
_diffrn_radiation_detector       CCD
_diffrn_radiation_monochromator  'Graphite Monochromator'
_diffrn_radiation_type           MoK\a
_diffrn_radiation_wavelength     0.71073
_diffrn_reflns_av_R_equivalents  0.0289
_diffrn_reflns_av_unetI/netI     0.0316
_diffrn_reflns_Laue_measured_fraction_full 0.991
_diffrn_reflns_Laue_measured_fraction_max 0.987
_diffrn_reflns_limit_h_max       13
_diffrn_reflns_limit_h_min       -13
_diffrn_reflns_limit_k_max       14
_diffrn_reflns_limit_k_min       -14
_diffrn_reflns_limit_l_max       17
_diffrn_reflns_limit_l_min       -17
_diffrn_reflns_number            17899
_diffrn_reflns_point_group_measured_fraction_full 0.991
_diffrn_reflns_point_group_measured_fraction_max 0.987
_diffrn_reflns_theta_full        26.000
_diffrn_reflns_theta_max         27.485
_diffrn_reflns_theta_min         2.940
_diffrn_source                   'Sealed Tube'
_diffrn_source_current           30.0000
_diffrn_source_power             1.5000
_diffrn_source_voltage           50.0000
_exptl_absorpt_coefficient_mu    0.324
_exptl_absorpt_correction_T_max  1.0000
_exptl_absorpt_correction_T_min  0.9010
_exptl_absorpt_correction_type   multi-scan
_exptl_absorpt_process_details   'CrystalClear (Rigaku Inc., 2007)'
_exptl_crystal_colour            red
_exptl_crystal_colour_primary    red
_exptl_crystal_density_diffrn    1.253
_exptl_crystal_description       block
_exptl_crystal_F_000             628
_exptl_crystal_size_max          0.413
_exptl_crystal_size_mid          0.329
_exptl_crystal_size_min          0.294
_refine_diff_density_max         1.617
_refine_diff_density_min         -0.620
_refine_diff_density_rms         0.083
_refine_ls_extinction_method     none
_refine_ls_goodness_of_fit_ref   1.310
_refine_ls_hydrogen_treatment    constr
_refine_ls_matrix_type           full
_refine_ls_number_parameters     427
_refine_ls_number_reflns         7128
_refine_ls_number_restraints     30
_refine_ls_restrained_S_all      1.344
_refine_ls_R_factor_all          0.0513
_refine_ls_R_factor_gt           0.0504
_refine_ls_shift/su_max          0.001
_refine_ls_shift/su_mean         0.000
_refine_ls_structure_factor_coef Fsqd
_refine_ls_weighting_details
'w=1/[\s^2^(Fo^2^)+(0.1000P)^2^] where P=(Fo^2^+2Fc^2^)/3'
_refine_ls_weighting_scheme      calc
_refine_ls_wR_factor_gt          0.1556
_refine_ls_wR_factor_ref         0.1564
_reflns_Friedel_coverage         0.000
_reflns_number_gt                7018
_reflns_number_total             7128
_reflns_threshold_expression     'I > 2\s(I)'
_cod_data_source_file            ja8b03029_si_002.cif
_cod_data_source_block           (TMP)RhCONHPr
_cod_original_cell_volume        1572.2(8)
_cod_database_code               4132356
_shelxl_version_number           2013-4
_shelx_space_group_comment
;
The symmetry employed for this shelxl refinement is uniquely defined
by the following loop, which should always be used as a source of
symmetry information in preference to the above space-group names.
They are only intended as comments.
;
_diffrn_number_total             7135
_olex2_refinement_description
;
1. Fixed Uiso
 At 1.2 times of:
  All C(H) groups, All C(H,H) groups, All N(H) groups
 At 1.5 times of:
  All C(H,H,H) groups
2. Uiso/Uaniso restraints and constraints
Uanis(C33) \\sim Ueq, Uanis(O3) \\sim Ueq, Uanis(C34) \\sim Ueq, Uanis(C36)
\\sim Ueq, Uanis(C35) \\sim Ueq: with sigma of 0.01 and sigma for terminal
atoms of 0.02
3. Others
 Fixed Sof: O1(0.5) N31(0.5) H31(0.5) C29(0.5) C30(0.5) H30A(0.5) H30B(0.5)
 C31(0.5) H31A(0.5) H31B(0.5) C32(0.5) H32A(0.5) H32B(0.5) H32C(0.5) C39(0.5)
 H39A(0.5) H39B(0.5) C37(0.5) H37A(0.5) H37B(0.5) O2(0.5) C38(0.5) H38A(0.5)
 H38B(0.5) C40(0.5) H40A(0.5) H40B(0.5)
4.a Secondary CH2 refined with riding coordinates:
 C30(H30A,H30B), C31(H31A,H31B), C33(H33A,H33B), C34(H34A,H34B), C35(H35A,
 H35B), C36(H36A,H36B), C39(H39A,H39B), C37(H37A,H37B), C38(H38A,H38B),
 C40(H40A,H40B)
4.b Me refined with riding coordinates:
 C26(H26A,H26B,H26C)
4.c Aromatic/amide H refined with riding coordinates:
 C2(H2), C3(H3), C7(H7), C8(H8), C13(H13), C15(H15), C22(H22), C24(H24),
 N31(H31)
4.d Idealised Me refined as rotating group:
 C17(H17A,H17B,H17C), C18(H18A,H18B,H18C), C19(H19A,H19B,H19C), C27(H27A,H27B,
 H27C), C28(H28A,H28B,H28C), C32(H32A,H32B,H32C)
;
_shelx_res_file
;
TITL sa4316_a.res in P-1
CELL 0.71073 10.4299 11.1585 13.7679 93.224 99.919 93.288
ZERR 1 0.0029 0.0031 0.004 0.003 0.004 0.005
LATT 1
SFAC C H N O Rh
UNIT 72 84 5 4 1
ISOR 0.01 0.02 C33 O3 C34 C36 C35

L.S. 4
PLAN  20
BOND $H
LIST 6
MORE -1
CONF
fmap 2
acta 52
OMIT -1 1 0
OMIT -1 0 1
OMIT 0 0 1
OMIT 1 0 0
OMIT 0 1 0
OMIT 0 -1 1
OMIT 2 2 0
REM <olex2.extras>
REM <HklSrc "%.\\sa4316.hkl">
REM </olex2.extras>

WGHT    0.100000
FVAR       0.72915
RH1   5    0.500000    0.500000    0.500000    10.50000    0.03302    0.03019 =
         0.02021    0.00200    0.00568   -0.00906
N29   3    0.365095    0.386463    0.543209    11.00000    0.04012    0.04061 =
         0.02163    0.00275    0.00345   -0.01744
N30   3    0.392548    0.490055    0.361810    11.00000    0.04029    0.03764 =
         0.02198    0.00298    0.00322   -0.01485
C1    1    0.367381    0.347834    0.636603    11.00000    0.04399    0.03706 =
         0.02537    0.00597    0.00893   -0.01288
C2    1    0.252366    0.268656    0.636372    11.00000    0.04381    0.04265 =
         0.02808    0.00649    0.00709   -0.01753
AFIX  43
H2    2    0.230013    0.231321    0.690409    11.00000   -1.20000
AFIX   0
C3    1    0.183630    0.258881    0.543710    11.00000    0.03874    0.04283 =
         0.03114    0.00482    0.00602   -0.01385
AFIX  43
H3    2    0.106055    0.212422    0.521719    11.00000   -1.20000
AFIX   0
C4    1    0.252471    0.333659    0.485016    11.00000    0.03536    0.03441 =
         0.02838    0.00248    0.00538   -0.01156
C5    1    0.211767    0.348870    0.384732    11.00000    0.03151    0.03164 =
         0.02551   -0.00023    0.00284   -0.00752
C6    1    0.276555    0.422904    0.328850    11.00000    0.03613    0.03467 =
         0.02255   -0.00017    0.00227   -0.00719
C7    1    0.232367    0.442478    0.226012    11.00000    0.03879    0.04106 =
         0.02312    0.00289    0.00074   -0.00955
AFIX  43
H7    2    0.156509    0.408075    0.186291    11.00000   -1.20000
AFIX   0
C8    1    0.321458    0.519955    0.198079    11.00000    0.04200    0.04013 =
         0.02399    0.00427    0.00350   -0.00741
AFIX  43
H8    2    0.317895    0.549166    0.135792    11.00000   -1.20000
AFIX   0
C9    1    0.422229    0.548683    0.282083    11.00000    0.04198    0.03784 =
         0.02023    0.00264    0.00583   -0.01023
C10   1    0.534854    0.623192    0.282107    11.00000    0.04423    0.03499 =
         0.02294    0.00434    0.00759   -0.00877
C11   1    0.091297    0.275346    0.332695    11.00000    0.02789    0.02956 =
         0.02583    0.00274    0.00253   -0.00468
C12   1   -0.030801    0.323707    0.320695    11.00000    0.03507    0.03540 =
         0.03267    0.00717    0.00771    0.00336
C13   1   -0.140322    0.251900    0.273860    11.00000    0.03030    0.05016 =
         0.04319    0.01125    0.00313    0.00147
AFIX  43
H13   2   -0.221676    0.283736    0.265331    11.00000   -1.20000
AFIX   0
C14   1   -0.130493    0.134270    0.239808    11.00000    0.03697    0.05117 =
         0.04695    0.00268   -0.00443   -0.01611
C15   1   -0.008596    0.088592    0.251736    11.00000    0.04758    0.03305 =
         0.04476   -0.00473    0.00159   -0.00779
AFIX  43
H15   2   -0.001086    0.009960    0.228295    11.00000   -1.20000
AFIX   0
C16   1    0.102685    0.157163    0.297787    11.00000    0.03347    0.03281 =
         0.03178    0.00272    0.00513   -0.00018
C17   1   -0.045596    0.452156    0.356339    11.00000    0.05825    0.04133 =
         0.05314   -0.00005    0.01172    0.01145
AFIX 137
H17A  2    0.011666    0.471351    0.418400    11.00000   -1.50000
H17B  2   -0.134181    0.460893    0.364629    11.00000   -1.50000
H17C  2   -0.023657    0.505686    0.308592    11.00000   -1.50000
AFIX   0
C18   1   -0.250784    0.055329    0.189659    11.00000    0.04989    0.07557 =
         0.08710   -0.00480   -0.01591   -0.02633
AFIX 137
H18A  2   -0.313902    0.052226    0.232792    11.00000   -1.50000
H18B  2   -0.226059   -0.024467    0.175474    11.00000   -1.50000
H18C  2   -0.287996    0.088613    0.129194    11.00000   -1.50000
AFIX   0
C19   1    0.233524    0.103271    0.309556    11.00000    0.04260    0.04473 =
         0.05321    0.00016    0.00960    0.00849
AFIX 137
H19A  2    0.293457    0.153891    0.281820    11.00000   -1.50000
H19B  2    0.223823    0.024726    0.275854    11.00000   -1.50000
H19C  2    0.266495    0.096925    0.378477    11.00000   -1.50000
AFIX   0
C20   1    0.550787    0.673571    0.184661    11.00000    0.03421    0.03521 =
         0.02285    0.00494    0.00422   -0.00902
C21   1    0.612237    0.607354    0.119267    11.00000    0.03415    0.03933 =
         0.02743    0.00896    0.00384    0.00185
C22   1    0.626937    0.655049    0.030223    11.00000    0.04411    0.04730 =
         0.02993    0.00862    0.01393    0.00886
AFIX  43
H22   2    0.668063    0.611330   -0.013534    11.00000   -1.20000
AFIX   0
C23   1    0.582187    0.765719    0.004692    11.00000    0.04347    0.04216 =
         0.02756    0.01173    0.01005    0.00143
C24   1    0.519959    0.828745    0.070016    11.00000    0.04736    0.03012 =
         0.03726    0.01024    0.01276    0.00217
AFIX  43
H24   2    0.487597    0.902187    0.053260    11.00000   -1.20000
AFIX   0
C25   1    0.504412    0.784903    0.160673    11.00000    0.04473    0.03075 =
         0.03241    0.00184    0.01520   -0.00334
C26   1    0.601598    0.814167   -0.092590    11.00000    0.07568    0.06277 =
         0.03938    0.02471    0.02476    0.01549
AFIX  33
H26A  2    0.518364    0.817579   -0.134491    11.00000   -1.50000
H26B  2    0.654438    0.762193   -0.124290    11.00000   -1.50000
H26C  2    0.644308    0.893468   -0.080712    11.00000   -1.50000
AFIX   0
C27   1    0.438973    0.858216    0.231154    11.00000    0.09033    0.04052 =
         0.05532    0.00656    0.04170    0.01061
AFIX 137
H27A  2    0.358429    0.816484    0.238382    11.00000   -1.50000
H27B  2    0.421569    0.935020    0.205538    11.00000   -1.50000
H27C  2    0.495313    0.869757    0.294355    11.00000   -1.50000
AFIX   0
C28   1    0.662796    0.486591    0.142317    11.00000    0.05855    0.04737 =
         0.04625    0.01670    0.01325    0.01601
AFIX 137
H28A  2    0.750265    0.497611    0.178755    11.00000   -1.50000
H28B  2    0.662385    0.439329    0.081793    11.00000   -1.50000
H28C  2    0.607976    0.445830    0.181101    11.00000   -1.50000
AFIX   0
PART 1
O1    4    0.622773    0.366787    0.375132    10.50000    0.05735    0.05003 =
         0.03929    0.01373    0.02124    0.02121
N31   3    0.599594    0.278922    0.514201    10.50000    0.05685    0.03905 =
         0.04233    0.01204    0.01896    0.01690
AFIX  43
H31   2    0.566365    0.282629    0.567199    10.50000   -1.20000
AFIX   0
C29   1    0.582421    0.372234    0.452518    10.50000    0.02382    0.04225 =
         0.03289    0.00771   -0.00003    0.00061
C30   1    0.671775    0.173424    0.494042    10.50000    0.05313    0.03969 =
         0.05817    0.00167    0.01632    0.00968
AFIX  23
H30A  2    0.660188    0.157097    0.423011    10.50000   -1.20000
H30B  2    0.632867    0.104503    0.520911    10.50000   -1.20000
AFIX   0
C31   1    0.813498    0.183828    0.534153    10.50000    0.04096    0.07536 =
         0.09756    0.02578    0.02652    0.02612
AFIX  23
H31A  2    0.827210    0.202040    0.605055    10.50000   -1.20000
H31B  2    0.855163    0.249244    0.504897    10.50000   -1.20000
AFIX   0
C32   1    0.876400    0.063802    0.511268    10.50000    0.13269    0.12200 =
         0.14556    0.03313    0.06304    0.00911
AFIX 137
H32A  2    0.813086    0.010218    0.468488    10.50000   -1.50000
H32B  2    0.904943    0.026842    0.571848    10.50000   -1.50000
H32C  2    0.949767    0.080701    0.479427    10.50000   -1.50000
AFIX   0

PART 0
O3    4    1.085514    0.835400    0.139251    11.00000    0.22973    0.16264 =
         0.21938   -0.06388    0.08733   -0.04713
C33   1    0.995201    0.730949    0.140796    11.00000    0.17040    0.15744 =
         0.17418   -0.03025    0.07227   -0.03481
AFIX  23
H33A  2    1.021805    0.688469    0.199733    11.00000   -1.20000
H33B  2    0.907915    0.756393    0.141261    11.00000   -1.20000
AFIX   0
C34   1    0.996402    0.655092    0.055941    11.00000    0.11728    0.09168 =
         0.13330   -0.01160    0.01939   -0.01689
AFIX  23
H34A  2    0.908856    0.638449    0.018572    11.00000   -1.20000
H34B  2    1.032573    0.579532    0.073703    11.00000   -1.20000
AFIX   0
C35   1    1.079394    0.722228   -0.001845    11.00000    0.28135    0.21887 =
         0.15018   -0.01232    0.07222   -0.00839
AFIX  23
H35A  2    1.162017    0.685876    0.000229    11.00000   -1.20000
H35B  2    1.036548    0.721795   -0.070249    11.00000   -1.20000
AFIX   0
C36   1    1.099915    0.841621    0.041446    11.00000    0.21081    0.13709 =
         0.13183   -0.00010    0.06272   -0.02945
AFIX  23
H36A  2    1.186748    0.874723    0.037426    11.00000   -1.20000
H36B  2    1.036598    0.892392    0.007592    11.00000   -1.20000
AFIX   0

PART 2
C39   1    0.636379    0.114382    0.471509    10.50000    0.07949    0.05607 =
         0.10490    0.00335   -0.00616   -0.01859
AFIX  23
H39A  2    0.592056    0.088772    0.524003    10.50000   -1.20000
H39B  2    0.640712    0.045520    0.426230    10.50000   -1.20000
AFIX   0

C37   1    0.750413    0.293931    0.528803    10.50000    0.03421    0.05116 =
         0.06346   -0.00150   -0.00375    0.00700
AFIX  23
H37A  2    0.826713    0.342453    0.518948    10.50000   -1.20000
H37B  2    0.737648    0.310426    0.596282    10.50000   -1.20000
AFIX   0

O2    4    0.636695    0.325011    0.460608    10.50000    0.03565    0.04318 =
         0.04498   -0.00282    0.00201   -0.00853
C38   1    0.770223    0.170479    0.512712    10.50000    0.05176    0.05251 =
         0.08450    0.01683    0.00079    0.01371
AFIX  23
H38A  2    0.805861    0.136453    0.574108    10.50000   -1.20000
H38B  2    0.829018    0.158940    0.466047    10.50000   -1.20000
AFIX   0

C40   1    0.567717    0.213175    0.418316    10.50000    0.04688    0.05585 =
         0.06587   -0.02270    0.00565   -0.00550
AFIX  23
H40A  2    0.569644    0.203657    0.348128    10.50000   -1.20000
H40B  2    0.477453    0.211521    0.427371    10.50000   -1.20000
AFIX   0
HKLF 4

REM  sa4316_a.res in P-1
REM R1 =  0.0504 for    7018 Fo > 4sig(Fo)  and  0.0513 for all    7128 data
REM    427 parameters refined using     30 restraints

END

WGHT      0.0909      0.9224

REM Highest difference peak  1.617,  deepest hole -0.620,  1-sigma level  0.083
Q1    1   0.8603  0.2296  0.6358  11.00000  0.05    1.62
Q2    1   0.9994  0.7596 -0.0110  11.00000  0.05    0.95
Q3    1   1.0931  0.6230  0.0219  11.00000  0.05    0.83
Q4    1   0.9521  0.8522  0.0671  11.00000  0.05    0.58
Q5    1   1.1465  0.7417  0.0001  11.00000  0.05    0.53
Q6    1   1.0397  0.7287  0.1618  11.00000  0.05    0.43
Q7    1   0.1219  0.2984  0.3507  11.00000  0.05    0.39
Q8    1   0.2456  0.4339  0.2842  11.00000  0.05    0.34
Q9    1   0.5982  0.3342  0.4682  11.00000  0.05    0.33
Q10   1  -0.1277  0.1979  0.2621  11.00000  0.05    0.32
Q11   1   0.4234  0.5404  0.3071  11.00000  0.05    0.32
Q12   1   0.5406  0.6391  0.2486  11.00000  0.05    0.32
Q13   1   0.2808  0.5080  0.2026  11.00000  0.05    0.31
Q14   1   0.5502  0.8848 -0.1132  11.00000  0.05    0.31
Q15   1   0.0948  0.2258  0.3303  11.00000  0.05    0.30
Q16   1   0.7055  0.8250 -0.0981  11.00000  0.05    0.30
Q17   1   0.6812  0.4775  0.2073  11.00000  0.05    0.29
Q18   1  -0.1591  0.1219  0.2237  11.00000  0.05    0.29
Q19   1   0.5673  0.7488 -0.1552  11.00000  0.05    0.29
Q20   1   0.3167  0.3171  0.6461  11.00000  0.05    0.28
;
_shelx_res_checksum              53686
_shelx_hkl_file
;
   0   0   1   -0.03    0.19
   0   0  -1    0.40    0.26
   0   0  -1    0.11    0.17
   0   0   1    0.00    0.16
   0   0  -1    0.20    0.15
   0   0  -3  364.63    6.57
   0   0   3  394.31    6.99
   0   0   3  392.84    6.78
   0   0  -4 2174.75   20.87
   0   0   4 2196.22   20.95
   0   0   4 2250.25   21.15
   0   0  -4 2257.09   21.20
   0   0  -5 1470.45   14.65
   0   0   5 1505.01   14.45
   0   0   6 3035.41   35.39
   0   0  -6 2960.88   34.50
   0   0  -7 1029.27   13.21
   0   0   7 1016.69   12.42
   0   0  -7  974.99   11.90
   0   0   8  885.45   11.52
   0   0  -8  835.95   10.84
   0   0   8  856.56   10.22
   0   0  -8  818.71    9.75
   0   0   9  226.59   15.96
   0   0  -9  214.71    8.82
   0   0   9  217.30    8.37
   0   0  -9  206.23    7.93
   0   0  10  111.19    6.14
   0   0  10  113.54    7.35
   0   0 -10   94.52    4.87
   0   0  11    8.84    2.17
   0   0  11    2.55    0.76
   0   0 -11    4.68    0.91
   0   0  12   28.46    2.21
   0   0  12   23.98    1.14
   0   0  13   54.69    5.22
   0   0 -13   47.74    3.46
   0   0  13   40.48    4.21
   0   0  14  142.52   10.01
   0   0 -14  150.40    6.82
   0   0  15   93.76   10.48
   0   0 -15  103.21    6.49
   0   0  16   67.78    8.35
   0   0 -16   66.23    7.01
   0   0  17   36.44    5.70
   0   0 -17   25.45    4.55
   0  -1  17   46.91    6.61
   0   1 -17   61.94    7.56
   0  -1  16   11.69    3.44
   0   1 -16   15.19    2.86
   0  -1  15   28.63    4.51
   0   1 -15   29.75    3.63
   0  -1  14  231.19    9.22
   0   1 -14  204.68    9.24
   0  -1  13  568.04   17.17
   0   1 -13  549.12   17.55
   0  -1  13  538.31   15.41
   0  -1  12   44.56    3.23
   0   1 -12   41.04    6.11
   0  -1  12   44.08    4.29
   0  -1  11   28.14    4.03
   0   1 -11   23.51    3.36
   0  -1  11   28.99    4.30
   0  -1  10   14.44    2.22
   0   1 -10   11.40    1.80
   0  -1  10    8.89    1.33
   0   1 -10    9.16    1.10
   0  -1   9    4.69    1.29
   0   1  -9    7.69    2.21
   0  -1   9    5.59    0.88
   0   1  -9    4.51    0.69
   0  -1   8  954.24   12.33
   0   1  -8  944.89   11.91
   0  -1   8  914.24   10.97
   0   1  -8  895.22   10.60
   0  -1   7  108.86    4.79
   0  -1   7  105.95    5.50
   0   1  -7  109.78    4.51
   0  -1   6 2625.32   31.32
   0  -1   6 2614.35   30.69
   0   1  -6 2571.95   30.10
   0  -1   5   88.02    3.13
   0   1  -5   77.77    2.67
   0   1  -5   79.66    2.63
   0  -1   5   76.62    2.44
   0  -1   5   79.37    2.49
   0   1  -5   79.96    2.46
   0  -1   4  557.40    9.88
   0   1  -4  539.59   10.09
   0  -1   4  553.20    9.65
   0  -1   4  528.32    9.15
   0   1  -4  544.55    9.38
   0  -1   3  654.71   11.38
   0   1  -3  641.58   11.05
   0  -1   3  647.72   11.12
   0  -1   3  643.35   11.29
   0  -1   2 6401.27   59.15
   0  -1   1   -0.31    0.35
   0  -1   0   -0.55    0.21
   0   1   0    0.43    0.20
   0  -1   0    0.07    0.14
   0   1   2  418.35    7.32
   0  -1  -2  399.90    7.07
   0  -1  -2  399.78    6.90
   0  -1  -2  411.31    7.00
   0   1   3 1800.18   17.53
   0  -1  -3 1787.05   17.21
   0  -1  -3 1748.50   16.85
   0   1   3 1788.18   16.83
   0  -1  -3 1768.57   16.66
   0   1   4  257.04    5.05
   0  -1  -4  248.18    4.73
   0  -1  -4  246.56    4.72
   0   1   4  248.04    4.63
   0  -1  -4  241.30    9.76
   0   1   5  478.31    9.72
   0  -1  -5  463.76    8.40
   0   1   5  477.16    8.28
   0  -1  -5  469.81    8.16
   0   1   6 1110.17   14.07
   0  -1  -6 1113.73   13.93
   0   1   6 1099.99   13.23
   0  -1  -6 1094.21   13.17
   0   1   7 1532.37   18.21
   0  -1  -7 1530.83   18.12
   0   1   7 1489.53   16.90
   0  -1  -7 1435.59   16.33
   0   1   8  312.46    9.72
   0  -1  -8  303.62    9.24
   0   1   8  311.42    9.08
   0  -1  -8  296.73    8.67
   0   1   9  605.25   12.53
   0  -1  -9  613.77   12.32
   0   1   9  619.18   11.84
   0  -1  -9  598.93   11.43
   0   1  10  347.56   13.84
   0  -1 -10  257.58   10.47
   0   1  10  337.25   12.80
   0  -1 -10  324.58   12.22
   0   1  11   51.33    6.33
   0  -1 -11   57.24    5.07
   0   1  11   44.18    3.43
   0  -1 -11   38.34    3.01
   0   1  12   26.54    2.64
   0  -1 -12   21.22    3.24
   0   1  12   23.62    2.96
   0   1  13   69.81    6.24
   0  -1 -13   60.13    3.67
   0   1  13   65.30    3.15
   0  -1 -14  135.57    6.57
   0   1  15   83.50    9.56
   0  -1 -15   72.69    5.44
   0  -1 -16   64.13    8.65
   0  -1 -17   65.01    8.15
   0  -2  17   41.93    5.59
   0   2 -17   39.65    4.00
   0  -2  16    7.28    2.18
   0   2 -16   11.94    2.85
   0  -2  15  116.52    7.20
   0   2 -15  106.61    6.33
   0  -2  14  174.41    7.86
   0   2 -14  175.57   17.19
   0  -2  14  135.10    5.85
   0  -2  13  423.05   13.34
   0   2 -13  405.09   12.48
   0  -2  13  400.87   11.74
   0  -2  12  314.29   10.28
   0   2 -12  319.28   10.32
   0  -2  12  312.33    9.48
   0  -2  11  149.39    8.78
   0   2 -11  139.34    8.15
   0  -2  11  138.61    9.01
   0  -2  10  136.88    7.43
   0   2 -10  135.47    7.32
   0  -2  10  123.00    6.35
   0  -2   9  283.72   12.35
   0   2  -9  293.85   10.18
   0  -2   9  277.53   11.79
   0  -2   8  715.84   13.50
   0   2  -8  747.05   13.75
   0  -2   8  713.23   12.93
   0  -2   7  904.19   11.51
   0   2  -7  876.67   10.82
   0  -2   7  878.10   10.64
   0  -2   6   91.56    4.27
   0   2  -6   90.51    4.13
   0  -2   6   92.71    4.14
   0  -2   5   15.36    1.17
   0   2  -5   10.45    0.88
   0   2  -5   15.17    1.21
   0  -2   5   14.15    1.02
   0  -2   5   12.91    1.26
   0  -2   4  239.89    9.91
   0   2  -4  242.89    4.67
   0   2  -4  243.71    4.63
   0  -2   4  249.44    4.64
   0  -2   4  241.83    9.90
   0  -2   3 2646.04   25.16
   0   2  -3 2598.07   24.63
   0   2  -3 2662.98   24.98
   0  -2   3 2625.07   24.59
   0  -2   2  233.40    9.55
   0   2  -2  237.03    9.67
   0   2  -2  233.43    9.42
   0  -2   1   69.57    2.13
   0   2  -1   70.44    2.08
   0   2  -1   59.04    1.61
   0   2  -1   75.67    2.27
   0  -2   0 1061.20   10.19
   0   2   0 1072.81   10.28
   0  -2   0 1066.62   10.28
   0  -2  -1 2285.97   21.48
   0  -2  -1 2299.01   21.56
   0  -2  -1 2290.85   21.30
   0  -2  -1 2236.27   21.04
   0  -2  -2 1510.94   14.52
   0  -2  -2 1568.94   14.97
   0   2   3  273.90    5.20
   0  -2  -3  263.72    4.99
   0  -2  -3  268.55    4.90
   0  -2  -3  260.79    4.84
   0   2   3  274.64    4.95
   0  -2  -3  272.67    4.88
   0   2   4   42.35    1.78
   0  -2  -4   38.24    1.57
   0  -2  -4   41.71    2.80
   0  -2  -4   39.27    1.59
   0   2   4   43.29    1.55
   0  -2  -4   41.02    1.39
   0   2   5  766.97   18.99
   0  -2  -5  689.81   17.05
   0  -2  -5  716.06   17.71
   0  -2  -5  762.21   18.82
   0   2   5  763.43   18.63
   0  -2  -5  749.62   18.30
   0   2   6  627.44   16.08
   0  -2  -6  609.08   15.27
   0   2   6  607.82   14.95
   0  -2  -6  581.51   14.30
   0  -2  -7  592.03   17.66
   0   2   7  619.99   18.14
   0  -2  -7  594.10   17.40
   0  -2  -8   45.21    3.15
   0   2   8   40.40    2.57
   0  -2  -8   36.53    2.28
   0   2   9  113.43    9.43
   0  -2  -9  105.46    5.36
   0   2   9  111.61    5.17
   0  -2  -9  101.19    4.73
   0  -2 -10  279.80   11.09
   0   2  10  302.77   11.42
   0  -2 -10  273.39   10.37
   0   2  12   22.20    2.56
   0  -2 -12   16.06    2.59
   0   2  12   19.89    1.46
   0   2  13  174.03   11.45
   0  -2 -13  152.54   18.97
   0   2  14  153.89   12.27
   0  -2 -14  166.69    7.70
   0   2  15   63.62    8.24
   0  -2 -15   63.31   10.72
   0   2  16  113.31   12.05
   0  -2 -16  115.66   11.73
   0   2  17   52.41    8.27
   0  -2 -17   67.23    6.50
   0  -3  17   68.92    9.12
   0   3 -17   68.60   13.07
   0  -3  16   64.63    6.95
   0   3 -16   64.37    6.99
   0  -3  15   90.36    5.90
   0   3 -15   86.76    7.16
   0  -3  14  176.27   17.27
   0   3 -14  168.40    7.61
   0  -3  14  159.71    6.65
   0  -3  13  103.64    5.59
   0   3 -13  102.30    4.96
   0  -3  13   90.44    7.25
   0  -3  12  578.66   17.64
   0   3 -12  582.78   17.77
   0  -3  12  605.47   17.83
   0  -3  11  194.20    9.77
   0   3 -11  196.29    9.72
   0  -3  11  189.22    9.16
   0  -3  10  306.94   12.13
   0   3 -10  296.47   11.57
   0  -3  10  274.92   10.66
   0  -3   9  561.86   11.71
   0   3  -9  576.06   11.65
   0  -3   9  541.66   10.88
   0  -3   8  757.61   14.23
   0   3  -8  786.93   14.46
   0  -3   8  768.90   14.03
   0  -3   7  663.84    9.06
   0   3  -7  693.41    8.89
   0  -3   7  675.96    8.74
   0  -3   6   43.30    2.64
   0   3  -6   48.59    2.65
   0  -3   6   42.74    2.46
   0  -3   5  277.37   11.02
   0   3  -5  279.15   10.85
   0  -3   5  281.75   10.93
   0  -3   5  256.24   10.09
   0  -3   4 1584.48   15.81
   0   3  -4 1586.27   15.41
   0  -3   4 1528.60   14.70
   0  -3   4 1590.52   15.60
   0  -3   4 1564.37   15.46
   0  -3   3 1320.39   13.19
   0   3  -3 1301.69   12.91
   0   3  -3 1317.72   12.97
   0  -3   2  145.26    4.20
   0   3  -2  144.97    4.14
   0   3  -2  147.00    3.95
   0  -3   2  145.22    3.86
   0  -3   1  708.29   12.29
   0   3  -1  691.88   11.89
   0   3  -1  677.51   11.97
   0  -3   1  700.50   12.05
   0  -3   0 1981.41   18.89
   0   3   0 1975.98   18.76
   0  -3   0 1913.25   17.67
   0  -3   0 1952.93   18.03
   0   3   0 2075.26   20.09
   0  -3   0 1971.73   18.83
   0  -3  -1  594.98   10.32
   0  -3  -1  581.33    9.87
   0  -3  -1  589.19    9.96
   0   3   1  611.38   10.68
   0  -3  -1  589.66   10.43
   0  -3  -2  124.90    3.62
   0  -3  -2  121.93    3.43
   0   3   2  123.35    3.53
   0  -3  -3  864.64    9.00
   0  -3  -3  892.46    9.05
   0   3   3  891.08    9.60
   0  -3  -3  857.04    8.69
   0   3   4   16.01    1.84
   0  -3  -4   13.48    1.58
   0  -3  -4   15.13    1.13
   0   3   4   14.25    1.79
   0  -3  -4   13.76    0.98
   0  -3  -5 1850.44   22.33
   0   3   5 1871.08   22.22
   0  -3  -5 1812.93   21.52
   0   3   6  465.45   13.71
   0  -3  -6  457.56   13.49
   0   3   7  177.67    7.28
   0  -3  -7  174.62    7.18
   0   3   7  173.98    6.76
   0  -3  -7  171.14    6.66
   0   3   8   88.82    8.69
   0  -3  -8   72.90    4.72
   0   3   8   79.01    4.67
   0  -3  -8   69.18    4.17
   0   3   9   51.78    5.89
   0  -3  -9   38.76    3.49
   0   3   9   44.48    3.65
   0  -3  -9   33.42    3.27
   0   3  10  182.17   10.34
   0  -3 -10  173.95   10.03
   0   3  10  174.56    9.44
   0  -3 -10  148.23    8.10
   0   3  11  501.27   11.60
   0  -3 -11  494.89   11.10
   0   3  11  476.11    9.54
   0   3  12  112.86   10.96
   0  -3 -12  104.78   16.76
   0   3  12  111.88    5.08
   0   3  13   31.84    4.16
   0  -3 -13   29.72    4.06
   0   3  14  569.45   15.50
   0  -3 -14  614.86   72.37
   0   3  15  153.14   18.61
   0  -3 -15  143.33    6.77
   0   3  16   15.60    3.41
   0  -3 -16   16.96    2.87
   0  -4  17   67.37    5.84
   0   4 -17   51.22    7.15
   0  -4  16  101.75    9.18
   0   4 -16  101.33    8.83
   0  -4  15   45.74    4.68
   0   4 -15   49.56    4.86
   0  -4  14  206.18    6.88
   0   4 -14  187.11    5.87
   0  -4  14  194.27    5.85
   0  -4  13  159.33    7.36
   0   4 -13  156.03    6.74
   0  -4  13  153.33    6.49
   0  -4  12  131.46    6.81
   0   4 -12  135.90    9.56
   0  -4  12  139.90    6.65
   0  -4  11   49.83    4.97
   0   4 -11   42.74    4.13
   0  -4  11   47.48    4.43
   0  -4  10   76.54    6.36
   0   4 -10   72.79    6.59
   0  -4  10   74.79    5.95
   0  -4   9  201.14    8.38
   0   4  -9  199.12    8.14
   0  -4   9  194.10    8.00
   0  -4   8  625.95   12.79
   0   4  -8  640.08   13.26
   0  -4   8  625.51   12.46
   0  -4   7   97.71    6.02
   0   4  -7  106.07    4.55
   0  -4   7  104.90    4.79
   0   4  -6  468.94   13.86
   0   4  -6  504.99   15.10
   0  -4   6  500.78   15.00
   0   4  -5    4.44    0.68
   0   4  -5    6.35    0.88
   0  -4   5    9.49    1.58
   0   4  -4   26.49    1.77
   0   4  -4   22.28    2.66
   0   4  -4   24.73    1.29
   0  -4   4   20.26    2.30
   0   4  -3  923.32    9.56
   0   4  -3  930.06    8.95
   0   4  -3  997.01    9.62
   0   4  -2  488.91    8.67
   0   4  -2  522.06    8.75
   0   4  -2  492.71    8.27
   0   4  -2  557.57   10.25
   0  -4   2  506.60    8.99
   0   4  -1  137.43    3.98
   0   4  -1  143.56    4.34
   0  -4   1  141.11    4.18
   0   4   0   31.61    1.35
   0  -4   0   29.64    0.87
   0  -4   0   31.76    0.94
   0  -4   0   28.35    2.32
   0  -4  -1  734.10   12.71
   0  -4  -1  710.67   12.01
   0  -4  -1  726.31   12.24
   0  -4  -1  703.54   12.50
   0  -4  -2  136.58    4.71
   0  -4  -2  139.22    3.99
   0  -4  -2  142.04    3.98
   0   4   2  149.39    4.65
   0  -4  -2  140.38    4.11
   0   4   3  334.04   16.61
   0  -4  -3  308.33   12.07
   0  -4  -3  323.77   12.51
   0  -4  -3  341.80   16.83
   0   4   3  345.09   17.05
   0  -4  -3  315.95   12.20
   0   4   4  105.54    5.61
   0  -4  -4   99.15    4.36
   0  -4  -4  110.51    4.69
   0   4   4  104.39    4.64
   0  -4  -4  105.97    5.42
   0   4   5  186.30    7.53
   0  -4  -5  181.79    7.21
   0   4   5  175.90    6.89
   0  -4  -5  174.85    6.82
   0   4   6 2365.51   28.12
   0  -4  -6 2377.18   27.31
   0   4   6 2347.47   26.96
   0  -4  -7  280.67    8.59
   0   4   7  280.66    8.98
   0   4   8  170.50    9.17
   0  -4  -8  173.10    7.79
   0   4   8  166.50    7.56
   0  -4  -8  151.76    6.96
   0   4   9  161.53   12.12
   0  -4  -9  151.86    7.96
   0   4   9  148.89    8.09
   0   4  10  258.24   11.20
   0  -4 -10  241.17   10.28
   0   4  10  223.99    9.81
   0   4  11   62.46    5.57
   0  -4 -11   63.15    3.05
   0   4  11   54.55    4.41
   0   4  12  429.76   13.75
   0  -4 -12  423.20   13.16
   0   4  13  214.06   15.78
   0  -4 -13  244.42   12.11
   0   4  14  308.88   20.16
   0  -4 -14  295.29   10.08
   0   4  15   16.53    3.30
   0  -4 -15   13.09    3.17
   0   4  16    3.19    1.33
   0  -4 -16    6.94    2.26
   0  -5  16  114.99   11.17
   0   5 -16  129.19   12.22
   0  -5  15   93.97    5.24
   0   5 -15   95.74    8.09
   0  -5  14  165.86    6.34
   0   5 -14  144.76    9.67
   0  -5  14  160.18    5.69
   0  -5  13  141.58    6.91
   0   5 -13  144.15    6.59
   0  -5  13  125.32   10.69
   0  -5  12   32.55    3.81
   0   5 -12   47.92    3.07
   0  -5  12   44.93    2.79
   0  -5  11   50.96    2.94
   0   5 -11   47.61    3.54
   0  -5  11   46.16    2.41
   0  -5  10   14.34    2.68
   0   5 -10    9.44    1.77
   0  -5  10    8.52    1.89
   0  -5   9  293.17   11.68
   0   5  -9  298.77   11.53
   0  -5   9  298.74   11.75
   0  -5   8  303.17   10.76
   0   5  -8  300.76   10.29
   0  -5   8  298.79   10.53
   0  -5   7  748.65   14.04
   0   5  -7  733.36   14.10
   0  -5   7  745.42   13.92
   0  -5   6  161.88    6.75
   0   5  -6  157.58    6.37
   0   5  -6  159.90    6.30
   0  -5   6  163.38    6.82
   0  -5   5  188.23    7.62
   0   5  -5  179.02    7.11
   0   5  -5  191.80    7.86
   0  -5   5  190.51    7.79
   0  -5   4  192.82    7.90
   0   5  -4  193.88    7.59
   0   5  -4  193.22    7.60
   0  -5   3  196.15    7.99
   0   5  -3  188.32    7.26
   0   5  -3  182.25    6.98
   0  -5   2   80.46    3.82
   0   5  -2   77.97    3.54
   0   5  -2   77.70    3.56
   0  -5   1 2596.92   30.78
   0   5  -1 2412.47   28.48
   0  -5   0 1118.56   13.91
   0   5   0 1085.83   13.48
   0  -5   0 1055.58   12.22
   0  -5   0 1066.24   12.34
   0  -5  -1  466.98   12.32
   0  -5  -1  460.46   11.39
   0  -5  -1  475.25   11.59
   0  -5  -2  439.44   11.32
   0  -5  -2  453.24   11.50
   0  -5  -2  441.58   10.95
   0  -5  -2  446.59   11.02
   0   5   2  478.40   12.25
   0  -5  -3  319.51   12.94
   0  -5  -3  318.98   12.35
   0  -5  -3  319.76   12.61
   0   5   3  329.10   12.94
   0   5   4 1129.59   14.63
   0  -5  -4 1112.54   13.13
   0   5   4 1137.55   13.94
   0   5   5  160.48    6.67
   0  -5  -5  155.46    6.27
   0   5   5  150.39    6.21
   0   5   6 1741.30   31.97
   0  -5  -6 1722.97   30.21
   0   5   6 1730.04   30.32
   0   5   7  669.20   14.39
   0  -5  -7  667.31   13.23
   0   5   8  229.67   10.00
   0  -5  -8  226.21    9.25
   0   5   8  214.21    8.80
   0   5   9  144.56   12.77
   0  -5  -9  139.75    7.31
   0   5   9  129.48   15.96
   0   5  10  302.37   36.84
   0  -5 -10  320.04   10.33
   0   5  10  275.40   13.29
   0   5  11  400.47   11.85
   0  -5 -11  391.81   12.15
   0   5  11  360.42    9.80
   0   5  12  218.08   16.42
   0  -5 -12  209.23    9.30
   0   5  12  200.91    7.85
   0   5  13  135.63    9.01
   0  -5 -13  141.73    4.76
   0   5  14   21.80    3.86
   0  -5 -14   10.64    2.09
   0   5  15   44.59    6.45
   0  -5 -15   45.70    5.50
   0   5  16   66.38    8.31
   0  -5 -16   75.10    6.60
   0  -6  16  115.67   11.30
   0   6 -16   94.77    9.65
   0   6 -15  193.73   16.11
   0   6 -14   67.24    5.72
   0  -6  14   68.33    7.09
   0  -6  13   89.22    5.54
   0   6 -13   96.70    3.45
   0  -6  13   89.29    6.49
   0  -6  12   99.31    5.52
   0   6 -12   90.20    7.39
   0  -6  12  106.31   10.83
   0  -6  11   75.07    4.24
   0   6 -11   82.15    4.45
   0  -6  11   84.27    4.59
   0  -6  10   95.88    4.64
   0   6 -10   89.73    3.81
   0  -6  10   90.41    6.88
   0  -6   9  943.18   19.19
   0   6  -9  914.39   18.06
   0  -6   9  955.80   19.45
   0  -6   8  153.32    8.30
   0   6  -8  163.17   10.61
   0  -6   8  163.19    8.75
   0  -6   7 1238.94   23.82
   0   6  -7 1232.88   23.18
   0  -6   7 1263.90   24.34
   0  -6   6  607.66   12.45
   0   6  -6  536.27   10.40
   0   6  -6  574.43   11.24
   0  -6   6  582.50   11.87
   0  -6   5  174.58    7.34
   0   6  -5  162.77    6.41
   0   6  -5  173.53    6.67
   0  -6   4    1.66    1.56
   0   6  -4    0.05    0.26
   0   6  -4    2.65    0.65
   0  -6   3  546.71   16.39
   0   6  -3  523.21   15.09
   0   6  -3  518.10   14.94
   0  -6   2  914.89   11.35
   0   6  -2  971.66   12.17
   0  -6   1  989.60   12.16
   0   6  -1 1045.95   13.04
   0  -6   0 1220.57   14.66
   0  -6   0 1162.40   12.68
   0  -6   0 1185.71   12.94
   0  -6  -1   22.24    2.04
   0  -6  -1   22.50    1.94
   0  -6  -1   27.66    2.31
   0   6   1   27.04    3.76
   0  -6  -2  549.55   16.37
   0  -6  -2  525.96   15.38
   0  -6  -2  552.96   16.14
   0   6   2  581.82   17.78
   0  -6  -3  650.92    8.71
   0  -6  -3  622.69   18.28
   0  -6  -3  653.60    7.94
   0   6   3  660.62    9.09
   0  -6  -4  473.27    9.22
   0  -6  -4  463.20    8.59
   0   6   4  486.51   10.34
   0  -6  -5  299.09   10.19
   0   6   5  313.36   11.10
   0   6   6  120.21    6.76
   0  -6  -6  119.31    5.70
   0   6   6  122.85    6.05
   0   6   7  453.71   11.93
   0  -6  -7  425.17   10.37
   0   6   7  431.29   10.43
   0   6   8   90.92    8.89
   0  -6  -8   93.24    7.18
   0   6   8   86.63    8.78
   0   6   9  218.25   12.79
   0  -6  -9  232.74   11.60
   0   6   9  217.95   11.13
   0   6  10  394.57   11.67
   0  -6 -10  371.13   10.61
   0   6  10  373.75   10.28
   0   6  11  248.28   11.31
   0  -6 -11  231.05   10.48
   0   6  11  236.61    9.98
   0   6  12   13.39    2.33
   0  -6 -12   14.11    2.28
   0   6  13   56.74    7.58
   0  -6 -13   56.36    4.91
   0   6  14  125.79    9.87
   0  -6 -14  127.31    5.98
   0   6  15   86.83   11.72
   0  -6 -15   92.97    8.93
   0  -7  15  100.30    9.94
   0   7 -15   88.20   11.16
   0  -7  14   32.04    4.60
   0   7 -14   19.24    3.28
   0  -7  14   10.07    2.48
   0  -7  13   68.61    5.41
   0   7 -13   49.26    8.12
   0  -7  13   64.95    5.23
   0  -7  12   61.71    4.93
   0   7 -12   51.58    5.82
   0  -7  12   53.19    4.29
   0  -7  11   51.08    4.39
   0   7 -11   43.34    4.53
   0  -7  11   41.47    3.78
   0  -7  10   81.89    4.62
   0   7 -10   94.67    4.63
   0  -7  10   95.80    5.15
   0  -7   9  715.70   21.47
   0   7  -9  673.73   20.29
   0  -7   9  696.70   20.79
   0  -7   8  689.71   14.62
   0   7  -8  635.59   13.14
   0  -7   8  665.72   14.17
   0  -7   7   83.66    6.75
   0   7  -7   64.66    5.10
   0   7  -7   81.21    7.35
   0  -7   7   74.29    6.15
   0  -7   6  733.46   17.31
   0   7  -6  689.71   15.62
   0   7  -6  700.60   16.09
   0  -7   6  709.66   16.81
   0  -7   5    0.62    1.58
   0   7  -5    1.63    0.36
   0   7  -5    2.06    0.66
   0  -7   4   89.49    6.69
   0   7  -4   90.45    6.98
   0   7  -4   86.58    6.02
   0  -7   3  961.82   17.62
   0  -7   2 1123.44   20.24
   0   7  -2  949.73   18.12
   0  -7   1  170.61    7.22
   0   7  -1  182.97    7.65
   0  -7   0  544.93   10.46
   0   7   0  559.98   10.97
   0  -7  -1  206.16    8.27
   0  -7  -1  190.01    7.19
   0   7   1  207.75    8.68
   0  -7  -2  261.49    8.16
   0  -7  -2  236.96    7.07
   0  -7  -2  263.26    7.66
   0   7   2  281.42    8.81
   0  -7  -3   54.49    4.37
   0  -7  -3   40.88    3.24
   0  -7  -3   43.90    5.06
   0   7   3   46.48    6.07
   0  -7  -4    6.57    1.21
   0  -7  -4    5.90    1.22
   0  -7  -4    6.37    0.88
   0   7   4    4.24    0.97
   0  -7  -5   47.72    6.23
   0  -7  -5   39.72    3.43
   0   7   5   42.34    5.51
   0  -7  -6   65.31    6.93
   0  -7  -6   58.34    4.70
   0   7   6   62.28    6.85
   0   7   7  100.81    7.65
   0  -7  -7   96.79    6.42
   0   7   7  100.67    5.54
   0   7   8   58.17    7.27
   0  -7  -8   58.61    4.32
   0   7   8   52.21    4.10
   0   7   9  172.82    6.74
   0  -7  -9  186.10    7.35
   0   7   9  160.70    8.04
   0   7  10  125.86   11.04
   0  -7 -10  111.89    8.61
   0   7  10  101.57    4.97
   0   7  11    4.90    1.34
   0  -7 -11    1.64    1.13
   0   7  12   15.89    4.09
   0  -7 -12   19.74    3.22
   0   7  13   97.96   10.43
   0  -7 -13  108.00    5.42
   0   7  14   76.16   13.76
   0  -7 -14   93.53    8.97
   0  -8  15   15.58    2.39
   0  -8  15   13.39    2.66
   0  -8  14   92.12    8.66
   0   8 -14   74.08    6.72
   0  -8  14   87.26    8.15
   0  -8  13   18.09    3.44
   0   8 -13   17.41    3.55
   0  -8  13   12.80    2.36
   0  -8  12   51.45    4.77
   0   8 -12   46.81    3.81
   0  -8  12   54.79    4.75
   0  -8  11   27.70    2.62
   0   8 -11   18.27    2.27
   0  -8  11   25.96    2.52
   0  -8  10   58.05    4.69
   0   8 -10   61.03    4.42
   0  -8  10   69.65    4.47
   0  -8   9  252.79    9.49
   0   8  -9  250.13    8.55
   0  -8   9  273.24   10.25
   0  -8   8  747.30   22.38
   0   8  -8  705.28   20.78
   0  -8   8  746.25   22.26
   0  -8   7   13.15    3.28
   0   8  -7    5.74    1.03
   0  -8   7   12.14    3.33
   0  -8   6  259.22   10.20
   0   8  -6  214.70    7.78
   0   8  -6  239.83    8.78
   0  -8   6  248.88   10.20
   0  -8   5  150.23    8.63
   0   8  -5  141.30    7.53
   0   8  -5  145.47    7.72
   0  -8   4  370.87   14.38
   0  -8   3  359.14   14.05
   0  -8   2  395.57   13.67
   0  -8   1  360.10   12.44
   0  -8   0  418.85   14.38
   0   8   0  410.14   14.34
   0  -8  -1  210.27    9.28
   0  -8  -1  190.16    7.87
   0  -8  -1  197.66    8.18
   0   8   1  215.36    9.78
   0  -8  -2   75.50    4.40
   0  -8  -2   72.53    3.66
   0   8   2   98.73    8.09
   0  -8  -3    7.21    1.43
   0  -8  -3    3.28    0.68
   0   8   3    5.31    1.12
   0  -8  -4   46.37    4.03
   0  -8  -4   46.28    4.23
   0   8   4   47.51    6.83
   0  -8  -5   27.19    3.93
   0  -8  -5   17.79    2.74
   0   8   5   24.76    4.04
   0  -8  -6   27.33    4.62
   0  -8  -6   25.15    2.52
   0   8   6   29.84    3.98
   0  -8  -7  142.24    8.08
   0  -8  -7  149.97    6.90
   0   8   7  158.12   10.78
   0  -8  -8  110.97    8.68
   0  -8  -8  108.32    4.99
   0   8   8  107.59    8.86
   0   8   9    5.46    2.32
   0  -8  -9    3.45    1.41
   0   8   9    3.28    0.99
   0   8  10   20.40    3.13
   0  -8 -10   15.90    2.32
   0   8  10   12.39    2.24
   0   8  11    9.36    1.84
   0  -8 -11    6.78    1.96
   0   8  11    5.76    1.40
   0   8  12    5.46    1.58
   0   8  13   38.30    6.78
   0  -8 -13   35.08    5.31
   0  -9  14   98.43    7.56
   0  -9  14   84.37    6.52
   0  -9  13   36.24    4.09
   0  -9  13   37.68    4.15
   0  -9  12   51.85    4.97
   0  -9  12   48.36    4.81
   0  -9  11   22.79    3.11
   0  -9  11   34.43    4.69
   0  -9  10  111.37    7.52
   0  -9  10   96.44    6.78
   0  -9   9  124.26    7.71
   0  -9   9  116.94    7.53
   0  -9   8   20.15    2.90
   0  -9   8   22.71    2.97
   0  -9   7   69.01    4.23
   0   9  -7   69.94    3.08
   0  -9   7   67.52    3.98
   0  -9   6   95.67    4.89
   0  -9   6   96.78    4.89
   0  -9   5  225.58    9.85
   0  -9   4  171.40    8.79
   0  -9   3  396.56    9.35
   0  -9   2  279.09   10.87
   0  -9   1   97.63   13.93
   0  -9   0  194.83    7.89
   0   9   0  214.76    8.81
   0  -9  -1  265.17   10.28
   0   9   1  262.70   10.68
   0  -9  -2  250.10   10.56
   0  -9  -2  248.34    9.89
   0   9   2  263.76   11.75
   0  -9  -3  181.86    9.16
   0   9   3  182.11   12.71
   0  -9  -4   28.02    2.46
   0  -9  -4   23.59    3.85
   0   9   4   25.80    3.62
   0  -9  -5  426.47   13.23
   0  -9  -5  408.71   12.18
   0   9   5  420.26   13.65
   0  -9  -6  101.26    5.45
   0  -9  -6   86.55    4.13
   0   9   6   87.46    9.74
   0  -9  -7  156.73    9.72
   0  -9  -7  150.27   18.53
   0   9   7  160.32    6.35
   0  -9  -8  137.28    7.45
   0  -9  -8  125.82    5.54
   0   9   8  138.16    6.22
   0  -9  -9   36.28    3.81
   0  -9  -9   33.30    3.35
   0   9   9   34.73    5.46
   0  -9 -10    9.90    1.88
   0  -9 -10   12.48    2.00
   0   9  10    8.71    1.87
   0  -9 -11   20.65    4.52
   0  -9 -11   23.77    5.10
   0  -9 -12    6.54    1.82
   0   9  13   54.27    9.60
   0  -9 -13   38.12    9.81
   0 -10  13   73.95    6.09
   0 -10  13   70.03    6.01
   0 -10  12   41.19    5.03
   0 -10  12   25.47    4.43
   0 -10  11   43.20    4.71
   0 -10  11   36.53    4.64
   0 -10  10   39.93    4.86
   0 -10  10   39.09    4.91
   0 -10   9   35.45    3.88
   0 -10   9   27.40    3.99
   0 -10   8    1.90    2.10
   0 -10   8    4.40    2.53
   0 -10   7    7.74    1.78
   0 -10   7   14.01    3.42
   0 -10   6   34.12    4.18
   0 -10   6   38.07    4.76
   0 -10   5   54.44    8.89
   0 -10   4   30.83    3.22
   0 -10   3  258.10   12.91
   0 -10   2   81.31    4.12
   0 -10   1   54.88    3.13
   0 -10   0   13.56    3.09
   0  10   0   11.83    2.41
   0 -10  -1  153.40    6.56
   0  10   1  147.82    6.31
   0 -10  -2  215.49    7.99
   0  10   2  223.48    8.83
   0 -10  -3  312.93    9.13
   0  10   3  320.15   10.14
   0 -10  -4   42.98    5.11
   0 -10  -4   32.87    4.70
   0  10   4   45.70    6.02
   0 -10  -5  339.00   14.70
   0 -10  -5  339.91   13.98
   0  10   5  331.94   14.32
   0 -10  -6  215.57    8.37
   0 -10  -6  191.68    7.06
   0  10   6  213.29   15.70
   0 -10  -7   77.22    4.41
   0 -10  -7   61.21    7.40
   0  10   7   61.59    9.36
   0 -10  -8   86.89    5.30
   0 -10  -8   72.81    9.42
   0  10   8   78.53    8.10
   0 -10  -9   19.91    3.83
   0 -10  -9   15.78    2.89
   0  10   9   18.68    3.05
   0 -10 -10   30.22    4.75
   0 -10 -10   32.36    3.35
   0  10  10   18.72    3.80
   0 -10 -11   87.72    8.49
   0 -10 -11   79.87    7.95
   0 -11  12   35.86    5.41
   0 -11  12   23.90    4.57
   0 -11  11   43.14    4.57
   0 -11  11   45.65    4.97
   0 -11  10   65.52    7.06
   0 -11  10   70.99    6.73
   0 -11   9   36.79    4.27
   0 -11   9   50.87    5.45
   0 -11   8   48.12    4.51
   0 -11   8   45.05    4.29
   0 -11   7   20.74    2.75
   0 -11   7   36.67    4.73
   0 -11   6   45.74    2.90
   0 -11   6   43.39    2.93
   0 -11   5   18.64    2.72
   0 -11   4   47.83    4.24
   0 -11   3  363.53   15.60
   0 -11   2   48.62    3.49
   0 -11   1    4.63    1.64
   0 -11   0   20.84    2.77
   0 -11  -1   75.62    4.64
   0  11   1   76.33    8.38
   0 -11  -2   82.88    4.75
   0  11   2   77.26    8.23
   0 -11  -3   75.95    7.85
   0  11   3   78.85    9.65
   0 -11  -4   98.98    6.66
   0  11   4   91.27    9.19
   0 -11  -5   24.03    2.73
   0  11   5   20.40    3.91
   0 -11  -6  228.74    7.89
   0  11   6  201.50   14.46
   0 -11  -7   41.68    4.17
   0  11   7   35.46    6.26
   0 -11  -8   30.51    4.02
   0  11   8   28.07    4.41
   0  11   9    3.76    1.77
   0 -11 -10   78.08    6.18
   0 -12  10   98.49    9.65
   0 -12  10   89.12    8.99
   0 -12   9  120.51   10.53
   0 -12   9   98.57    9.13
   0 -12   8    8.78    2.68
   0 -12   8   13.52    2.90
   0 -12   7  140.87    6.87
   0 -12   7  132.72    6.97
   0 -12   6  106.05    7.71
   0 -12   6   96.89    7.48
   0 -12   5   91.65    5.84
   0 -12   4   41.18    5.05
   0 -12   3   51.61    4.62
   0 -12   2  128.70    4.67
   0 -12   1   20.41    2.73
   0 -12   0  157.74    5.39
   0 -12  -1  115.90    4.26
   0 -12  -2   63.76    5.06
   0  12   2   59.60    9.81
   0 -12  -3   16.88    2.95
   0  12   3   16.03    4.55
   0 -12  -4  100.30    7.28
   0  12   4   69.98   12.21
   0 -12  -5   77.40    5.72
   0  12   5   59.48    8.50
   0 -12  -6   55.00    5.87
   0 -12  -7   69.14    6.66
   0  12   7   53.41   10.63
   0 -12  -8   58.44    8.22
   0  12   8   38.30    7.51
   0 -13   8   12.67    2.79
   0 -13   8    6.61    2.55
   0 -13   7  136.43   13.01
   0 -13   7  139.96   13.46
   0 -13   6  188.53   15.80
   0 -13   6  223.13   18.91
   0 -13   5   22.34    3.79
   0 -13   4   10.82    2.95
   0 -13   2  115.90    5.72
   0 -13   1  109.43    5.60
   0 -13   0   65.93    7.07
   0 -13  -1   60.85    6.71
   0 -13  -2   39.31    4.71
   0 -13  -3   40.80    4.89
   0 -13  -4   17.22    3.01
   0 -13  -5   17.90    3.65
   0  13   5   20.80    3.75
   0 -13  -6   20.09    4.06
   0  13   6   13.26    3.75
   0 -14   5    3.50    2.30
   0 -14   5    6.31    2.54
   0 -14   4   13.75    3.06
   0 -14   4    6.88    2.61
   0 -14   3   36.32    5.04
   0 -14   1   28.58    5.19
   0 -14   0   27.54    4.99
   0 -14  -1   29.54    4.21
   0 -14  -2   10.45    2.75
   0 -14  -3    5.93    2.46
   1 -14  -3   16.34    3.41
  -1  14   3   11.60    3.54
   1 -14  -2   47.77    6.96
   1 -14  -1   83.81    8.23
   1 -14   0   42.85    4.57
   1 -14   1  107.53   10.49
   1 -14   2   18.20    4.06
   1 -14   3    0.94    1.68
   1 -14   4    6.46    2.74
   1 -14   5   26.76    4.75
   1 -14   5   37.16    5.67
   1 -13  -6   29.01    7.86
  -1  13   6   25.63    6.71
   1 -13  -5   43.16    4.44
  -1  13   5   34.63    6.40
   1 -13  -4   12.16    2.81
  -1  13   4   15.25    3.60
   1 -13  -3   32.59    4.59
  -1  13   3   29.56    6.32
   1 -13  -2   57.96    6.44
  -1  13   2   49.03    8.84
   1 -13  -1   80.18    7.08
  -1  13   1   63.53   11.78
   1 -13   0   44.82    5.17
   1 -13   1   61.00    5.52
   1 -13   2   63.25    7.06
   1 -13   3   11.93    3.37
   1 -13   4   37.29    4.58
   1 -13   5   50.13    5.78
   1 -13   6   41.02    4.95
   1 -13   6   31.28    5.22
   1 -13   7   69.35    8.36
   1 -13   7   73.14    8.80
   1 -13   8   15.68    3.38
   1 -12  -9   10.17    2.69
  -1  12   9    7.69    1.50
   1 -12  -8   45.88    4.80
  -1  12   8   44.71    7.18
   1 -12  -7   77.10    7.25
  -1  12   7   66.13    9.29
   1 -12  -6   92.29   18.51
  -1  12   6   74.01   10.11
   1 -12  -5   29.10    3.71
  -1  12   5   25.41    4.50
   1 -12  -4   52.05    4.48
  -1  12   4   50.87    6.41
   1 -12  -3   46.18    4.31
  -1  12   3   51.97    6.53
   1 -12  -2  150.83   18.08
  -1  12   2  144.88    5.26
   1 -12  -1   43.30    4.03
  -1  12   1   41.58    7.76
   1 -12   0    2.70    1.60
  -1  12   0    2.26    0.99
   1 -12   1    6.03    2.33
   1 -12   2  236.12    7.56
   1 -12   3   71.23    4.80
   1 -12   4   21.53    3.29
   1 -12   5   35.98    4.49
   1 -12   6   31.89    3.91
   1 -12   7   69.61    6.29
   1 -12   7   70.91    6.55
   1 -12   8   17.59    3.10
   1 -12   8   20.19    3.20
   1 -12   9   74.66    8.89
   1 -12   9   79.96    8.15
   1 -12  10   38.01    5.73
   1 -12  10   39.83    5.80
   1 -11 -10   14.89    3.35
  -1  11  10   10.47    3.87
   1 -11  -9   44.82    5.35
  -1  11   9   37.57    5.33
   1 -11  -8   91.24   18.28
  -1  11   8   82.48    9.70
   1 -11  -7   28.16    3.41
  -1  11   7   33.46    6.04
   1 -11  -6   86.04    8.93
  -1  11   6   96.12   12.12
   1 -11  -5   20.82    2.80
  -1  11   5   18.48    3.43
   1 -11  -4   60.35    4.94
  -1  11   4   66.83    6.75
   1 -11  -3  143.68    8.94
  -1  11   3  147.34    9.83
   1 -11  -2   47.27    4.42
  -1  11   2   50.24    5.44
   1 -11  -1   11.37    2.77
  -1  11   1    9.93    2.00
   1 -11   0   53.42    3.56
  -1  11   0   60.85    6.01
   1 -11   1  110.36    5.74
  -1  11  -1  101.61    8.97
   1 -11   2   29.34    3.67
   1 -11   3   74.78    4.69
   1 -11   4   32.53    3.52
   1 -11   5   59.70    5.06
   1 -11   6   89.15    6.46
   1 -11   7   12.65    2.52
   1 -11   7   19.65    3.16
   1 -11   8   60.68    5.04
   1 -11   8   68.17    5.86
   1 -11   9    7.00    1.75
   1 -11   9   11.73    3.33
   1 -11  10    4.26    2.53
   1 -11  10   10.64    3.17
   1 -11  11   31.97    4.60
   1 -11  11   27.00    5.09
   1 -11  12   91.39    7.17
   1 -11  12  100.35    7.77
   1 -10 -12    0.64    1.76
   1 -10 -12    3.77    1.73
   1 -10 -11    6.05    1.84
   1 -10 -11    2.88    1.35
  -1  10  11    5.68    1.46
   1 -10 -10   27.78    4.59
   1 -10 -10   23.47    3.72
  -1  10  10   16.67    3.84
   1 -10  -9   32.46    3.93
   1 -10  -9   23.24    3.05
  -1  10   9   19.47    3.79
   1 -10  -8   76.45    5.67
   1 -10  -8   71.26    6.96
  -1  10   8   78.62    7.53
   1 -10  -7   79.66    5.71
   1 -10  -7   69.07    6.17
  -1  10   7   74.43    8.51
   1 -10  -6   35.31    3.35
   1 -10  -6   35.85    3.95
  -1  10   6   34.10    4.82
   1 -10  -5  243.42    9.06
   1 -10  -5  239.80    8.23
  -1  10   5  238.73   10.14
   1 -10  -4   22.92    3.03
   1 -10  -4   16.67    1.83
  -1  10   4   22.08    3.54
   1 -10  -3   93.10    5.01
  -1  10   3   89.57    9.71
   1 -10  -2  286.91   44.81
  -1  10   2  304.98    9.57
   1 -10  -1  142.70    6.05
  -1  10   1  155.00    8.59
   1 -10   0  123.41    5.47
  -1  10   0  135.94   11.56
   1 -10   1  178.02    7.75
  -1  10  -1  172.81   11.21
   1 -10   2   22.59    3.39
  -1  10  -2   41.03    5.54
   1 -10   3   59.78    4.12
   1 -10   4   50.14    4.24
   1 -10   5   91.47    5.41
   1 -10   6   25.59    3.75
   1 -10   7   45.96    4.59
   1 -10   7   33.94    3.57
   1 -10   8   22.30    2.80
   1 -10   8   20.31    3.05
   1 -10   9   33.16    3.79
   1 -10   9   39.65    4.34
   1 -10  10    2.61    1.59
   1 -10  10    8.11    2.95
   1 -10  11   23.21    4.23
   1 -10  11   18.20    3.55
   1 -10  12   64.03    6.37
   1 -10  12   58.25    6.03
   1 -10  13   50.61    7.27
   1 -10  13   37.68    5.62
   1  -9 -13   14.76    3.29
   1  -9 -13   14.74    2.94
   1  -9 -12    5.08    2.17
   1  -9 -12    0.68    1.46
   1  -9 -11   42.37    5.00
   1  -9 -11   31.36    5.51
  -1   9  11   25.84    4.67
   1  -9 -10   23.02    4.31
   1  -9 -10   22.21    3.03
  -1   9  10   18.59    3.67
   1  -9  -9   50.27    4.39
   1  -9  -9   52.46    5.60
  -1   9   9   46.63    5.72
   1  -9  -8  146.12    9.00
   1  -9  -8  146.23    8.52
  -1   9   8  139.64    8.40
   1  -9  -7  294.65   16.88
   1  -9  -7  282.92    9.43
  -1   9   7  275.94    9.37
   1  -9  -6    4.74    2.32
   1  -9  -6    5.78    1.17
  -1   9   6    8.89    1.52
   1  -9  -5  246.03   12.34
   1  -9  -5  241.26   11.62
  -1   9   5  226.41   11.47
   1  -9  -4   29.94    3.31
   1  -9  -4   28.90    3.87
  -1   9   4   26.55    4.74
   1  -9  -3   44.48    4.52
   1  -9  -3   30.98    2.82
   1  -9  -3   35.54    3.01
  -1   9   3   43.64    7.01
   1  -9  -2  471.09   10.45
   1  -9  -2  425.77    8.14
   1  -9  -2  435.18    8.42
  -1   9   2  487.54   11.60
   1  -9  -1  365.33    8.97
  -1   9   1  397.93    9.66
   1  -9   0  136.58    7.98
   1  -9   1  453.78   10.58
  -1   9  -1  463.47   11.50
   1  -9   2  352.05    8.69
  -1   9  -2  384.38    9.15
   1  -9   3  200.68   24.77
  -1   9  -3  241.26   14.43
   1  -9   4  166.36    8.81
   1  -9   5  130.62   16.43
   1  -9   6   89.57    4.68
   1  -9   7  246.98    9.41
   1  -9   7  240.38    9.09
   1  -9   8  220.63    8.70
   1  -9   8  208.95    8.20
   1  -9   9  127.60    8.18
   1  -9   9  123.98    7.79
   1  -9  10   34.81    4.37
   1  -9  10   36.33    4.02
   1  -9  11   19.91    3.01
   1  -9  11   21.92    3.39
   1  -9  12   60.43    6.76
   1  -9  12   68.05    6.38
   1  -9  13    5.31    2.07
   1  -9  13    8.56    2.77
   1  -9  14   55.38    7.84
   1  -9  14   50.41    7.21
  -1   8  14   48.96    9.42
   1  -8 -14   42.18    6.79
  -1   8  13   38.39    6.02
   1  -8 -13   44.11    4.97
  -1   8  12    8.73    2.63
   1  -8 -12    6.58    2.22
  -1   8  12    2.15    0.75
  -1   8  11   82.13   10.50
   1  -8 -11   68.50    5.12
  -1   8  11   67.25    8.01
  -1   8  10  131.99   12.27
   1  -8 -10  132.12    5.88
  -1   8  10  123.08    6.21
   1  -8  -9   86.36    8.63
   1  -8  -9   74.04    4.00
  -1   8   9   69.07    7.15
   1  -8  -8  167.56   26.28
   1  -8  -8  154.71    7.91
  -1   8   8  156.49    7.38
   1  -8  -7  244.77   12.36
   1  -8  -7  237.15   11.56
  -1   8   7  229.40   11.42
   1  -8  -6   52.35    8.14
   1  -8  -6   45.15    4.07
  -1   8   6   48.12    7.08
   1  -8  -5    5.08    2.64
   1  -8  -5    1.77    0.99
  -1   8   5    2.34    0.85
   1  -8  -4  258.47   10.01
   1  -8  -4  226.45    8.35
   1  -8  -4  277.51   10.47
  -1   8   4  279.84   11.11
   1  -8  -3   27.78    3.28
   1  -8  -3   19.48    2.59
   1  -8  -3   23.77    2.06
  -1   8   3   27.24    3.84
   1  -8  -2  226.55    9.28
   1  -8  -2  200.04    7.85
   1  -8  -2  213.10    8.22
  -1   8   2  242.76   15.56
   1  -8  -1  246.97   10.80
  -1   8   1  263.44   11.44
   1  -8   0  413.35   14.23
   1  -8   1  629.34   12.90
  -1   8  -1  640.04   13.02
   1  -8   2  586.48   12.21
  -1   8  -2  551.64   14.17
   1  -8   3  233.95    9.74
  -1   8  -3  280.02   11.20
   1  -8   4  289.17   11.71
   1  -8   5  304.31   11.81
  -1   8  -5  296.06   10.59
  -1   8  -5  288.65   10.34
   1  -8   6  967.72   19.85
  -1   8  -6  932.93   17.72
   1  -8   7  126.37    7.45
  -1   8  -7  115.78    6.61
   1  -8   7  116.53    6.81
   1  -8   8  975.00  114.10
  -1   8  -8  909.39   26.76
   1  -8   8  924.26   27.18
   1  -8   9  265.06    9.03
  -1   8  -9  271.88    8.14
   1  -8   9  249.21    9.24
   1  -8  10   98.75    5.60
  -1   8 -10   93.70    4.50
   1  -8  10   97.21    5.35
   1  -8  11  148.61    7.24
  -1   8 -11  142.92    6.01
   1  -8  12  146.90    6.14
  -1   8 -12  117.85    6.45
   1  -8  12   94.49   13.52
   1  -8  13   12.82    3.34
  -1   8 -13   10.62    2.40
   1  -8  13    4.62    2.20
   1  -8  14   74.90    7.54
   1  -8  14   55.22   10.58
   1  -8  15  139.08   10.28
  -1   7  15   62.31   12.76
   1  -7 -15   95.62    7.39
  -1   7  14   79.20   11.31
   1  -7 -14   84.80    9.47
  -1   7  13   39.53    6.20
   1  -7 -13   25.56    5.39
  -1   7  12   69.71    8.16
   1  -7 -12   72.82    7.53
  -1   7  12   50.89    7.23
  -1   7  11   66.68    6.87
   1  -7 -11   64.72    4.73
  -1   7  11   55.90    7.33
  -1   7  10  254.91   31.45
   1  -7 -10  245.58    8.87
  -1   7  10  229.80    8.04
  -1   7   9  101.57    8.83
   1  -7  -9   83.22    4.27
  -1   7   9   88.19    7.29
  -1   7   8  284.01   14.32
   1  -7  -8  256.86   12.64
  -1   7   8  267.46   13.25
   1  -7  -7  155.01   12.70
   1  -7  -7  148.07    7.29
  -1   7   7  136.13    7.26
   1  -7  -6   31.65    5.41
   1  -7  -6   26.50    3.53
  -1   7   6   27.41    4.34
   1  -7  -5    3.36    1.45
   1  -7  -5    3.80    1.35
  -1   7   5    1.78    0.70
   1  -7  -4   78.92    5.87
   1  -7  -4   62.40    4.65
   1  -7  -4   81.60    6.15
  -1   7   4   74.60    5.54
   1  -7  -3   68.78    5.22
   1  -7  -3   67.60    4.79
   1  -7  -3   75.29    5.83
  -1   7   3   75.95    6.42
   1  -7  -2  313.68    9.69
   1  -7  -2  299.39    8.76
   1  -7  -2  298.17    8.89
  -1   7   2  308.40    9.47
   1  -7  -1   21.56    2.04
   1  -7  -1   19.89    1.37
   1  -7  -1   24.81    1.91
  -1   7   1   28.40    3.99
   1  -7   0  522.90   10.23
  -1   7   0  536.75   10.84
   1  -7   1  269.33    8.51
  -1   7  -1  222.90   16.89
   1  -7   2   35.56    2.74
  -1   7  -2   44.70    4.15
   1  -7   3   12.32    1.56
  -1   7  -3   16.41    2.52
   1  -7   4   47.33    4.08
  -1   7  -4   46.92    3.27
  -1   7  -4   49.17    3.74
   1  -7   5  133.53    6.77
  -1   7  -5  120.06    5.43
  -1   7  -5  130.46    5.88
   1  -7   6  757.08   17.92
  -1   7  -6  688.30   15.81
  -1   7  -6  737.42   16.97
   1  -7   7  219.61    8.95
  -1   7  -7  185.16   25.78
  -1   7  -7  207.87    8.57
   1  -7   7  212.93    8.55
   1  -7   8  250.95   10.97
  -1   7  -8  241.92    9.95
   1  -7   8  243.21   10.44
   1  -7   9  450.34   14.06
  -1   7  -9  441.87   13.15
   1  -7   9  462.96   14.12
   1  -7  10   10.33    2.34
  -1   7 -10    9.51    1.72
   1  -7  10   11.40    2.16
   1  -7  11   34.19    3.79
  -1   7 -11   31.53    2.74
   1  -7  11   22.82    3.30
   1  -7  12  113.06    4.61
  -1   7 -12  119.99    3.77
   1  -7  12  127.26    4.62
   1  -7  13  112.83    6.91
  -1   7 -13   97.22    7.55
   1  -7  13  114.10    6.68
   1  -7  14  113.64    5.97
  -1   7 -14  101.75    4.66
   1  -7  14   85.57    7.05
   1  -7  15  269.28   70.26
  -1   7 -15  229.04   20.88
  -1   6  15   71.31    9.96
   1  -6 -15  105.44   10.32
  -1   6  14   88.87   10.49
   1  -6 -14   87.65    9.25
  -1   6  13   94.44   11.57
   1  -6 -13   92.01    5.62
  -1   6  12  117.14   13.44
   1  -6 -12  113.63   11.28
  -1   6  12   90.11    9.14
  -1   6  11  125.55   10.99
   1  -6 -11  129.74    8.09
  -1   6  11  115.26    7.56
  -1   6  10  137.53   12.99
   1  -6 -10  106.91    5.44
  -1   6  10  110.82    5.35
  -1   6   9  147.97   15.46
   1  -6  -9  129.16   15.97
  -1   6   9  123.22    6.71
  -1   6   8  313.82   43.87
   1  -6  -8  294.60   11.59
  -1   6   8  284.05   11.69
  -1   6   7  514.17   12.87
   1  -6  -7  482.97   11.63
  -1   6   7  453.93   12.07
  -1   6   6  120.51    7.11
   1  -6  -6  113.05    5.45
  -1   6   6  123.55    6.04
   1  -6  -5  259.15    8.18
   1  -6  -5  250.97    7.79
  -1   6   5  248.81    7.85
   1  -6  -4  174.98    7.41
   1  -6  -4  161.16    6.23
   1  -6  -4  185.70    7.31
  -1   6   4  163.07    6.56
   1  -6  -3  172.21    7.02
   1  -6  -3  162.65    6.36
   1  -6  -3  179.07    6.90
  -1   6   3  179.28    7.28
   1  -6  -2  396.32   13.04
   1  -6  -2  384.63   11.38
   1  -6  -2  388.63   11.41
  -1   6   2  414.39   12.88
   1  -6  -1 1175.88   14.24
   1  -6  -1 1230.71   13.66
   1  -6  -1 1278.74   14.20
   1  -6   0  418.54   12.69
  -1   6   0  426.56   13.02
   1  -6   1  172.59    7.04
  -1   6  -1  194.89    7.85
   1  -6   2   34.36    2.46
  -1   6  -2   44.44    5.98
   1  -6   3  203.78    8.46
  -1   6  -3  197.84    7.40
  -1   6  -3  194.61    7.38
  -1   6  -3  200.86    8.89
   1  -6   4   72.23    4.64
  -1   6  -4   74.45    4.41
  -1   6  -4   74.17    4.29
   1  -6   5    2.72    1.64
  -1   6  -5    0.80    0.36
  -1   6  -5    1.61    0.59
   1  -6   6  302.43   10.78
  -1   6  -6  278.51   11.70
  -1   6  -6  289.36    9.76
   1  -6   7 1225.15   28.16
  -1   6  -7 1188.52   27.16
   1  -6   7 1192.91   27.27
   1  -6   8   12.11    2.27
  -1   6  -8   16.50    2.38
   1  -6   8   15.81    2.50
   1  -6   9  235.83   10.14
  -1   6  -9  262.86   10.77
   1  -6   9  245.74   10.36
   1  -6  10    6.93    1.87
  -1   6 -10    6.23    1.65
   1  -6  10    4.40    1.30
   1  -6  11    9.95    2.75
  -1   6 -11    2.79    1.15
   1  -6  12  201.36    8.97
  -1   6 -12  201.59    8.52
   1  -6  12  188.59    7.77
   1  -6  13  136.92    4.95
  -1   6 -13  135.71    4.24
   1  -6  13  136.60    4.40
   1  -6  14   71.07    6.34
  -1   6 -14   78.03    5.75
   1  -6  14   69.22    5.66
   1  -6  15  113.16   10.05
  -1   6 -15  105.03    9.18
   1  -6  16   32.51    5.29
  -1   6 -16   28.49    4.39
  -1   5  16   33.25    5.96
   1  -5 -16   42.37    7.13
  -1   5  15  104.45   16.20
   1  -5 -15  109.85   15.02
  -1   5  14  173.21   13.20
   1  -5 -14  197.12    9.06
  -1   5  13   60.62    8.88
   1  -5 -13   66.87    4.42
  -1   5  13   47.73    5.92
  -1   5  12   51.19    6.05
   1  -5 -12   47.38    4.43
  -1   5  12   43.86    5.13
  -1   5  11  294.15    9.26
   1  -5 -11  287.63   44.99
  -1   5  11  281.09   43.76
  -1   5  10  124.16   12.88
   1  -5 -10  115.79    4.95
  -1   5  10  105.04    4.71
  -1   5   9   57.50    6.19
   1  -5  -9   51.72    4.70
  -1   5   9   51.14    6.40
  -1   5   8  300.93   11.84
   1  -5  -8  301.12   11.76
  -1   5   8  291.78   11.52
  -1   5   7  803.01   16.19
   1  -5  -7  796.06   15.64
  -1   5   7  755.36   15.48
  -1   5   6  625.70   13.34
   1  -5  -6  616.64   11.50
  -1   5   6  551.48   12.01
  -1   5   5   80.07    4.96
   1  -5  -5   75.62    4.05
  -1   5   5   81.95    5.01
   1  -5  -4  447.43   13.51
   1  -5  -4  435.92   13.23
  -1   5   4  429.27   13.50
   1  -5  -3 1327.46   16.80
  -1   5   3 1336.25   16.85
   1  -5  -2 1116.97   13.32
  -1   5   2 1099.67   13.09
   1  -5  -1  664.26   16.10
   1  -5   0   18.66    1.77
  -1   5   0   16.07    1.38
   1  -5   0   19.67    0.94
   1  -5   0   18.26    0.80
  -1   5  -1 1462.96   18.08
   1  -5   2  295.07   11.76
  -1   5  -2  296.64   11.23
  -1   5  -2  305.49   12.04
   1  -5   3  417.12   10.79
  -1   5  -3  405.17    9.94
  -1   5  -3  407.16    9.96
  -1   5  -3  422.17   10.97
   1  -5   4  500.83   15.11
  -1   5  -4  515.74   15.20
  -1   5  -4  497.48   14.53
   1  -5   5   18.10    1.70
  -1   5  -5   22.00    2.62
  -1   5  -5   26.51    1.80
   1  -5   6  359.67   10.97
  -1   5  -6  349.53   10.19
  -1   5  -6  347.93   10.17
   1  -5   7  762.91   15.30
  -1   5  -7  724.71   13.94
   1  -5   7  709.25   13.93
   1  -5   8  197.23    8.44
  -1   5  -8  187.14    7.71
   1  -5   8  197.73    8.23
   1  -5   9   23.80    3.53
  -1   5  -9   19.41    2.86
   1  -5   9   17.70    2.71
   1  -5  10    4.71    2.44
  -1   5 -10    9.13    2.03
   1  -5  10   13.66    2.57
   1  -5  11  134.84    7.04
  -1   5 -11  130.13   12.18
   1  -5  11  134.77    6.54
   1  -5  12  175.34    7.31
  -1   5 -12  179.14   13.14
   1  -5  12  185.44    6.87
   1  -5  13   81.60    6.29
  -1   5 -13   54.08    4.57
   1  -5  13   77.41    5.22
   1  -5  14   44.69    4.59
  -1   5 -14   32.87    3.79
   1  -5  15   67.23    6.23
  -1   5 -15   64.04    6.70
   1  -5  16   80.17    8.18
  -1   5 -16   76.19    8.91
  -1   4  16   80.14   10.37
   1  -4 -16   89.63    8.75
  -1   4  15  104.65    8.79
   1  -4 -15  108.96    5.82
  -1   4  14   77.09    8.88
   1  -4 -14   77.00    5.69
  -1   4  13    8.75    2.07
   1  -4 -13    5.11    2.46
  -1   4  13    4.32    0.80
  -1   4  12  240.45   14.53
   1  -4 -12  262.16   15.43
  -1   4  12  214.61    7.42
  -1   4  11  307.12   10.41
   1  -4 -11  275.05   13.59
  -1   4  11  294.60   14.14
  -1   4  10  432.31    9.96
   1  -4 -10  415.97   10.60
  -1   4  10  398.45    8.35
  -1   4   9  166.40    8.80
   1  -4  -9  145.91    7.67
  -1   4   9  144.71    7.35
  -1   4   8  328.28   11.55
   1  -4  -8  297.27   10.38
  -1   4   8  298.09   10.18
  -1   4   7  154.33    6.41
   1  -4  -7  149.85    6.23
  -1   4   7  162.36    6.45
  -1   4   6  242.90    9.63
   1  -4  -6  228.88    9.04
  -1   4   6  232.77    9.04
   1  -4  -5  605.80   18.51
  -1   4   5  600.36   17.73
   1  -4  -3  506.41   12.69
   1  -4  -3  565.21   14.73
   1  -4  -3  570.13   14.05
  -1   4   3  523.38   12.90
  -1   4   3  563.83   14.14
   1  -4  -3  474.32   11.86
   1  -4  -2  104.27    3.82
   1  -4  -2  113.21    3.52
   1  -4  -2  112.50    3.19
  -1   4   2  110.21    3.14
   1  -4  -2  108.23    3.32
   1  -4  -1   22.07    1.30
   1  -4  -1   27.17    1.77
  -1   4   1   23.47    0.89
   1  -4  -1   25.35    1.32
   1  -4   0   25.31    1.38
   1  -4   0   30.16    0.90
  -1   4   0   28.82    0.88
  -1   4   0   31.19    2.20
   1  -4   0   27.55    2.07
   1  -4   1   95.81    3.32
   1  -4   1   98.62    2.61
  -1   4  -1   98.59    2.59
  -1   4  -1  117.87    3.55
   1  -4   1   93.57    5.92
   1  -4   2  362.27    6.92
  -1   4  -2  351.48    6.02
  -1   4  -2  356.18    6.09
  -1   4  -2  369.59    7.26
   1  -4   3  590.93   14.95
  -1   4  -3  559.63   13.64
  -1   4  -3  571.48   13.94
   1  -4   3  547.79   13.62
   1  -4   4  261.58   10.44
  -1   4  -4  242.63    9.39
  -1   4  -4  243.62    9.42
   1  -4   4  240.53    9.39
   1  -4   5   38.92    2.64
  -1   4  -5   49.24    2.37
  -1   4  -5   47.32    2.24
   1  -4   5   42.99    2.84
   1  -4   6  364.83   11.41
  -1   4  -6  347.11   10.46
  -1   4  -6  357.16   10.75
   1  -4   6  364.77   11.07
   1  -4   7  276.15    8.62
  -1   4  -7  286.22    8.64
   1  -4   7  267.82    8.21
   1  -4   8   49.39    4.20
  -1   4  -8   48.94    3.81
   1  -4   8   50.25    4.00
   1  -4   9   24.77    2.81
  -1   4  -9   25.16    2.63
   1  -4   9   21.28    2.14
   1  -4  10  203.98    8.37
  -1   4 -10  188.23    7.50
   1  -4  10  198.57    7.79
   1  -4  11  272.77   13.79
  -1   4 -11  264.02   13.03
   1  -4  11  258.11   12.60
   1  -4  12  469.95   13.42
  -1   4 -12  450.72   13.58
   1  -4  12  445.72   11.94
   1  -4  13  149.01    6.99
  -1   4 -13  152.04    6.87
   1  -4  13  128.81    8.12
   1  -4  14   86.60    5.29
  -1   4 -14   88.18    4.86
   1  -4  15   48.21    4.81
  -1   4 -15   45.89    4.31
   1  -4  16   47.62    5.65
  -1   4 -16   37.89    3.95
   1  -3 -17   68.95    8.63
   1  -3 -16   66.00   12.35
   1  -3 -15   20.88    3.18
   1  -3 -14   48.85    5.07
   1  -3 -13    7.69    2.14
  -1   3  13    7.07    1.27
   1  -3 -12   79.79    4.37
  -1   3  12   77.65    3.69
   1  -3 -11  854.53   17.70
  -1   3  11  812.32   16.03
   1  -3 -10  337.79    8.26
  -1   3  10  336.33    7.46
   1  -3  -9  204.63    9.09
  -1   3   9  194.41    8.39
   1  -3  -8  346.48   10.78
  -1   3   8  369.06   10.87
   1  -3  -7  348.46   10.76
  -1   3   7  356.19   10.75
   1  -3  -7  319.20    9.65
   1  -3  -6  350.40   10.67
  -1   3   6  363.25   10.93
   1  -3  -6  334.51   10.06
   1  -3  -5 2285.53   27.09
   1  -3  -4  480.08    8.83
  -1   3   4  448.15    7.97
  -1   3   4  470.77    8.45
   1  -3  -4  476.16    8.54
   1  -3  -3   23.50    2.81
   1  -3  -3   21.92    1.19
  -1   3   3   19.55    0.99
  -1   3   3   19.20    1.22
   1  -3  -3   20.60    1.25
   1  -3  -2  424.28    7.60
   1  -3  -2  430.16    7.74
   1  -3  -2  429.74    7.86
  -1   3   2  410.49    7.12
  -1   3   2  437.11    7.88
   1  -3  -2  439.09    7.82
   1  -3  -1 4347.72   40.69
   1  -3  -1 4229.48   39.12
  -1   3   1 4385.60   41.11
   1  -3  -1 4243.56   39.73
   1  -3   0 1262.30   12.56
   1  -3   0 1265.20   11.83
  -1   3   0 1227.50   11.48
  -1   3   0 1210.81   12.76
   1  -3   0 1180.36   11.76
   1  -3   1 1095.78   11.10
   1  -3   1 1082.80   10.18
  -1   3  -1 1082.83   10.15
  -1   3  -1 1105.86   11.10
   1  -3   2  204.38    5.78
   1  -3   2  215.16    5.76
  -1   3  -2  207.86    5.54
  -1   3  -2  207.85    5.88
   1  -3   3  298.17    5.88
  -1   3  -3  297.06    5.29
   1  -3   3  296.54    5.74
   1  -3   4  444.55    8.27
  -1   3  -4  467.76    8.24
  -1   3  -4  442.29    7.82
   1  -3   4  441.77    7.92
   1  -3   5  600.14   15.17
  -1   3  -5  580.35   14.36
  -1   3  -5  588.65   14.59
   1  -3   5  572.92   14.38
   1  -3   5  584.73   14.51
   1  -3   6  169.52    7.04
  -1   3  -6  165.36    6.55
   1  -3   6  165.44    6.43
   1  -3   6  158.74    6.33
   1  -3   7  536.38   16.22
  -1   3  -7  512.78   15.33
   1  -3   7  486.06   14.34
   1  -3   7  510.26   15.20
   1  -3   8   45.94    3.37
  -1   3  -8   54.23    3.69
   1  -3   8   38.49    3.60
   1  -3   8   49.41    3.32
   1  -3   9  146.46    7.12
  -1   3  -9  149.62    7.45
   1  -3   9  148.38    6.96
   1  -3  10  241.75    9.64
  -1   3 -10  235.03    9.20
   1  -3  10  237.85    9.05
   1  -3  11  256.16   11.22
  -1   3 -11  255.25   10.72
   1  -3  11  250.79   10.26
   1  -3  12  862.03  134.01
  -1   3 -12  890.35  138.34
   1  -3  12  787.49   20.24
   1  -3  13  300.12   13.18
  -1   3 -13  285.20   12.51
   1  -3  13  259.61   10.84
   1  -3  14  214.47    7.18
  -1   3 -14  215.99    6.71
  -1   3 -15   57.97    5.00
   1  -3  16   16.48    3.03
  -1   3 -16   12.60    2.36
   1  -3  17  130.18    9.79
  -1   3 -17  131.33    9.58
  -1   2  17   58.62    9.73
   1  -2 -17   52.12    6.79
  -1   2  16   35.89    5.47
   1  -2 -16   38.78    5.47
  -1   2  15   58.69    7.92
   1  -2 -15   72.45    5.53
  -1   2  14  107.51   12.75
   1  -2 -14  103.00    6.85
  -1   2  13  109.50    7.89
   1  -2 -13  100.44    5.05
  -1   2  13  107.00    4.64
  -1   2  12   60.49    5.70
   1  -2 -12   57.70    3.54
  -1   2  12   58.80    2.08
  -1   2  11  687.47   15.30
   1  -2 -11  714.29   15.04
  -1   2  11  711.85   14.11
  -1   2  10  116.28    9.28
   1  -2 -10  109.55    6.28
  -1   2  10  110.12    5.79
  -1   2   9  146.37   11.20
   1  -2  -9  143.94    6.96
  -1   2   9  141.73    6.53
  -1   2   8  792.87   15.35
   1  -2  -8  770.79   14.23
  -1   2   8  759.38   13.63
  -1   2   7 1237.63   15.31
  -1   2   7 1248.29   14.56
   1  -2  -7 1155.13   13.55
   1  -2  -6 1125.06   14.83
  -1   2   6 1078.54   13.25
   1  -2  -5  186.59    7.41
   1  -2  -5  212.06    8.57
  -1   2   5  205.54    8.08
   1  -2  -5  202.76    7.98
   1  -2  -4  454.11    8.19
   1  -2  -4  489.91    9.92
  -1   2   4  488.63    8.65
   1  -2  -4  464.95    8.22
   1  -2  -3 1303.63   12.96
   1  -2  -3 1319.11   12.88
  -1   2   3 1279.43   12.42
   1  -2  -2 3040.54   29.11
   1  -2  -2 3152.78   29.54
  -1   2   2 3064.91   28.60
   1  -2  -2 3036.95   28.55
   1  -2  -1 4145.08   38.59
   1  -2  -1 4167.94   38.83
   1  -2   1  299.69    5.48
  -1   2  -1  293.01    5.04
  -1   2  -1  301.27    5.46
   1  -2   2   48.22    2.39
  -1   2  -2   40.30    2.13
  -1   2  -2   47.91    3.02
   1  -2   2   42.23    2.53
   1  -2   3  655.39   11.50
  -1   2  -3  645.23   11.12
  -1   2  -3  678.83   11.65
   1  -2   3  646.30   11.04
   1  -2   4 1578.15   15.76
  -1   2  -4 1533.20   14.87
  -1   2  -4 1599.74   15.55
   1  -2   4 1590.91   15.27
   1  -2   5  947.85   12.25
  -1   2  -5  942.62   11.63
  -1   2  -5  951.68   11.81
   1  -2   5  940.44   11.48
   1  -2   5  940.85   11.50
   1  -2   6 1027.85   13.22
  -1   2  -6 1050.08   13.22
   1  -2   6 1021.10   12.61
   1  -2   6 1031.67   12.61
   1  -2   7  305.90   11.94
  -1   2  -7  304.36   11.79
   1  -2   7  305.13   11.58
   1  -2   7  312.42   17.68
   1  -2   8  567.36   11.05
  -1   2  -8  575.82   10.84
   1  -2   8  557.57    9.94
   1  -2   8  576.12   10.49
   1  -2   9  120.54    5.99
  -1   2  -9  131.55    6.75
   1  -2   9  130.91    5.94
   1  -2   9  137.21    6.45
   1  -2  10   35.64    3.59
  -1   2 -10   46.10    4.71
   1  -2  10   32.02    2.66
   1  -2  10   42.67    3.95
   1  -2  11   74.13    4.85
  -1   2 -11   88.19    5.22
   1  -2  11   63.30    5.23
   1  -2  11   86.11    6.23
   1  -2  12  378.77   11.15
  -1   2 -12  406.63   11.46
   1  -2  12  404.07   10.80
   1  -2  13  356.98   11.61
  -1   2 -13  412.81   12.67
   1  -2  13  366.02   10.60
   1  -2  14   27.29    2.73
  -1   2 -14   34.62    2.62
   1  -2  15   32.39    4.18
  -1   2 -15   34.95    4.50
   1  -2  16   46.60    5.74
  -1   2 -16   50.52    5.69
   1  -2  17   95.74    7.54
  -1   2 -17   94.77    7.06
  -1   1  17   41.30    5.62
   1  -1 -17   36.78    4.98
  -1   1  16   73.22    9.80
   1  -1 -16   85.50   12.01
  -1   1  15  169.74   11.69
   1  -1 -15  174.43    6.19
  -1   1  14  174.99   21.39
   1  -1 -14  177.93    7.88
  -1   1  14  123.71    5.19
  -1   1  13  262.26   14.76
   1  -1 -13  266.87    8.85
  -1   1  13  261.90    8.02
  -1   1  12    4.20    2.10
   1  -1 -12    1.00    2.51
  -1   1  12    2.11    1.03
  -1   1  11   14.22    2.55
   1  -1 -11   10.45    2.16
  -1   1  11   11.41    1.73
  -1   1  10  213.90    8.94
   1  -1 -10  192.61    7.99
  -1   1  10  207.33    8.24
  -1   1   9  105.19    8.48
   1  -1  -9   94.81    5.86
  -1   1   9  104.83    4.36
   1  -1  -9   91.17    5.43
  -1   1   8  643.46   36.47
   1  -1  -8  640.80   36.21
  -1   1   8  633.16   18.64
   1  -1  -8  584.20   17.41
  -1   1   7  317.58   12.71
   1  -1  -7  310.79   12.99
  -1   1   7  330.29   12.81
   1  -1  -7  298.83   11.63
  -1   1   6  102.93    6.45
   1  -1  -6  102.34    4.72
  -1   1   6   97.16    4.26
   1  -1  -6   92.22    4.02
  -1   1   5  984.19   10.89
   1  -1  -5  975.88   10.19
  -1   1   5  973.23    9.86
   1  -1  -5  951.71    9.65
  -1   1   4   76.36    5.23
   1  -1  -4   66.19    2.25
  -1   1   4   63.77    2.12
  -1   1   4   63.02    2.09
   1  -1  -4   68.69    2.23
  -1   1   3 3601.19   34.01
   1  -1  -3 3520.99   33.00
   1  -1  -3 3522.00   32.97
  -1   1   2  861.06    8.60
   1  -1  -2  846.25    8.37
   1  -1  -2  856.88    8.44
  -1   1   0    1.52    0.59
  -1   1  -1  166.60    4.48
   1  -1   1  151.16    4.04
  -1   1  -1  163.54    4.38
  -1   1  -1  141.02    3.84
   1  -1   1  166.29    4.43
  -1   1  -2   42.50    1.64
   1  -1   2   48.64    1.62
  -1   1  -2   42.53    1.39
  -1   1  -2   43.75    1.36
   1  -1   2   43.52    1.29
  -1   1  -3 4486.65   41.95
   1  -1   3 4552.42   42.48
  -1   1  -4  203.65    5.69
   1  -1   4  206.62    5.49
   1  -1   4  199.07    5.35
  -1   1  -5  725.98   12.71
   1  -1   5  799.13   31.96
   1  -1   6 2632.75   30.71
   1  -1   7   77.93    4.55
  -1   1  -7   79.31    4.40
   1  -1   7   78.06    4.06
   1  -1   8  424.29   12.79
  -1   1  -8  421.65   12.51
   1  -1   8  415.23   12.04
   1  -1   9  347.66   12.15
  -1   1  -9  339.14   11.72
   1  -1   9  341.40   11.36
   1  -1  10  211.74    8.82
  -1   1 -10  212.71    9.01
   1  -1  10  194.17    7.62
   1  -1  11   28.01    3.11
  -1   1 -11   30.14    3.37
   1  -1  11   21.86    3.14
   1  -1  12    8.43    2.95
  -1   1 -12    4.06    1.82
   1  -1  12    3.93    0.87
   1  -1  13   55.25    4.11
  -1   1 -13   57.46    3.87
  -1   1 -14   27.45    2.74
   1  -1  15   70.05    5.36
  -1   1 -15   78.94    6.02
   1  -1  16   61.30    8.52
  -1   1 -16   71.76    7.08
   1  -1  17   27.75    5.92
  -1   1 -17   24.00    4.59
  -1   0  17   26.44    5.35
   1   0 -17   31.91    5.08
  -1   0  16   59.67    7.87
   1   0 -16   58.71    9.58
  -1   0  15  217.49   16.79
   1   0 -15  196.71    6.35
  -1   0  14  352.50   15.35
   1   0 -14  353.74   15.33
  -1   0  14  364.29   15.05
  -1   0  13  319.94   14.59
  -1   0  13  312.47    8.57
  -1   0  12  241.60   13.35
  -1   0  12  254.95   12.31
  -1   0  11   31.46    4.95
  -1   0  11   29.36    4.57
  -1   0  10  227.96   10.74
  -1   0  10  231.40    9.18
  -1   0   9  100.40    7.42
   1   0  -9   86.65    5.58
  -1   0   9   87.41    5.66
   1   0  -9   83.37    4.97
  -1   0   8  697.20    9.41
   1   0  -8  684.24    9.16
  -1   0   8  698.45    8.80
   1   0  -8  623.70   18.33
  -1   0   7  507.26   12.93
   1   0  -7  547.55   13.85
  -1   0   7  569.20   14.18
  -1   0   6  216.98    8.73
   1   0  -6  229.92    9.12
  -1   0   6  215.75    8.48
   1   0  -6  213.68    8.38
  -1   0   5  177.77    5.21
  -1   0   5  172.34    4.88
  -1   0   5  183.71    5.17
   1   0  -5  181.43    5.08
  -1   0   4   17.78    1.19
  -1   0   4   17.14    1.08
  -1   0   4   25.33    2.68
   1   0  -4   16.13    1.04
  -1   0   3 2577.18   24.43
  -1   0   3 2510.92   23.79
   1   0  -3 2515.65   23.72
   1   0  -2 2821.39   26.34
  -1   0   1    0.51    0.32
   1   0  -1    0.01    0.36
  -1   0   1    0.04    0.37
  -1   0   0   -0.24    0.19
   1   0   0    0.06    0.29
  -1   0   0    0.37    0.25
  -1   0  -2 1050.73   10.21
   1   0   2 1087.83   10.68
  -1   0  -3 6245.27   57.99
  -1   0  -4 1410.49   13.94
   1   0   4 1432.49   14.29
   1   0   4 1457.65   13.63
  -1   0  -4 1427.56   13.32
  -1   0  -5  473.85    8.52
  -1   0  -5  517.76    9.33
  -1   0  -5  560.30   10.04
   1   0   5  526.61    8.93
  -1   0  -5  522.81    8.85
  -1   0  -6  703.34   17.50
   1   0   6  679.70   16.51
  -1   0  -6  667.75   16.21
  -1   0  -7  339.10   10.39
   1   0   7  358.35   10.51
  -1   0  -7  346.77   10.16
  -1   0  -8  189.62    7.69
   1   0   8  187.30    7.12
  -1   0  -8  179.87    6.82
   1   0   9 1156.83   21.36
  -1   0  -9 1123.82   20.71
   1   0  10  455.06   10.40
   1   0  11    7.30    1.20
   1   0  12    9.06    1.48
  -1   0 -13   45.73    3.34
  -1   0 -14  164.98    7.47
  -1   0 -15   49.80    5.44
   1   0  16   31.01    5.26
  -1   0 -16   36.38    5.97
   1   0  17   24.74    4.76
  -1   0 -17   18.86    5.32
  -1  -1  17   32.92    6.04
   1   1 -17   37.26   10.05
  -1  -1  16   67.52    7.16
   1   1 -16   56.57    6.10
  -1  -1  15   93.20   15.24
   1   1 -15   99.19   10.13
  -1  -1  14  236.40   14.35
   1   1 -14  265.45   11.66
  -1  -1  14  228.02   10.14
  -1  -1  13  307.70    9.39
   1   1 -13  319.02    9.40
  -1  -1  13  324.49    8.93
  -1  -1  12   95.52    6.34
   1   1 -12   97.21    4.71
  -1  -1  12   89.02    6.78
  -1  -1  11  127.65    7.64
   1   1 -11  117.69    6.90
  -1  -1  11  115.47    6.51
  -1  -1  10  131.94    7.19
   1   1 -10  135.24    7.34
  -1  -1  10  139.82    7.20
  -1  -1   9  533.96   10.45
   1   1  -9  543.85   10.59
  -1  -1   9  537.34   10.12
  -1  -1   8 1549.64   18.66
   1   1  -8 1600.02   19.04
  -1  -1   8 1596.90   18.63
  -1  -1   7    1.37    1.08
  -1  -1   7    5.59    1.09
   1   1  -7    6.40    0.93
  -1  -1   6    2.75    0.63
  -1  -1   6    2.68    1.07
  -1  -1   6    3.33    1.25
   1   1  -6    2.82    0.53
  -1  -1   5  709.61   12.48
   1   1  -5  737.09   12.87
  -1  -1   5  703.58   12.20
  -1  -1   5  716.61   12.47
   1   1  -5  710.13   12.31
  -1  -1   4 8129.17  323.80
  -1  -1   3 6799.64  270.85
   1   1  -3 6683.75   61.94
  -1  -1   2    2.69    0.48
   1   1  -2    8.09    1.18
  -1  -1   2    2.54    0.44
  -1  -1   2    3.24    1.19
   1   1  -2    2.28    0.73
  -1  -1   1    2.27    0.27
   1   1  -1    3.36    0.37
  -1  -1   1    6.22    0.64
   1   1  -1    4.06    0.58
  -1  -1  -2  719.10   12.22
  -1  -1  -2  718.81   12.24
   1   1   2  754.47   12.61
  -1  -1  -2  737.64   12.30
  -1  -1  -3 1961.01   18.77
   1   1   3 2037.00   20.02
  -1  -1  -3 1978.56   18.94
   1   1   3 2036.98   18.89
  -1  -1  -3 2014.16   18.66
  -1  -1  -5  674.71   16.74
   1   1   5  653.00   15.81
  -1  -1  -5  650.41   15.77
  -1  -1  -6  873.83   11.30
   1   1   6  847.07   10.06
  -1  -1  -6  840.43   10.01
   1   1   7  205.46    8.26
  -1  -1  -7  188.69    7.55
   1   1   7  192.81    7.29
  -1  -1  -7  189.25    7.17
   1   1   8  228.30   16.04
  -1  -1  -8  212.42    8.51
   1   1   8  215.43    8.13
  -1  -1  -8  214.94    8.14
   1   1   9  773.80   15.48
  -1  -1  -9  699.18   13.96
   1   1   9  788.53   14.65
  -1  -1  -9  759.18   14.12
   1   1  10  137.45    7.49
  -1  -1 -10  125.50    6.89
   1   1  10  142.11    7.01
  -1  -1 -10  130.97    6.50
   1   1  11   94.00   10.26
  -1  -1 -11   93.25    6.13
   1   1  11   91.46    4.71
   1   1  12   32.79    4.40
  -1  -1 -12   32.93    2.83
   1   1  12   24.38    1.56
   1   1  13  234.69   10.52
  -1  -1 -13  219.58   21.86
   1   1  14   61.09    9.87
  -1  -1 -14   67.05    4.12
   1   1  15   41.12    9.25
  -1  -1 -15   46.64    5.09
   1   1  16   59.33    8.18
  -1  -1 -16   67.39    8.49
   1   1  17   31.09    5.63
  -1  -1 -17   35.10    3.47
  -1  -2  17  109.06   12.91
   1   2 -17  114.02   13.08
  -1  -2  16   47.22    6.89
   1   2 -16   49.24    9.13
  -1  -2  15   29.00    3.80
   1   2 -15   25.96    3.94
  -1  -2  15   24.69    3.00
  -1  -2  14   53.10    4.49
   1   2 -14   66.50    6.81
  -1  -2  14   54.68    3.93
  -1  -2  13   33.43    2.92
   1   2 -13   43.72    3.56
  -1  -2  13   45.60    3.31
  -1  -2  12   81.56    4.03
   1   2 -12   84.31    3.99
  -1  -2  12   81.35    5.52
  -1  -2  11   26.89    3.82
   1   2 -11   30.39    4.07
  -1  -2  11   27.94    4.62
  -1  -2  10  339.32   13.27
   1   2 -10  353.41   13.71
  -1  -2  10  344.25   13.23
  -1  -2   9  408.11   14.01
   1   2  -9  383.46   13.06
  -1  -2   9  403.39   13.63
  -1  -2   8   83.97    4.87
   1   2  -8   98.86    5.33
  -1  -2   8   89.15    4.81
  -1  -2   7   32.22    2.37
   1   2  -7   41.86    2.59
  -1  -2   7   42.67    4.09
   1   2  -7   39.80    2.40
  -1  -2   6    5.96    1.20
   1   2  -6    5.18    1.60
  -1  -2   6    7.16    0.94
  -1  -2   6    4.51    0.88
   1   2  -6    3.56    0.61
   1   2  -5 4865.82   45.68
   1   2  -5 5087.81   47.91
  -1  -2   5 4896.09   45.77
  -1  -2   5 4983.58   46.82
   1   2  -5 4917.19   46.07
  -1  -2   4   76.75    2.61
   1   2  -4   76.10    2.48
   1   2  -4   80.42    2.53
  -1  -2   4   75.44    2.34
   1   2  -3 1442.20   13.95
   1   2  -3 1448.93   13.93
  -1  -2   3 1424.62   13.65
   1   2  -3 1428.43   13.97
   1   2  -2  394.70    6.91
   1   2  -2  412.47    7.22
   1   2  -2  404.23    7.27
   1   2  -1  478.95    8.13
   1   2  -1  495.19    8.56
  -1  -2   1  493.14    8.62
   1   2   0   29.71    1.37
   1   2   0   29.64    1.12
  -1  -2   0   31.71    1.30
   1   2   1   92.51    2.93
   1   2   2  148.84    4.25
  -1  -2  -2  145.66    4.11
   1   2   2  155.17    4.25
  -1  -2  -2  145.73    4.28
   1   2   3  556.49    9.73
  -1  -2  -3  561.85    9.80
  -1  -2  -3  540.66    9.46
   1   2   3  572.35    9.93
  -1  -2  -3  545.42    9.29
   1   2   4  247.87    5.98
  -1  -2  -4  247.74    4.81
  -1  -2  -4  242.63    4.72
   1   2   4  251.48    4.53
  -1  -2  -4  244.62    4.35
   1   2   6 1373.54   17.38
   1   2   6 1329.69   15.68
  -1  -2  -6 1284.89   15.29
   1   2   7   75.01    8.87
  -1  -2  -7   69.85    4.19
   1   2   7   67.30    3.45
  -1  -2  -7   62.35    3.38
   1   2   8    8.09    1.22
  -1  -2  -8    6.34    1.92
   1   2   8    6.03    0.58
  -1  -2  -8    3.35    0.50
   1   2   9  212.55    9.58
  -1  -2  -9  198.89    8.83
   1   2   9  207.33    8.69
  -1  -2  -9  196.01    8.24
   1   2  10  316.14   44.21
  -1  -2 -10  292.98   11.94
   1   2  10  303.59   10.97
  -1  -2 -10  287.22   10.42
   1   2  11  319.50   13.65
  -1  -2 -11  314.56   13.17
   1   2  11  308.11   12.16
   1   2  12   23.93    3.53
  -1  -2 -12   19.71    2.20
   1   2  13  209.26   17.34
  -1  -2 -13  228.90   10.49
   1   2  14  321.19    9.83
  -1  -2 -14  320.45    9.15
   1   2  15   36.81    4.87
  -1  -2 -15   46.16    5.82
   1   2  16   37.17    5.25
  -1  -2 -16   37.35    5.36
  -1  -3  17   79.46   22.92
   1   3 -17  111.49   10.67
  -1  -3  16   64.60    8.52
   1   3 -16   78.87    6.75
  -1  -3  15   57.30    5.16
   1   3 -15   50.04    6.74
  -1  -3  15   42.30    4.59
  -1  -3  14  159.57    7.31
   1   3 -14  160.39    8.68
  -1  -3  14  152.88    6.50
  -1  -3  13   60.62    4.23
   1   3 -13   71.84    8.44
  -1  -3  13   63.20    3.44
  -1  -3  12  195.02    7.88
   1   3 -12  199.17   23.52
  -1  -3  12  195.34    7.53
  -1  -3  11  190.30    9.51
   1   3 -11  198.25    9.70
  -1  -3  11  201.58   24.78
  -1  -3  10  223.16    9.30
   1   3 -10  223.17    9.15
  -1  -3  10  226.70    9.43
  -1  -3   9  114.97    5.84
   1   3  -9  120.63    5.90
  -1  -3   9  109.59    6.32
  -1  -3   8  435.36   13.01
   1   3  -8  447.11   30.84
  -1  -3   8  437.51   13.01
  -1  -3   7 2504.76   28.83
   1   3  -7 2492.60   28.34
  -1  -3   7 2492.34   28.56
  -1  -3   6   37.60    2.27
   1   3  -6   44.89    3.56
  -1  -3   6   38.69    1.97
  -1  -3   6   44.79    2.77
  -1  -3   5   53.73    2.78
   1   3  -5   49.76    2.47
   1   3  -5   53.61    2.62
  -1  -3   5   50.51    2.47
  -1  -3   5   52.26    2.90
  -1  -3   4   10.44    0.91
   1   3  -4   10.05    1.02
   1   3  -4    6.55    0.63
  -1  -3   4    7.24    0.62
  -1  -3   4    9.93    1.39
  -1  -3   3 1576.19   15.35
   1   3  -3 1572.31   15.24
   1   3  -3 1535.30   14.64
  -1  -3   3 1521.06   14.50
  -1  -3   2  698.65   11.99
   1   3  -2  701.01   11.98
   1   3  -2  726.93   12.38
  -1  -3   2  697.75   11.78
  -1  -3   2  699.93   12.26
  -1  -3   1  167.51    4.65
   1   3  -1  165.17    4.47
   1   3  -1  169.21    4.49
  -1  -3   1  168.47    4.58
  -1  -3   1  176.23    4.92
  -1  -3   0  824.40    8.14
   1   3   0  823.25    8.07
   1   3   0  803.54   32.14
  -1  -3   0  812.33    7.86
  -1  -3   0  821.70    8.37
  -1  -3  -1    8.12    0.85
  -1  -3  -1   11.75    1.13
   1   3   1    9.70    1.53
  -1  -3  -1   10.15    1.10
   1   3   1    7.87    1.09
   1   3   2  821.30    8.51
  -1  -3  -2  772.60   13.20
   1   3   2  801.66   32.28
  -1  -3  -2  787.72   13.61
   1   3   2  815.14    8.48
  -1  -3  -2  781.78   13.40
   1   3   3  442.96    8.21
  -1  -3  -3  411.87    7.48
   1   3   3  427.03    8.39
  -1  -3  -3  430.62    7.66
   1   3   3  447.76    8.22
  -1  -3  -3  420.41    7.55
   1   3   4  384.24    9.83
  -1  -3  -4  349.03   17.22
  -1  -3  -4  350.31   17.27
   1   3   4  368.19    9.35
  -1  -3  -4  373.86    9.29
   1   3   5  475.52   12.07
   1   3   5  486.57   12.03
  -1  -3  -5  469.82   11.60
   1   3   6  854.41   11.39
   1   3   6  884.90   10.46
  -1  -3  -6  861.15   10.03
   1   3   7  116.80    6.27
  -1  -3  -7  113.49    4.88
   1   3   7  119.25    4.79
  -1  -3  -7  109.92    4.31
   1   3   8  142.31   12.25
  -1  -3  -8  131.47    6.35
   1   3   8  127.66    5.94
  -1  -3  -8  129.91    5.87
   1   3   9  346.40   13.80
  -1  -3  -9  369.40   14.38
   1   3   9  342.39   12.82
  -1  -3  -9  315.91   11.98
   1   3  10  189.49    9.59
  -1  -3 -10  180.89   11.30
   1   3  10  176.48    8.37
  -1  -3 -10  162.09    7.57
   1   3  11  114.80   12.42
  -1  -3 -11  115.58    5.12
   1   3  11   91.05    4.98
   1   3  12  578.84   18.09
  -1  -3 -12  582.29   17.33
   1   3  13  102.59   10.03
  -1  -3 -13  114.41   11.37
   1   3  14  266.27   17.40
  -1  -3 -14  267.45    8.73
   1   3  15   32.67    5.27
  -1  -3 -15   38.54    7.90
   1   3  16   72.71   12.33
  -1  -3 -16   68.57    8.06
  -1  -4  17  107.82    8.14
   1   4 -17  115.65    8.48
  -1  -4  16  152.55   13.21
   1   4 -16  161.50   14.94
  -1  -4  15   63.75    5.70
   1   4 -15   67.97    5.82
  -1  -4  15   43.75    5.74
  -1  -4  14  301.71    9.12
   1   4 -14  316.90    8.95
  -1  -4  14  300.12    8.26
  -1  -4  13  384.41   16.56
   1   4 -13  402.35   16.97
  -1  -4  13  361.47   15.61
  -1  -4  12   68.54    4.14
   1   4 -12   83.87    8.19
  -1  -4  12   86.51    4.46
  -1  -4  11  273.62   11.62
   1   4 -11  274.78   11.53
  -1  -4  11  280.81   11.87
  -1  -4  10  133.55    7.91
   1   4 -10  126.00    7.20
  -1  -4  10  112.16    6.65
  -1  -4   9 1059.54   24.43
   1   4  -9 1061.25   24.27
  -1  -4   9 1028.09   23.66
  -1  -4   8 1413.98   25.21
   1   4  -8 1519.88   26.76
  -1  -4   8 1464.84   26.08
  -1  -4   7  501.77    9.74
   1   4  -7  498.10    9.37
  -1  -4   7  475.86    9.34
  -1  -4   6  293.60   11.40
   1   4  -6  297.85   11.41
  -1  -4   6  276.50   10.53
  -1  -4   6  287.38   11.26
  -1  -4   5   48.47    2.63
   1   4  -5   39.06    2.12
   1   4  -5   39.12    2.45
  -1  -4   5   36.40    1.77
  -1  -4   5   41.49    2.51
  -1  -4   4  446.61   11.28
   1   4  -4  433.92   10.93
   1   4  -4  437.73   10.93
  -1  -4   4  434.18   10.72
  -1  -4   4  431.35   11.10
  -1  -4   3  581.35   14.42
   1   4  -3  549.95   13.60
   1   4  -3  562.27   13.72
  -1  -4   3  559.87   13.75
  -1  -4   3  581.26   14.62
  -1  -4   2  712.88   12.36
   1   4  -2  700.04   12.07
   1   4  -2  708.36   11.94
  -1  -4   2  687.55   11.59
  -1  -4   2  675.77   12.21
  -1  -4   1  323.01    5.95
   1   4  -1  317.04    5.71
   1   4  -1  320.82    5.52
  -1  -4   1  320.19    5.57
  -1  -4   1  312.80    6.34
  -1  -4   0  225.86    6.15
   1   4   0  234.12    9.61
   1   4   0  236.08    9.62
  -1  -4   0  230.09    6.08
  -1  -4   0  229.14    6.33
  -1  -4  -1  380.59    6.93
  -1  -4  -1  391.78    7.04
   1   4   1  389.70    6.92
  -1  -4  -1  376.45    6.59
   1   4   1  396.79    7.78
  -1  -4  -1  372.07    7.11
  -1  -4  -2  605.43   15.06
  -1  -4  -2  642.34   15.82
   1   4   2  634.61   15.69
  -1  -4  -2  616.60   15.21
   1   4   2  655.72   16.27
  -1  -4  -2  614.09   15.16
   1   4   3  202.00    8.00
  -1  -4  -3  188.09    7.51
  -1  -4  -3  185.95    7.31
   1   4   3  196.05    7.98
  -1  -4  -3  182.74    7.51
   1   4   4  106.35    5.88
  -1  -4  -4  100.94    4.46
  -1  -4  -4   99.23    4.37
  -1  -4  -4  107.34    5.64
   1   4   4  109.52    4.58
  -1  -4  -4  107.82    5.47
   1   4   5  185.91    7.48
  -1  -4  -5  187.70    7.45
   1   4   5  196.85    7.62
  -1  -4  -5  186.71    7.21
   1   4   6 1213.93   23.22
  -1  -4  -6 1172.33   20.93
   1   4   6 1189.37   21.22
  -1  -4  -6 1117.30   19.54
   1   4   7  269.17   11.97
  -1  -4  -7  250.25   10.85
   1   4   7  247.70   10.51
  -1  -4  -7  253.37   10.64
   1   4   8  222.86    9.18
  -1  -4  -8  218.17    8.89
   1   4   8  215.86    8.57
  -1  -4  -8  207.84    8.13
   1   4   9  555.74   13.83
  -1  -4  -9  538.77   12.11
   1   4   9  536.01   11.35
  -1  -4  -9  485.45   10.11
   1   4  10  410.28   12.16
  -1  -4 -10  420.73    9.68
   1   4  10  406.85    8.34
   1   4  11  243.37   12.10
  -1  -4 -11  243.42    8.97
   1   4  11  230.68    7.69
   1   4  12  392.32   17.08
  -1  -4 -12  388.66   16.63
   1   4  13   43.39    4.15
  -1  -4 -13   43.29    4.36
   1   4  14   82.69    9.35
  -1  -4 -14   86.62    6.51
   1   4  15  210.24   19.65
  -1  -4 -15  222.83   18.73
   1   4  16   91.20   14.75
  -1  -4 -16  103.88    7.81
  -1  -5  17  158.11   11.50
   1   5 -17  137.52    9.70
  -1  -5  16  125.86   11.22
   1   5 -16  103.24   11.50
  -1  -5  15   48.42    5.15
   1   5 -15   41.80    4.05
  -1  -5  15   43.28    4.02
  -1  -5  14  173.07    6.16
   1   5 -14  158.46    5.26
  -1  -5  14  157.39    5.08
  -1  -5  13  251.09   11.26
   1   5 -13  249.31   10.87
  -1  -5  13  252.80   11.12
  -1  -5  12   27.74    3.51
   1   5 -12   41.78    4.65
  -1  -5  12   32.65    4.33
  -1  -5  11  209.85   10.77
   1   5 -11  206.08   10.28
  -1  -5  11  204.13   24.22
  -1  -5  10  448.89   10.17
   1   5 -10  463.70   10.18
  -1  -5  10  463.44   10.24
  -1  -5   9  798.28   18.76
   1   5  -9  849.46   20.08
  -1  -5   9  819.11   19.33
  -1  -5   8  399.63   13.68
   1   5  -8  407.48   13.76
  -1  -5   8  407.40   14.05
  -1  -5   7  547.48   10.69
   1   5  -7  517.28   10.94
  -1  -5   7  519.93   10.22
  -1  -5   6  608.88   11.47
   1   5  -6  599.24   11.54
  -1  -5   6  582.04   10.46
  -1  -5   6  620.43   11.81
  -1  -5   5  134.92    7.92
   1   5  -5  147.99    6.37
  -1  -5   5  139.06    7.95
  -1  -5   5  148.07    6.27
  -1  -5   4  340.78   10.34
   1   5  -4  331.45    9.99
   1   5  -4  348.76   10.27
  -1  -5   4  351.99   10.54
   1   5  -3  691.44   17.06
   1   5  -3  701.30   17.03
  -1  -5   3  691.99   16.90
  -1  -5   2  842.43   10.68
   1   5  -2  806.69   19.75
   1   5  -2  811.59   19.62
  -1  -5   2  806.58   19.50
  -1  -5   1  543.73   13.54
   1   5  -1  530.35   13.14
   1   5  -1  525.39   12.84
  -1  -5   1  523.23   12.69
  -1  -5   0   53.97    2.61
   1   5   0   63.14    3.74
   1   5   0   55.67    2.46
  -1  -5   0   53.35    2.27
  -1  -5  -1  195.45    7.72
  -1  -5  -1  198.40    7.96
   1   5   1  199.17    7.96
  -1  -5  -1  188.89    7.29
   1   5   1  196.08    8.71
  -1  -5  -2  144.25    5.85
  -1  -5  -2  145.10    5.72
   1   5   2  151.15    6.56
  -1  -5  -3  753.58    9.37
  -1  -5  -3  712.83    8.64
  -1  -5  -3  761.64    9.24
   1   5   3  746.91    9.71
   1   5   4  173.48    7.85
  -1  -5  -4  162.34    6.44
   1   5   4  165.66    7.03
  -1  -5  -4  150.60    5.92
   1   5   5   85.98    5.59
  -1  -5  -5   88.31    5.33
   1   5   5   95.85    5.96
  -1  -5  -5   81.64    4.80
   1   5   6  515.68   11.77
  -1  -5  -6  485.69   16.29
   1   5   6  505.17   10.54
  -1  -5  -6  444.36   14.73
   1   5   7  278.63   11.05
  -1  -5  -7  285.02   11.13
   1   5   7  281.94   11.42
   1   5   8  127.59    7.43
  -1  -5  -8  120.81    7.02
   1   5   8  122.33    6.76
   1   5   9 1016.95   20.90
  -1  -5  -9 1017.11   20.52
   1   5   9  989.49   19.44
   1   5  10  416.01   12.80
  -1  -5 -10  428.89   11.97
   1   5  10  437.45   11.43
   1   5  11    8.87    2.78
  -1  -5 -11    9.06    2.83
   1   5  11    1.73    0.90
   1   5  12    1.31    1.38
  -1  -5 -12    4.20    1.77
   1   5  13  281.53    9.84
  -1  -5 -13  275.04    9.02
   1   5  14  113.12   10.94
  -1  -5 -14  118.43   12.36
   1   5  15  113.97   15.01
  -1  -5 -15  118.64   14.27
  -1  -6  16   43.81    4.84
   1   6 -16   44.19    4.40
  -1  -6  15   56.06    6.34
   1   6 -15   42.26    5.64
  -1  -6  15   48.65    5.36
  -1  -6  14   68.81    5.49
   1   6 -14   64.30    4.93
  -1  -6  14   56.75    6.50
  -1  -6  13   75.28    5.49
   1   6 -13   80.28    5.54
  -1  -6  13   79.37    7.71
  -1  -6  12   30.67    3.13
   1   6 -12   24.78    3.39
  -1  -6  12   33.81    3.54
  -1  -6  11   95.65    5.05
   1   6 -11   97.62    4.72
  -1  -6  11   90.97    4.75
  -1  -6  10  371.49   11.63
   1   6 -10  354.79   11.02
  -1  -6  10  390.15   12.26
  -1  -6   9  431.73   10.01
   1   6  -9  438.73    9.81
  -1  -6   9  437.92   13.00
  -1  -6   8  282.66   11.14
   1   6  -8  279.28   10.84
  -1  -6   8  295.45   11.91
  -1  -6   7  427.22   14.56
   1   6  -7  417.92   13.94
  -1  -6   7  430.15   14.84
  -1  -6   6  302.75   10.59
   1   6  -6  291.51    9.80
  -1  -6   6  290.89    9.72
  -1  -6   6  299.95   10.61
  -1  -6   5  292.40    8.95
   1   6  -5  290.90    8.48
  -1  -6   5  280.89    8.15
  -1  -6   5  279.91    8.84
  -1  -6   4 1087.46   13.26
   1   6  -4 1044.58   11.85
  -1  -6   4 1069.80   12.12
  -1  -6   3 1630.35   19.04
   1   6  -3 1544.21   17.08
  -1  -6   2  201.17    7.99
   1   6  -2  183.25    7.12
   1   6  -2  195.08    7.37
  -1  -6   2  188.37    7.13
  -1  -6   1  147.34    5.96
   1   6  -1  155.32    6.12
   1   6  -1  153.23    5.83
  -1  -6   1  150.01    5.64
  -1  -6   0 1609.18   18.66
   1   6   0 1551.07   17.23
  -1  -6  -1  421.14   12.57
  -1  -6  -1  451.93   13.49
  -1  -6  -1  426.91   12.48
   1   6   1  472.98   14.99
  -1  -6  -2  814.93   10.07
  -1  -6  -2  757.25    9.76
  -1  -6  -2  818.76    9.68
   1   6   2  807.82   10.35
  -1  -6  -3  240.04    7.34
  -1  -6  -3  220.21    8.48
  -1  -6  -3  240.52    7.19
   1   6   3  223.29   16.24
  -1  -6  -4  108.37    4.64
  -1  -6  -4  104.82    4.33
   1   6   4  105.24    4.55
   1   6   5  134.65    6.48
  -1  -6  -5  129.15    6.09
   1   6   5  127.92    6.38
   1   6   6   15.72    2.77
  -1  -6  -6   13.97    1.68
   1   6   6   14.03    1.90
   1   6   7  457.05   10.87
  -1  -6  -7  442.49    9.85
   1   6   7  423.11    9.31
   1   6   8  527.78   11.46
  -1  -6  -8  507.62   10.99
   1   6   8  475.31   10.04
   1   6   9  108.26   11.10
  -1  -6  -9   90.81    4.33
   1   6   9   84.17    3.68
   1   6  10   14.11    2.53
  -1  -6 -10    7.77    1.96
   1   6  10    5.56    1.61
   1   6  11   13.31    2.61
  -1  -6 -11   10.43    2.20
   1   6  12   91.05   11.53
  -1  -6 -12   91.04    5.06
   1   6  13  219.89    9.88
  -1  -6 -13  209.28   11.28
   1   6  14   69.73   10.87
  -1  -6 -14   57.42   10.97
   1   6  15   26.17    6.05
  -1  -6 -15   28.68    4.73
  -1  -7  16   51.98    7.33
   1   7 -16   48.33    7.36
  -1  -7  15   28.58    4.64
   1   7 -15   28.34    4.47
  -1  -7  15   21.70    3.68
  -1  -7  14   88.87    7.66
   1   7 -14   87.68    7.16
  -1  -7  14   86.12    7.34
  -1  -7  13   78.17    6.11
   1   7 -13   69.23    5.02
  -1  -7  13   70.02    5.33
  -1  -7  12    9.28    2.67
   1   7 -12    3.32    0.96
  -1  -7  12    4.98    1.68
  -1  -7  11   44.61    3.34
   1   7 -11   35.73    4.95
  -1  -7  11   38.34    4.36
  -1  -7  10  125.99    6.37
   1   7 -10  110.01    5.25
  -1  -7  10  124.45    6.65
  -1  -7   9  131.05    5.88
   1   7  -9  127.99    4.83
  -1  -7   9  131.92    5.99
  -1  -7   8  109.02    6.32
   1   7  -8  108.10    5.74
  -1  -7   8  103.02    6.01
  -1  -7   7   37.87    5.74
   1   7  -7   21.62    3.91
   1   7  -7   37.77    5.42
  -1  -7   7   40.67    3.79
  -1  -7   6 1179.25   26.92
   1   7  -6 1109.30   25.10
  -1  -7   6 1183.03   27.44
  -1  -7   5  321.65   11.16
   1   7  -5  293.08    9.89
  -1  -7   5  309.05   11.06
  -1  -7   4  106.68    5.30
   1   7  -4  100.36    4.63
  -1  -7   4   99.34    4.45
  -1  -7   4   98.24    5.13
  -1  -7   3  360.57   10.89
   1   7  -3  364.91   10.29
  -1  -7   3  362.86   10.24
  -1  -7   2  254.78    7.89
  -1  -7   1  154.87    6.36
  -1  -7   1  144.74    5.43
  -1  -7   1  145.67    5.44
  -1  -7   0 2115.63  144.70
  -1  -7   0 1982.00   33.79
  -1  -7  -1  795.45   14.48
  -1  -7  -1  793.45   13.81
  -1  -7  -1  779.50   13.58
   1   7   1  849.38   16.51
  -1  -7  -2  311.19   10.65
  -1  -7  -2  303.43   10.11
  -1  -7  -2  321.60   10.68
   1   7   2  330.64   11.52
  -1  -7  -3  143.68    7.74
  -1  -7  -3  119.78    5.71
  -1  -7  -3  135.83    6.22
   1   7   3  145.30    6.89
  -1  -7  -4    6.28    1.03
  -1  -7  -4    4.75    0.76
   1   7   4    9.24    1.55
  -1  -7  -5   81.47    8.31
  -1  -7  -5   72.16    4.14
   1   7   5   85.83    7.09
  -1  -7  -6  576.52   13.78
   1   7   6  572.54   13.36
   1   7   7  265.05   11.25
  -1  -7  -7  244.88   10.66
   1   7   7  267.87   11.04
   1   7   8   44.76    5.65
  -1  -7  -8   43.30    3.20
   1   7   8   41.80    4.82
   1   7   9    4.60    1.77
  -1  -7  -9    1.98    1.46
   1   7   9    2.07    1.08
   1   7  10   10.26    2.19
  -1  -7 -10    8.47    1.80
   1   7  10    8.37    1.63
   1   7  11   15.57    2.37
  -1  -7 -11   12.73    2.08
   1   7  12   40.06    5.77
  -1  -7 -12   32.72    4.52
   1   7  13   42.89    8.17
  -1  -7 -13   46.38    5.29
   1   7  14   36.90    7.53
  -1  -7 -14   52.83    6.56
  -1  -8  15    3.35    1.81
  -1  -8  15    7.73    2.75
  -1  -8  14  174.14   14.79
   1   8 -14  136.08   11.37
  -1  -8  14  152.04   12.91
  -1  -8  13   44.73    4.36
   1   8 -13   39.33    4.26
  -1  -8  13   45.79    4.64
  -1  -8  12   47.05    4.55
   1   8 -12   39.06    5.49
  -1  -8  12   34.12    4.53
  -1  -8  11   64.12    5.05
   1   8 -11   58.78    4.41
  -1  -8  11   59.36    4.76
  -1  -8  10   13.96    2.83
   1   8 -10   12.77    1.97
  -1  -8  10   11.52    2.46
  -1  -8   9   25.77    2.71
   1   8  -9   22.56    1.79
  -1  -8   9   22.82    2.30
  -1  -8   8  192.98    7.80
   1   8  -8  193.00    7.12
  -1  -8   8  197.11   23.40
  -1  -8   7   39.24    3.90
   1   8  -7   38.67    3.81
  -1  -8   7   44.54    4.70
  -1  -8   6  184.05   25.81
   1   8  -6  143.65    7.81
   1   8  -6  171.16    9.49
  -1  -8   6  181.68   10.40
  -1  -8   5  145.30    8.29
   1   8  -5  134.33    7.25
   1   8  -5  146.37    7.86
  -1  -8   4    7.40    1.40
   1   8  -4    5.13    0.64
   1   8  -4    7.79    0.64
  -1  -8   4    4.12    1.81
  -1  -8   3  153.53    8.01
  -1  -8   2  102.77    5.57
  -1  -8   1  111.63    6.11
  -1  -8   0  293.89   11.49
  -1  -8   0  263.50    9.76
  -1  -8   0  273.76   10.11
  -1  -8  -1  840.73   19.40
  -1  -8  -1  769.89   17.15
   1   8   1  879.14   20.62
  -1  -8  -2   54.59    4.73
  -1  -8  -2   46.31    3.68
  -1  -8  -2   54.21    5.05
   1   8   2   58.79    7.48
  -1  -8  -3   63.56    5.10
  -1  -8  -3   54.69    4.09
  -1  -8  -3   60.07    4.60
   1   8   3   68.40    6.77
  -1  -8  -4   95.75   13.55
  -1  -8  -4   94.05    7.51
   1   8   4  106.08    6.36
  -1  -8  -5  257.45   11.22
  -1  -8  -5  237.27    9.72
   1   8   5  243.83   11.18
  -1  -8  -6  315.33   10.16
  -1  -8  -6  296.77   14.31
   1   8   6  296.49   14.72
  -1  -8  -7   68.92    3.99
  -1  -8  -7   70.92    3.75
   1   8   7   67.13    6.20
  -1  -8  -8   39.66    4.39
   1   8   8   26.18    5.46
   1   8   9   96.17    9.42
  -1  -8  -9   88.70    5.82
   1   8   9   79.51    7.08
   1   8  10   45.54    5.74
  -1  -8 -10   45.86    4.04
   1   8  10   28.29    4.91
   1   8  11   33.49    5.45
  -1  -8 -11   28.78    5.37
   1   8  12   16.21    3.36
  -1  -8 -12    8.44    2.80
   1   8  13   55.42   10.52
  -1  -8 -13   68.72    7.99
  -1  -9  14   71.32    8.44
  -1  -9  14   83.19    8.54
  -1  -9  13  115.70   10.12
  -1  -9  12   39.56    4.41
  -1  -9  12   55.20    5.09
  -1  -9  11   62.52    4.90
  -1  -9  11   66.83    5.56
  -1  -9  10   86.50    5.96
  -1  -9  10   84.66    6.35
  -1  -9   9   41.39    3.90
  -1  -9   9   32.66    3.54
  -1  -9   8  106.46    5.24
   1   9  -8  107.43    4.44
  -1  -9   8  114.74    5.89
  -1  -9   7  504.52   13.79
   1   9  -7  429.99   10.94
  -1  -9   7  502.33   14.11
  -1  -9   6    2.56    1.58
   1   9  -6    0.86    0.56
  -1  -9   6   -0.74    2.05
  -1  -9   5  207.68    8.99
  -1  -9   4   91.84    5.45
  -1  -9   4   90.94    5.47
  -1  -9   3  317.29   13.22
  -1  -9   2   11.75    2.04
  -1  -9   1   17.56    2.81
  -1  -9   0  175.44    9.78
  -1  -9  -1  240.54   10.07
  -1  -9  -1  214.61    8.51
  -1  -9  -1  232.60    9.18
  -1  -9  -2   72.32    4.48
  -1  -9  -2   58.08    4.86
   1   9   2   67.61    6.35
  -1  -9  -3   72.46    4.43
  -1  -9  -3   72.21    3.93
   1   9   3   79.37    8.05
  -1  -9  -4  116.93    4.91
  -1  -9  -4  121.45    4.52
   1   9   4  128.02    5.51
  -1  -9  -5  366.60   10.29
  -1  -9  -5  361.65    9.68
   1   9   5  360.77   10.77
  -1  -9  -6   42.99    4.63
  -1  -9  -6   46.28    2.83
   1   9   6   42.60    6.27
  -1  -9  -7  163.46    6.96
  -1  -9  -7  167.29    6.84
   1   9   7  152.15   12.03
  -1  -9  -8   89.12    9.62
  -1  -9  -8   95.44    6.41
   1   9   8   77.16   10.05
  -1  -9  -9   21.37    3.77
  -1  -9  -9   19.70    3.28
   1   9   9   20.33    3.67
  -1  -9 -10   59.79    8.58
  -1  -9 -10   55.21    5.87
  -1  -9 -11  185.01   15.39
   1   9  12   56.31   11.75
  -1  -9 -12   71.66    8.29
  -1 -10  13  106.00   10.30
  -1 -10  13  109.69   10.76
  -1 -10  12    4.49    2.26
  -1 -10  12    2.83    1.83
  -1 -10  11   74.23    6.49
  -1 -10  11   77.44    7.22
  -1 -10  10  138.87    5.58
  -1 -10  10  171.06    6.93
  -1 -10   9  167.14    5.60
  -1 -10   9  171.61    6.46
  -1 -10   8   86.86    5.93
  -1 -10   8  101.51    7.25
  -1 -10   7  212.33    8.94
  -1 -10   7  230.50   10.78
  -1 -10   6  109.55    5.21
  -1 -10   6  124.26    6.41
  -1 -10   5   38.65    3.25
  -1 -10   5   22.88    2.50
  -1 -10   4  124.02    6.50
  -1 -10   4  141.87    7.42
  -1 -10   3  327.00    9.45
  -1 -10   2  176.10    6.99
  -1 -10   1  172.68    7.26
  -1 -10   0  342.35   10.70
  -1 -10  -1   86.05    4.59
  -1 -10  -2  169.55    6.37
  -1 -10  -3  215.98    7.92
   1  10   3  243.69   15.36
  -1 -10  -4   39.58    4.64
  -1 -10  -4   29.56    3.77
   1  10   4   36.49    5.61
  -1 -10  -5  264.65   11.50
  -1 -10  -5  267.09   11.10
   1  10   5  234.42   11.51
  -1 -10  -6  387.81   14.22
  -1 -10  -6  375.64   13.25
   1  10   6  422.14   15.33
  -1 -10  -7   30.78    3.51
  -1 -10  -7   28.98    2.95
   1  10   7   28.66    4.29
  -1 -10  -8   50.48    5.06
  -1 -10  -8   42.02    4.75
   1  10   8   36.63    6.64
  -1 -10  -9   47.01    5.16
  -1 -10  -9   43.70    7.76
   1  10   9   37.60    6.14
  -1 -10 -10   78.21    7.61
  -1 -10 -10   76.05    6.99
  -1 -10 -11   96.45   11.78
  -1 -10 -11   90.20    7.86
  -1 -11  12   20.07    3.89
  -1 -11  12   30.47    5.01
  -1 -11  11   46.36    5.44
  -1 -11  11   42.02    7.67
  -1 -11  10   57.59    6.29
  -1 -11  10   52.98    5.93
  -1 -11   9   44.86    4.50
  -1 -11   9   39.02    4.58
  -1 -11   8  132.46    5.30
  -1 -11   8  138.47    5.94
  -1 -11   7   97.50    4.03
  -1 -11   7   91.40    5.47
  -1 -11   6   73.89    5.64
  -1 -11   6   84.96    6.45
  -1 -11   5    0.19    1.51
  -1 -11   4   12.90    2.28
  -1 -11   4   17.32    3.17
  -1 -11   3  173.56    7.61
  -1 -11   2  222.31   22.08
  -1 -11   1  125.35    7.74
  -1 -11   0  331.19   14.07
  -1 -11  -1   99.46    5.00
  -1 -11  -2    5.00    1.57
  -1 -11  -3   65.25    4.81
  -1 -11  -4  103.00    3.62
  -1 -11  -5    8.45    1.89
  -1 -11  -6  270.73    8.61
   1  11   6  263.45   10.80
  -1 -11  -7  122.29    5.88
   1  11   7  103.86   11.95
  -1 -11  -8   66.99    6.39
   1  11   8   52.35    8.54
  -1 -11  -9    7.21    2.22
  -1 -11 -10    4.73    1.77
  -1 -12  10   41.41    4.17
  -1 -12  10   47.06    5.50
  -1 -12   9   47.84    5.53
  -1 -12   9   36.67    4.29
  -1 -12   8   54.85    5.98
  -1 -12   8   59.95    7.11
  -1 -12   7  273.93   11.24
  -1 -12   7  280.38   11.77
  -1 -12   6   42.05    4.10
  -1 -12   5    9.29    2.74
  -1 -12   5    7.65    3.27
  -1 -12   4    8.59    2.34
  -1 -12   4    6.45    2.63
  -1 -12   3   52.39    4.49
  -1 -12   3   54.04    4.88
  -1 -12   2  156.48    5.10
  -1 -12   1   39.04    4.19
  -1 -12   0  101.50    3.75
  -1 -12  -1   44.65    3.90
  -1 -12  -2    7.78    1.80
  -1 -12  -3   11.41    2.34
  -1 -12  -5   14.84    2.77
  -1 -12  -6  114.41    9.90
  -1 -12  -7  245.25   22.44
  -1 -12  -8   25.27    4.55
  -1 -13   8   67.34    5.46
  -1 -13   8   79.12    7.38
  -1 -13   7   76.52    8.95
  -1 -13   7   70.75    8.71
  -1 -13   6   75.17    6.99
  -1 -13   5    9.55    2.68
  -1 -13   4   27.12    3.58
  -1 -13   4   31.91    5.00
  -1 -13   3   42.51    4.70
  -1 -13   3   53.28    6.37
  -1 -13   2   51.03    5.62
  -1 -13   2   65.31    7.47
  -1 -13   1   51.02    5.61
  -1 -13   0   23.27    3.96
  -1 -13  -1   30.58    4.13
  -1 -13  -2    7.96    2.30
  -1 -13  -3   24.08    4.21
  -1 -13  -4   19.98    3.69
  -1 -13  -5   53.82    6.41
  -1 -13  -6   22.12    4.05
  -1 -14   5   26.62    4.17
  -1 -14   5   24.71    4.71
  -1 -14   4   31.00    4.87
  -1 -14   4   31.78    5.62
  -1 -14   3   51.25    7.26
  -1 -14   3   53.69    7.87
  -1 -14   2   11.52    2.53
  -1 -14   2   14.81    3.80
  -1 -14   1   55.99    6.91
  -1 -14   1   77.19    9.25
  -1 -14   0   12.72    2.92
   2 -14  -3   36.54    5.26
  -2  14   3   30.09    8.42
   2 -14  -2   11.08    2.81
  -2  14   2    3.46    2.02
   2 -14  -1   27.51    5.19
  -2  14   1   25.11    5.52
   2 -14   0   26.59    4.93
  -2  14   0   23.53    5.81
   2 -14   1   60.34    7.45
   2 -14   2   33.76    4.79
   2 -14   3   33.93    5.69
   2 -14   4    4.45    2.10
   2 -13  -6   47.97    4.57
  -2  13   6   52.71    9.53
   2 -13  -5   40.57    4.34
  -2  13   5   28.24    6.05
   2 -13  -4   15.15    2.56
  -2  13   4   17.52    3.18
   2 -13  -3  106.45    9.41
  -2  13   3  102.57   11.13
   2 -13  -2   41.52    4.55
  -2  13   2   43.73    6.76
   2 -13  -1    5.08    2.31
  -2  13   1    6.48    2.09
   2 -13   0    7.43    2.62
  -2  13   0    7.91    2.46
   2 -13   1   29.16    3.98
  -2  13  -1   36.45    6.56
   2 -13   2   63.04    7.10
   2 -13   4   37.60    4.65
   2 -13   5   16.26    3.14
   2 -13   6    0.32    1.85
   2 -13   7   29.47    4.43
   2 -13   7   38.78    4.65
   2 -13   8    7.35    3.14
   2 -13   8   12.07    3.52
   2 -12  -9   30.65    4.74
  -2  12   9   19.37    5.66
   2 -12  -8   57.49    7.07
   2 -12  -7   39.18    7.83
  -2  12   7   27.18    5.36
   2 -12  -6   27.40    3.86
  -2  12   6   27.34    4.89
   2 -12  -5   30.60    3.81
  -2  12   5   30.87    4.24
   2 -12  -4  103.88    7.73
  -2  12   4   77.85   10.60
   2 -12  -3   53.34    5.04
  -2  12   3   57.24    9.23
   2 -12  -2   65.01    4.43
  -2  12   2   62.08    7.56
   2 -12  -1   16.00    2.84
  -2  12   1   24.54    4.00
   2 -12   0   42.19    4.59
   2 -12   1   48.59    4.78
  -2  12  -1   45.27    7.19
   2 -12   2   52.73    4.93
  -2  12  -2   50.34    8.65
   2 -12   3   17.06    2.81
   2 -12   4   28.01    4.28
   2 -12   5   44.88    4.50
   2 -12   6    8.65    1.71
   2 -12   7   64.23    6.99
   2 -12   8   14.40    2.94
   2 -12   8    8.65    2.65
   2 -12   9    2.30    1.77
   2 -12   9    4.29    2.74
   2 -12  10   32.61    5.16
   2 -11 -10   30.46    4.20
  -2  11  10   23.43    5.73
   2 -11  -9   31.13    4.99
  -2  11   9   26.44    6.06
   2 -11  -8   26.47    4.08
  -2  11   8   23.24    5.39
   2 -11  -7   28.20    3.71
  -2  11   7   31.47    5.03
   2 -11  -6   34.75    4.11
  -2  11   6   38.27    6.21
   2 -11  -5   16.27    2.84
  -2  11   5   18.49    3.39
   2 -11  -4   13.54    2.72
  -2  11   4   12.05    2.26
   2 -11  -3   44.61    4.09
  -2  11   3   54.04    6.32
   2 -11  -2  127.17    8.08
  -2  11   2  117.36   13.02
   2 -11  -1  147.81   15.22
  -2  11   1  140.53    8.54
   2 -11   0   57.65    5.18
  -2  11   0   62.07    8.31
   2 -11   1  114.50    7.66
  -2  11  -1  123.52   10.18
   2 -11   2   12.95    2.58
  -2  11  -2   17.54    3.67
   2 -11   3  169.17    7.90
  -2  11  -3  165.97   11.84
   2 -11   4   85.89    6.30
   2 -11   5  106.81    7.54
   2 -11   6   48.93    4.61
   2 -11   7   35.80    4.77
   2 -11   8   88.27    7.08
   2 -11   8   79.66    6.28
   2 -11   9    5.36    2.63
   2 -11   9   11.02    3.52
   2 -11  10  105.35    9.37
   2 -11  10   99.76    8.95
   2 -11  11   60.58    7.47
   2 -11  11   57.49    7.04
   2 -10 -12   26.74    4.31
   2 -10 -12   27.95    4.25
   2 -10 -11   40.05    4.87
   2 -10 -11   37.89    3.90
  -2  10  11   28.66    6.04
   2 -10 -10   20.58    3.72
   2 -10 -10   24.24    3.62
  -2  10  10   26.86    4.90
   2 -10  -9   33.42    4.22
   2 -10  -9   36.72    3.87
  -2  10   9   32.17    5.81
   2 -10  -8   47.92    4.23
   2 -10  -8   45.72    4.92
  -2  10   8   37.62    6.22
   2 -10  -7   39.90    2.92
   2 -10  -7   36.06    1.76
  -2  10   7   34.31    4.26
   2 -10  -6    6.45    2.60
   2 -10  -6    2.81    0.84
  -2  10   6    2.53    1.87
   2 -10  -5   31.02    3.87
   2 -10  -5   33.03    3.50
  -2  10   5   37.57    5.04
   2 -10  -4    2.21    1.70
   2 -10  -4    3.18    1.00
  -2  10   4    2.51    1.32
   2 -10  -3  292.18   45.61
  -2  10   3  318.58    9.72
   2 -10  -2  159.55    8.07
  -2  10   2  163.14    7.74
   2 -10  -1   40.36    3.02
  -2  10   1   44.29    4.92
   2 -10   0   60.62    3.18
  -2  10   0   73.40    7.81
   2 -10   1  259.52   13.21
  -2  10  -1  269.23   13.49
   2 -10   2  172.29    7.14
  -2  10  -2  191.91   14.01
   2 -10   3  117.36    6.41
  -2  10  -3  128.62    9.38
   2 -10   4  274.95   10.33
  -2  10  -4  234.03    8.61
   2 -10   5  121.34    6.33
   2 -10   6   50.44    4.49
   2 -10   7  129.02    6.36
   2 -10   8  241.57    7.82
   2 -10   8  231.85    7.23
   2 -10   9  164.62    6.22
   2 -10   9  160.32    5.96
   2 -10  10   25.22    3.75
   2 -10  10   20.17    3.33
   2 -10  11   16.38    3.20
   2 -10  11   10.33    2.81
   2 -10  12   16.86    3.75
   2 -10  12   12.07    2.73
   2  -9 -13   52.97    7.77
   2  -9 -13   51.80    7.07
   2  -9 -12   41.34    6.01
   2  -9 -12   33.60    5.26
  -2   9  12   27.71    6.12
   2  -9 -11  120.38    5.86
   2  -9 -11  110.60    7.23
  -2   9  11   88.85   13.52
   2  -9 -10   85.55    5.40
   2  -9 -10   83.40    4.91
  -2   9  10   83.90    7.78
   2  -9  -9  119.73    4.42
   2  -9  -9  115.67    3.69
   2  -9  -8  122.96    8.02
   2  -9  -8  123.92    7.36
  -2   9   8  130.68   10.20
   2  -9  -7   19.46    2.79
   2  -9  -7   19.52    2.40
  -2   9   7   24.09    3.44
   2  -9  -6    2.32    1.72
   2  -9  -6    0.38    0.89
  -2   9   6    1.55    1.70
   2  -9  -5  367.75   11.75
   2  -9  -5  385.21   11.38
  -2   9   5  364.05   12.00
   2  -9  -4  338.55   10.92
  -2   9   4  330.70   10.96
   2  -9  -3    6.28    2.92
   2  -9  -3    5.55    1.04
  -2   9   3    4.74    1.18
   2  -9  -2  177.95    8.95
   2  -9  -2  160.63    7.44
   2  -9  -2  171.60    7.91
  -2   9   2  192.65   13.98
   2  -9  -1   66.62    5.75
   2  -9   0   75.29    6.16
  -2   9   0   85.22    6.81
   2  -9   1  209.50    8.84
  -2   9  -1  194.55    8.06
   2  -9   2  188.15    9.74
  -2   9  -2  186.52   10.92
   2  -9   3   15.85    3.38
  -2   9  -3   20.42    4.19
   2  -9   4  187.78    9.81
  -2   9  -4  174.07   10.53
   2  -9   5   48.64    3.39
   2  -9   6  159.60    7.92
   2  -9   7  267.45    9.02
   2  -9   8  230.25   10.68
   2  -9   8  227.35   10.29
   2  -9   9   40.74    2.89
   2  -9   9   44.71    3.28
   2  -9  10   24.31    3.71
   2  -9  10   16.94    2.79
   2  -9  11   63.26    5.74
   2  -9  11   59.95    5.33
   2  -9  12   62.30    6.57
   2  -9  13   17.80    3.68
   2  -9  13   20.98    3.86
  -2   8  14   36.25    6.47
   2  -8 -14   33.99    6.82
  -2   8  13   63.05    9.26
   2  -8 -13   55.64   12.46
   2  -8 -12  113.47   10.54
  -2   8  12  125.84    5.75
   2  -8 -11  148.39    8.01
  -2   8  11  164.10    5.90
   2  -8 -10  211.16   15.39
   2  -8 -10  187.19    7.21
  -2   8  10  199.96   13.69
   2  -8  -9   82.03   11.42
   2  -8  -9   72.07    5.10
  -2   8   9   60.68    8.22
   2  -8  -8  178.65   14.30
   2  -8  -8  161.35    7.54
  -2   8   8  161.06    7.59
   2  -8  -7  402.31   12.74
   2  -8  -7  385.88   11.66
  -2   8   7  395.88   12.52
   2  -8  -6  211.63    9.35
   2  -8  -6  220.26    9.34
  -2   8   6  205.02   25.18
   2  -8  -5  151.98    8.77
   2  -8  -5  155.05    8.51
  -2   8   5  139.57    8.53
   2  -8  -4  779.18   15.95
  -2   8   4  816.76   19.06
   2  -8  -3   22.95    2.68
   2  -8  -3   20.04    2.54
   2  -8  -3   27.10    2.34
  -2   8   3   30.87    4.34
   2  -8  -2  186.82    7.93
   2  -8  -2  150.17    7.40
  -2   8   2  186.14    8.02
   2  -8  -1  278.55   11.15
   2  -8  -1  258.50    9.85
   2  -8  -1  272.77   10.06
   2  -8   0  216.65    9.09
  -2   8   0  234.72   14.04
   2  -8   1  307.78   12.14
  -2   8  -1  344.16   13.47
   2  -8   2  176.59    7.61
  -2   8  -2  197.64    8.31
   2  -8   3   91.94    5.72
  -2   8  -3   96.67    5.37
   2  -8   4  210.49    8.57
  -2   8  -4  191.47    6.86
  -2   8  -4  191.39    7.01
  -2   8  -4  205.51    8.38
   2  -8   5   95.88   13.83
  -2   8  -5   88.73    6.47
  -2   8  -5   89.01    6.51
   2  -8   6  438.22   10.11
  -2   8  -6  429.36    8.49
   2  -8   7  132.82    6.20
  -2   8  -7  128.76    4.69
   2  -8   8  274.00   10.40
  -2   8  -8  250.21    8.56
   2  -8   8  253.33    9.20
   2  -8   9   25.08    3.25
  -2   8  -9   23.72    4.19
   2  -8   9   29.10    3.53
   2  -8  10   23.86    3.17
   2  -8  10   24.52    2.30
   2  -8  11   75.59    4.69
  -2   8 -11   57.80    6.38
   2  -8  11   71.07    4.33
   2  -8  12   66.20    5.97
  -2   8 -12   71.90   13.62
   2  -8  12   71.50   14.46
   2  -8  13   62.81    6.93
  -2   8 -13   59.82    6.12
   2  -8  13   52.11    5.70
   2  -8  14   83.69    8.48
  -2   7  15   63.22   13.38
   2  -7 -15   84.35    7.02
  -2   7  14   49.68    7.16
   2  -7 -14   51.78    5.88
  -2   7  13   57.51    6.98
   2  -7 -13   64.82    9.10
  -2   7  13   54.42   10.86
  -2   7  12  202.09    7.61
   2  -7 -12  183.85    6.34
  -2   7  12  165.22    5.77
  -2   7  11   42.92    6.31
   2  -7 -11   37.14    2.68
  -2   7  11   39.72    4.72
  -2   7  10   42.67    7.48
   2  -7 -10   43.15    5.81
  -2   7  10   37.16    5.30
  -2   7   9   45.73    4.27
   2  -7  -9   40.47    3.71
  -2   7   9   40.75    4.19
   2  -7  -8  116.09    5.15
   2  -7  -8  109.73    6.31
  -2   7   8  117.30    8.13
   2  -7  -7  337.09   11.63
   2  -7  -7  334.53    8.16
  -2   7   7  318.88   13.76
   2  -7  -6  168.53    9.54
   2  -7  -6  164.91   10.05
  -2   7   6  176.78    9.92
   2  -7  -5  175.55    7.51
   2  -7  -5  160.08    8.22
  -2   7   5  162.32    9.00
   2  -7  -4   87.25    6.61
   2  -7  -4   88.45    6.32
  -2   7   4   79.79    5.69
  -2   7   4   98.81    8.33
   2  -7  -3   80.84    8.06
   2  -7  -3   83.26    6.33
  -2   7   3   84.37    5.93
  -2   7   3   93.34    5.99
   2  -7  -2   74.08    4.92
   2  -7  -2   70.71    4.16
  -2   7   2   69.98    4.08
  -2   7   2   79.06    7.71
   2  -7  -1  156.03    6.72
   2  -7  -1  150.76    5.71
  -2   7   1  144.34    5.46
  -2   7   1  162.98    9.55
   2  -7   0  229.46   16.11
   2  -7   0  224.65   15.37
  -2   7   0  201.37    9.42
   2  -7   1  514.16   10.22
  -2   7  -1  517.15   10.88
   2  -7   2  801.32   15.15
  -2   7  -2  844.04   16.17
   2  -7   3   99.01    5.20
  -2   7  -3   97.02    4.31
  -2   7  -3   97.64    4.42
  -2   7  -3  118.29    8.34
   2  -7   4   36.88    3.45
  -2   7  -4   34.40    2.46
  -2   7  -4   35.00    3.33
  -2   7  -4   41.94    5.83
   2  -7   5  133.52    7.47
  -2   7  -5  126.82    6.28
  -2   7  -5  127.82    6.37
  -2   7  -5  139.48    7.29
   2  -7   6  376.09   14.98
  -2   7  -6  331.78   12.45
  -2   7  -6  363.90   13.65
   2  -7   7  469.99   11.32
  -2   7  -7  450.21    9.57
   2  -7   8   18.24    3.51
  -2   7  -8    9.91    1.73
   2  -7   8   12.13    2.41
   2  -7   9  181.42    7.42
  -2   7  -9  176.75    6.30
   2  -7   9  172.55    6.73
  -2   7 -10    2.40    1.09
   2  -7  10    6.15    2.52
   2  -7  11  126.78    6.50
  -2   7 -11  118.75    5.32
   2  -7  11  108.89    7.14
   2  -7  12  197.95    6.85
  -2   7 -12  189.22    5.75
   2  -7  12  159.07   10.73
   2  -7  13   49.33    4.82
  -2   7 -13   50.45    4.46
   2  -7  13   54.70    4.83
   2  -7  14    1.26    1.93
  -2   7 -14    6.50    2.06
   2  -7  15  129.87    9.78
  -2   7 -15  119.19    8.44
  -2   6  15   64.96    9.73
   2  -6 -15   61.62   11.24
  -2   6  14   42.74    5.78
   2  -6 -14   38.81    4.37
  -2   6  13   52.69    7.04
   2  -6 -13   62.39    5.39
  -2   6  13   51.11    7.49
  -2   6  12  174.47   11.86
   2  -6 -12  183.44    8.58
  -2   6  12  172.78    7.61
  -2   6  11   90.56    9.56
   2  -6 -11   89.32    4.76
  -2   6  11   76.63    6.45
  -2   6  10    4.20    1.43
   2  -6 -10    7.33    2.40
  -2   6  10    7.91    1.44
  -2   6   9   12.45    2.64
   2  -6  -9    9.83    1.94
  -2   6   9   14.38    2.96
  -2   6   8  170.38    9.81
   2  -6  -8  171.38    9.71
  -2   6   8  154.25    8.73
  -2   6   7  180.77    8.72
   2  -6  -7  189.74    8.53
  -2   6   7  179.20    7.79
   2  -6  -6   80.49    6.02
   2  -6  -6   88.82    6.55
  -2   6   6   84.61    6.18
   2  -6  -5  113.90    5.62
   2  -6  -5  125.57    5.90
  -2   6   5  126.82    6.05
   2  -6  -4   22.70    2.75
   2  -6  -4   20.96    1.65
  -2   6   4   17.77    1.41
  -2   6   4   19.52    3.03
   2  -6  -3   62.37    5.20
   2  -6  -3   62.13    3.30
  -2   6   3   61.66    3.28
  -2   6   3   67.74    5.48
   2  -6  -2    2.29    1.82
   2  -6  -2    2.28    0.47
  -2   6   2    2.77    0.92
   2  -6  -1   20.54    2.21
   2  -6  -1   21.97    2.06
  -2   6   1   18.30    1.45
  -2   6   1   20.35    2.67
   2  -6   0   53.65    3.54
   2  -6   0   55.03    2.79
  -2   6   0   55.52    3.10
  -2   6   0   57.84    6.78
   2  -6   1  559.47   16.16
  -2   6  -1  551.76   15.94
  -2   6  -1  616.76   18.61
   2  -6   2   61.02    3.76
   2  -6   2   58.13    3.06
  -2   6  -2   56.30    2.84
  -2   6  -2   68.07    4.69
   2  -6   3   52.80    3.56
  -2   6  -3   47.41    2.45
  -2   6  -3   51.73    2.68
  -2   6  -3   58.88    3.58
   2  -6   4    9.21    1.78
  -2   6  -4    9.05    0.75
  -2   6  -4   11.94    1.06
  -2   6  -4   11.72    1.55
   2  -6   5   28.41    2.86
  -2   6  -5   25.57    2.92
  -2   6  -5   25.37    2.04
  -2   6  -5   33.87    4.57
   2  -6   6   98.33    5.37
  -2   6  -6   84.04    6.02
  -2   6  -6   87.77    6.23
   2  -6   7  908.15   21.30
  -2   6  -7  888.09   20.82
   2  -6   8   56.23    4.95
  -2   6  -8   69.80    5.48
   2  -6   8   75.08    6.07
   2  -6   9  238.40   10.39
  -2   6  -9  234.28    9.74
   2  -6   9  225.96    9.50
   2  -6  10  265.15    9.91
  -2   6 -10  271.38    9.50
   2  -6  10  267.90    9.53
   2  -6  11  161.86    6.95
  -2   6 -11  159.89    6.12
   2  -6  11  157.33    9.46
   2  -6  12   77.66    5.81
  -2   6 -12   89.96    6.03
   2  -6  12   76.63    7.73
   2  -6  13    9.16    2.13
  -2   6 -13    9.93    1.76
   2  -6  13    9.09    1.77
   2  -6  14   38.13    4.35
  -2   6 -14   31.67    3.98
   2  -6  15  100.67   10.02
  -2   6 -15  102.61    9.78
  -2   5  16  112.28   15.70
   2  -5 -16  103.73   15.87
  -2   5  15   53.59    6.39
   2  -5 -15   49.78    6.14
  -2   5  14   20.08    4.09
   2  -5 -14   20.94    3.63
  -2   5  14   13.68    1.78
  -2   5  13   24.62    4.42
   2  -5 -13   20.52    2.68
  -2   5  13   26.79    2.86
  -2   5  12  197.80   13.63
   2  -5 -12  191.83    8.24
  -2   5  12  220.37   21.77
   2  -5 -11  217.93   12.83
  -2   5  11  194.45    6.99
   2  -5 -10   78.41    4.59
  -2   5  10   71.63    3.10
   2  -5  -9   96.37   14.90
  -2   5   9   92.04    6.99
   2  -5  -8  379.17   14.56
  -2   5   8  386.08   14.73
   2  -5  -7  361.80   12.42
  -2   5   7  354.29   12.10
   2  -5  -6  642.22   13.47
  -2   5   6  625.20   11.76
   2  -5  -5  221.01    8.85
   2  -5  -5  204.17    7.99
  -2   5   5  203.12    8.11
   2  -5  -4  938.62   11.96
   2  -5  -4  908.25   10.89
  -2   5   4  875.61   10.44
  -2   5   4  910.38   11.85
   2  -5  -3   36.67    2.48
   2  -5  -3   37.15    2.22
  -2   5   3   38.19    2.17
   2  -5  -2  220.78    8.87
   2  -5  -2  218.44    8.48
  -2   5   2  211.73    8.19
   2  -5  -1 1569.86   19.38
   2  -5  -1 1565.95   18.39
  -2   5   1 1543.32   18.15
   2  -5   0    3.16    2.02
   2  -5   0    4.26    0.46
  -2   5   0    3.47    0.41
  -2   5   0    0.80    1.27
   2  -5   1  843.74   11.11
   2  -5   1  831.35   40.51
  -2   5  -1  807.92   19.57
  -2   5  -1  865.96   11.28
   2  -5   2  172.37    7.18
   2  -5   2  180.26    6.99
  -2   5  -2  172.74    6.65
  -2   5  -2  182.50   10.07
   2  -5   3  153.75    6.55
   2  -5   3  137.33    8.05
  -2   5  -3  145.29    5.57
  -2   5  -3  151.10    6.32
   2  -5   4  243.07    9.70
  -2   5  -4  238.90    9.07
  -2   5  -4  249.37   10.08
   2  -5   5  158.34    6.86
  -2   5  -5  140.77    5.59
  -2   5  -5  145.17    5.69
  -2   5  -5  133.46    5.55
   2  -5   6   95.11    6.12
  -2   5  -6   88.84    5.28
   2  -5   7  220.66   10.03
  -2   5  -7  207.71    8.96
   2  -5   8  382.15   14.87
  -2   5  -8  395.49   47.28
   2  -5   8  389.22   46.56
   2  -5   9   92.77    7.58
  -2   5  -9   80.17    6.42
   2  -5   9   73.63    5.75
   2  -5  10  333.31   10.75
  -2   5 -10  335.83   10.80
   2  -5  10  344.83   10.59
   2  -5  11   84.87    5.09
  -2   5 -11   93.14    4.66
   2  -5  11   83.52    4.22
   2  -5  12  206.93    9.17
  -2   5 -12  199.93    8.24
   2  -5  12  200.70    8.18
   2  -5  13  116.03    4.91
  -2   5 -13  109.45    3.84
   2  -5  14   70.60    6.29
  -2   5 -14   54.36   12.96
   2  -5  15   62.68    6.17
  -2   5 -15   41.29    8.86
   2  -5  16   97.99    7.65
  -2   5 -16   89.86    6.89
  -2   4  16   31.67    7.21
   2  -4 -16   37.59    3.85
  -2   4  15   25.53    4.98
   2  -4 -15   28.42    3.75
  -2   4  14   10.04    1.78
   2  -4 -14    6.47    1.88
  -2   4  14    5.99    1.20
  -2   4  13    4.02    1.73
   2  -4 -13    4.31    1.65
  -2   4  13    2.82    1.16
  -2   4  12  211.84   13.67
   2  -4 -12  224.95   12.87
  -2   4  12  204.43    7.21
  -2   4  11  268.42   13.37
   2  -4 -11  254.84   12.71
  -2   4  11  263.20   12.83
  -2   4  10  275.67   11.64
   2  -4 -10  278.20   11.69
  -2   4  10  279.99   11.52
  -2   4   9  282.83   13.17
   2  -4  -9  278.47   10.97
  -2   4   9  290.98   11.26
  -2   4   8  574.23   11.93
   2  -4  -8  544.54   11.06
  -2   4   8  574.63   11.55
  -2   4   7  581.44   11.36
   2  -4  -7  560.96   12.19
  -2   4   7  564.58   10.66
  -2   4   6 1585.30   19.24
   2  -4  -6 1589.66   18.96
  -2   4   6 1593.18   18.77
  -2   4   5  935.95   12.04
   2  -4  -5  904.41   11.09
  -2   4   5  855.26   10.75
   2  -4  -4  101.62    4.62
  -2   4   4   92.09    4.04
  -2   4   4   97.17    4.36
   2  -4  -3  879.94   11.30
   2  -4  -3  876.48   10.88
  -2   4   3  857.95   10.76
   2  -4  -2 3648.36  177.66
   2  -4  -2 3977.67  193.65
   2  -4  -2 3902.68  189.88
  -2   4   2 3778.82  183.85
   2  -4  -1 4420.15   41.84
  -2   4   1 4242.58   40.04
   2  -4  -1 4388.66   40.76
  -2   4   1 4284.99   39.77
   2  -4   0  447.66    8.30
   2  -4   0  450.51    7.75
  -2   4   0  442.27    7.60
  -2   4   0  453.50    9.16
   2  -4   0  434.94    7.88
   2  -4   1   85.38    3.21
  -2   4  -1   82.60    2.67
   2  -4   1   88.82    2.50
  -2   4  -1   86.32    2.51
  -2   4  -1   89.60    3.59
   2  -4   2 1211.92   15.15
   2  -4   2 1179.14   14.12
  -2   4  -2 1178.47   13.95
   2  -4   2 1123.84   13.78
   2  -4   3   66.09    3.62
   2  -4   3   69.95    3.40
  -2   4  -3   65.20    2.81
  -2   4  -3   70.88    4.12
   2  -4   3   62.15    3.39
   2  -4   4  231.25    9.43
   2  -4   4  238.00    9.34
  -2   4  -4  217.55    8.68
  -2   4  -4  219.23    9.00
   2  -4   5  188.59    7.68
  -2   4  -5  179.87    7.16
   2  -4   5  166.06    6.55
   2  -4   6  345.18   10.91
  -2   4  -6  322.82    9.85
   2  -4   7  200.75    8.34
  -2   4  -7  209.73    8.25
   2  -4   7  201.36    8.00
   2  -4   8  359.79   12.61
  -2   4  -8  325.23   11.16
   2  -4   9    2.40    1.66
  -2   4  -9    3.34    1.45
   2  -4   9    1.09    1.18
   2  -4  10   47.57    4.54
  -2   4 -10   47.36    4.39
   2  -4  10   48.18    4.29
   2  -4  11   80.44    4.85
  -2   4 -11   87.55    4.60
   2  -4  11   78.38    4.02
   2  -4  12  480.93   14.85
  -2   4 -12  483.70   14.59
   2  -4  12  468.34   13.60
   2  -4  13  138.28    6.57
  -2   4 -13  120.65    5.59
   2  -4  14   67.31    5.38
  -2   4 -14   67.49    5.33
   2  -4  15   59.19    6.91
  -2   4 -15   44.01    7.88
   2  -4  16   53.36    6.86
  -2   4 -16   68.80    8.03
  -2   3  17    7.25    3.06
   2  -3 -17    6.73    2.56
  -2   3  16   37.69    5.49
   2  -3 -16   37.53    4.05
  -2   3  15   85.56   11.20
   2  -3 -15   85.64    9.94
  -2   3  14   24.65    3.97
   2  -3 -14   24.70    3.03
  -2   3  14   26.23    2.74
  -2   3  13   35.60    4.34
   2  -3 -13   31.45    4.06
  -2   3  13   27.11    3.64
  -2   3  12   18.30    3.18
   2  -3 -12   10.90    2.20
  -2   3  12   13.50    2.08
  -2   3  11  421.34    9.95
   2  -3 -11  381.60    8.75
  -2   3  11  421.65    9.04
  -2   3  10   25.33    4.32
   2  -3 -10   34.50    6.24
  -2   3  10   31.71    4.14
  -2   3   9  313.69   11.13
   2  -3  -9  322.09   11.48
  -2   3   9  305.46   10.51
  -2   3   8 1850.36   33.25
   2  -3  -8 1862.47   32.83
  -2   3   8 1797.12   31.46
  -2   3   7  910.48   11.76
   2  -3  -7  925.02   11.76
  -2   3   7  937.39   11.59
  -2   3   6    7.14    1.29
   2  -3  -6    5.41    1.13
  -2   3   6    3.54    0.78
  -2   3   5 1016.21   13.91
   2  -3  -5 1111.67   13.93
  -2   3   5 1107.74   13.92
  -2   3   4    5.01    1.05
   2  -3  -4    5.04    0.76
   2  -3  -4    4.49    0.74
  -2   3   4    4.93    0.73
  -2   3   4    5.32    0.81
   2  -3  -4    2.87    0.53
   2  -3  -3  848.40    9.07
   2  -3  -3  902.23    9.22
  -2   3   3  868.97    8.82
  -2   3   3  919.30    9.70
   2  -3  -3  889.41    9.36
   2  -3  -2 6039.38   56.36
   2  -3  -2 6867.08  273.61
  -2   3   2 7160.76  285.19
   2  -3  -2 6864.78  273.51
  -2   3   1 8976.98  357.56
  -2   3   1 9670.27  385.05
  -2   3   0 1192.74   11.88
   2  -3   0 1273.46   12.20
  -2   3   0 1242.26   11.87
  -2   3   0 1296.98   13.00
   2  -3   1    5.24    2.40
  -2   3  -1    5.25    1.28
   2  -3   1    2.39    0.78
  -2   3  -1    2.06    0.70
  -2   3  -1    2.85    1.08
   2  -3   2  267.39    5.44
  -2   3  -2  250.90    4.87
   2  -3   2  264.29    5.04
  -2   3  -2  256.64    4.60
   2  -3   2  260.44    5.21
  -2   3  -3  354.13    6.62
   2  -3   3  374.37    6.87
  -2   3  -3  354.93    6.56
  -2   3  -3  376.41    7.01
   2  -3   3  366.80    6.73
   2  -3   4  245.73   10.01
  -2   3  -4  239.40    9.34
  -2   3  -4  241.77    9.53
   2  -3   4  239.13    9.30
   2  -3   5  519.20   13.00
  -2   3  -5  488.08   12.19
   2  -3   5  503.84   12.47
   2  -3   6  911.89   11.83
   2  -3   6  827.29   10.17
   2  -3   7  722.94   13.71
  -2   3  -7  734.42   13.47
   2  -3   7  644.66   11.92
   2  -3   7  702.67   12.63
   2  -3   8   34.58    3.03
  -2   3  -8   37.04    3.16
   2  -3   8   22.56    3.07
   2  -3   8   33.21    2.71
   2  -3   9   75.81    4.47
  -2   3  -9   78.67    4.56
   2  -3   9   64.84    5.12
   2  -3   9   76.03    4.22
   2  -3  10    8.51    2.78
  -2   3 -10    5.19    2.22
   2  -3  10    4.65    1.24
  -2   3 -11   23.31    3.21
   2  -3  11   23.49    3.41
   2  -3  12  351.78   11.46
  -2   3 -12  330.94   10.37
   2  -3  12  318.80    9.35
   2  -3  13  156.77    7.38
  -2   3 -13  155.49    7.15
   2  -3  14   83.22    5.58
  -2   3 -14   72.36    5.50
   2  -3  15  115.96    5.94
  -2   3 -15  120.68    6.05
   2  -3  16   49.23    5.20
  -2   3 -16   34.31    4.43
  -2   2  17   26.25    5.87
   2  -2 -17   19.48    3.80
  -2   2  16   95.81    6.97
   2  -2 -16   99.76    5.05
  -2   2  15  248.85    9.19
   2  -2 -15  261.80   13.22
  -2   2  14  217.77   12.69
   2  -2 -14  218.36    8.61
  -2   2  13  290.17   10.65
   2  -2 -13  308.40    9.94
  -2   2  13  299.60    9.23
  -2   2  12   35.83    3.39
   2  -2 -12   30.22    2.31
  -2   2  12   31.99    1.70
  -2   2  11  177.88   14.72
   2  -2 -11  163.54    8.28
  -2   2  11  162.69    7.92
  -2   2  10  277.01   11.05
   2  -2 -10  261.22   31.44
  -2   2  10  282.69   10.92
  -2   2   9  459.42   15.61
   2  -2  -9  451.47   15.72
  -2   2   9  439.12   14.76
  -2   2   8  548.25   10.73
   2  -2  -8  520.83   10.05
  -2   2   8  529.35    9.99
  -2   2   7  488.73   16.31
  -2   2   7  525.56   15.65
  -2   2   6   23.30    2.26
   2  -2  -6   16.54    1.49
  -2   2   6   17.23    1.24
   2  -2  -6   14.92    1.32
  -2   2   5  864.93   11.24
   2  -2  -5  855.92   10.93
  -2   2   5  854.12   11.84
   2  -2  -5  802.10   19.77
  -2   2   4  919.56    9.69
   2  -2  -4  861.55    9.07
   2  -2  -4  888.37    9.24
  -2   2   4  866.60    9.04
  -2   2   3    1.45    0.48
   2  -2  -3    4.52    0.87
   2  -2  -3    1.12    1.00
  -2   2   3    0.75    0.59
   2  -2  -3    3.40    1.19
   2  -2  -2 4492.01   42.06
   2  -2  -2 4515.35   42.63
   2  -2  -2 4468.72   41.62
  -2   2   2 4247.64   39.55
   2  -2  -2 4336.36   40.65
  -2   2   1 9999.00  398.22
   2  -2   0  113.16    3.52
  -2   2   0  105.15    3.23
  -2   2   0  113.61    3.26
  -2   2   0  115.90    3.42
  -2   2  -1 3751.41   35.19
  -2   2  -1 3807.20   35.43
  -2   2  -1 3856.80   36.06
   2  -2   2  172.58    5.07
  -2   2  -2  167.16    4.72
  -2   2  -2  162.43    4.47
  -2   2  -2  170.10    4.80
   2  -2   2  170.09    4.65
   2  -2   3   52.96    2.22
  -2   2  -3   53.60    2.08
  -2   2  -3   54.83    2.20
  -2   2  -3   64.27    3.54
   2  -2   3   54.69    1.73
  -2   2  -4 1181.33   12.00
   2  -2   5 1682.80   19.80
   2  -2   6 1309.65   15.93
   2  -2   6 1280.84   14.47
   2  -2   6 1301.67   14.81
   2  -2   7  326.07   10.26
  -2   2  -7  325.13   10.06
   2  -2   7  296.22   11.34
   2  -2   7  307.23   17.34
   2  -2   8  729.82   13.89
  -2   2  -8  738.05   13.67
   2  -2   8  694.65   12.29
   2  -2   8  744.00   13.20
   2  -2   9  195.55    8.26
  -2   2  -9  189.88    7.87
   2  -2   9  183.03    7.28
   2  -2   9  181.75    7.54
   2  -2  10   32.43    4.61
  -2   2 -10   31.59    4.26
   2  -2  10   24.72    3.53
   2  -2  10   28.93    4.50
   2  -2  11    9.43    2.52
  -2   2 -11    7.11    2.40
   2  -2  11    5.65    1.04
   2  -2  12   45.11    3.76
  -2   2 -12   48.98    3.74
   2  -2  12   41.61    2.97
  -2   2 -13  291.60   12.57
  -2   2 -14   40.43    4.33
  -2   2 -15  106.26    7.88
  -2   2 -16   25.66    4.48
  -2   1  17   49.05    5.97
   2  -1 -17   36.31    5.56
  -2   1  16  133.61   13.42
   2  -1 -16  137.31    6.45
  -2   1  15  289.48   17.52
   2  -1 -15  345.79   10.99
  -2   1  15  304.15    8.94
  -2   1  14  286.80   16.13
   2  -1 -14  277.26   10.62
  -2   1  14  285.87   10.38
  -2   1  13  331.40   11.50
   2  -1 -13  347.58   11.46
  -2   1  13  327.49    9.11
  -2   1  12  223.23   14.80
   2  -1 -12  194.71    7.79
  -2   1  12  215.24   10.58
  -2   1  11    8.92    2.32
   2  -1 -11    7.35    1.80
  -2   1  11    5.98    1.21
  -2   1  10  701.58   16.88
   2  -1 -10  717.09   16.91
  -2   1  10  704.39   16.38
  -2   1   9   80.81    7.13
   2  -1  -9   95.26    6.93
  -2   1   9   89.22    9.29
  -2   1   8   43.57    4.40
   2  -1  -8   38.42    2.62
  -2   1   8   36.16    2.46
  -2   1   7  186.04    9.60
   2  -1  -7  189.98    7.59
  -2   1   7  176.71    7.03
  -2   1   6  574.06   15.02
   2  -1  -6  590.03   14.82
  -2   1   6  568.36   14.51
   2  -1  -6  525.01   13.13
  -2   1   5  333.22    6.60
   2  -1  -5  290.31    5.57
   2  -1  -5  307.99    5.94
  -2   1   5  298.60    5.58
  -2   1   5  319.68    6.12
   2  -1  -5  313.83    5.91
  -2   1   4   40.82    3.56
   2  -1  -4   35.99    3.01
   2  -1  -4   27.19    1.38
  -2   1   4   30.07    2.00
   2  -1  -4   32.88    1.46
  -2   1   3  404.29    8.33
   2  -1  -3  397.08    8.12
   2  -1  -3  397.90    7.15
   2  -1  -3  402.39    7.33
  -2   1   2  188.42    5.39
   2  -1  -2  177.91    4.90
   2  -1  -2  181.65    5.14
   2  -1  -2  172.64    4.87
   2  -1  -1   69.18    2.12
  -2   1   1   72.09    2.23
   2  -1  -1   71.49    2.23
  -2   1   1   70.93    2.29
   2  -1  -1   69.25    2.31
   2  -1   0 2969.38   27.76
  -2   1   0 2874.63   26.86
   2  -1   0 2898.18   27.12
  -2   1   0 2940.24   27.54
   2  -1   0 2900.64   27.16
   2  -1   1  991.92    9.92
  -2   1  -1  985.91    9.79
   2  -1   1  991.75    9.79
  -2   1  -1  962.57    9.44
   2  -1   1  990.88    9.63
   2  -1   2 2454.67   23.36
  -2   1  -2 2428.09   23.06
   2  -1   2 2483.90   23.55
  -2   1  -2 2462.84   23.00
   2  -1   2 2425.90   22.66
   2  -1   3  165.63    4.89
  -2   1  -3  154.95    4.43
   2  -1   3  169.21    5.13
  -2   1  -3  163.79    4.48
   2  -1   3  163.85    4.38
   2  -1   4 1158.64   11.95
  -2   1  -4 1095.20   11.20
   2  -1   4 1168.07   11.91
   2  -1   4 1150.10   10.93
   2  -1   5  978.28   12.49
   2  -1   5 1008.20   12.72
   2  -1   5  983.95   11.59
   2  -1   5  971.56   11.50
   2  -1   6 1192.00   15.13
   2  -1   6 1199.18   14.06
   2  -1   6 1198.57   14.14
  -2   1  -7    4.95    1.08
   2  -1   7    3.19    0.43
   2  -1   7    3.80    0.62
   2  -1   8  961.34   17.73
  -2   1  -8  957.02   17.45
   2  -1   8  889.17   15.34
   2  -1   8  928.92   16.08
   2  -1   9  968.19   19.02
  -2   1  -9  912.95   17.82
   2  -1   9  877.16   16.28
   2  -1   9  926.20   17.12
   2  -1  10   60.64    5.17
  -2   1 -10   53.01    4.43
   2  -1  10   49.07    3.99
   2  -1  10   58.09    4.66
   2  -1  11    5.02    1.70
  -2   1 -11    6.53    2.79
   2  -1  11    0.83    0.74
   2  -1  12   74.48    4.37
  -2   1 -12   70.03    4.21
   2  -1  13  308.18   13.54
  -2   1 -13  305.05   13.48
   2  -1  14   40.85    4.70
  -2   1 -14   50.38    4.42
   2  -1  15   15.80    2.73
  -2   1 -15   25.97    3.84
   2  -1  16   34.57    4.05
  -2   1 -16   30.66    4.92
  -2   0  17   15.95    3.50
   2   0 -17   20.66    5.38
  -2   0  16   84.13   11.08
   2   0 -16  100.36    7.47
  -2   0  15  167.95   10.99
   2   0 -15  182.05    6.28
  -2   0  15  167.91    4.95
  -2   0  14  237.08   10.84
  -2   0  14  243.19   10.38
  -2   0  13  198.78   16.75
  -2   0  13  197.13    7.16
  -2   0  12  341.27   14.33
  -2   0  12  360.06   10.97
  -2   0  11   23.04    3.70
   2   0 -11   17.70    2.71
  -2   0  11   16.13    2.69
  -2   0  10  198.88    8.56
   2   0 -10  186.94    7.97
  -2   0  10  195.89    8.07
  -2   0   9  172.20    7.54
   2   0  -9  167.09    6.96
  -2   0   9  160.60    6.56
  -2   0   8  496.40   15.24
   2   0  -8  494.06   15.05
  -2   0   8  480.66   14.94
  -2   0   7  202.35    8.32
   2   0  -7  217.23    9.35
  -2   0   7  211.31    8.44
   2   0  -7  193.01    7.74
  -2   0   6   45.04    2.62
   2   0  -6   63.49    3.43
  -2   0   6   43.79    2.46
   2   0  -6   43.44    2.28
  -2   0   5 1213.95   12.55
   2   0  -5 1195.03   12.08
  -2   0   5 1126.08   11.37
  -2   0   5 1215.88   12.41
   2   0  -5 1179.32   11.97
  -2   0   4  193.90    5.45
   2   0  -4  183.45    5.11
  -2   0   4  182.64    5.10
  -2   0   4  180.78    5.25
   2   0  -4  176.85    5.02
  -2   0   3 1715.61   16.67
   2   0  -3 1672.35   16.06
  -2   0   3 1663.43   16.56
   2   0  -3 1654.84   16.10
  -2   0   2  383.85    6.68
   2   0  -2  371.83    6.46
   2   0  -2  382.75    6.87
  -2   0   2  372.62    6.63
  -2   0   2  331.83    6.15
   2   0   0 2157.51   20.35
  -2   0   0 2223.59   20.90
   2   0   1  354.40    6.32
   2   0   1  340.18    5.89
   2   0   2  484.33    8.57
  -2   0  -2  463.05    7.82
   2   0   2  460.92    7.79
   2   0   3 1726.00   17.08
  -2   0  -3 1695.08   15.64
   2   0   3 1694.93   15.66
   2   0   4  897.49    9.44
   2   0   4  918.43    9.91
   2   0   5  366.50    9.48
   2   0   5  367.16    9.41
   2   0   6  351.49    9.22
   2   0   6  349.63   17.35
   2   0   7  444.98   13.54
  -2   0  -7  464.37   14.07
   2   0   7  432.89   12.48
   2   0   8   61.59    4.23
  -2   0  -8   59.28    4.11
   2   0   8   50.08    2.85
   2   0   8   55.87    3.17
   2   0   9  675.13   13.73
   2   0   9  595.71   10.91
   2   0   9  637.30   11.68
   2   0  10   74.35    6.06
   2   0  10   56.55    4.09
   2   0  10   63.17    4.58
   2   0  11  215.00    9.44
   2   0  11  168.60    7.67
   2   0  12  380.12   11.04
   2   0  13  112.15    7.08
  -2   0 -13  105.88    5.38
   2   0  14   78.00    4.91
  -2   0 -14   89.73    5.15
   2   0  15   20.41    3.80
  -2   0 -15   26.09    3.99
   2   0  16   31.42    5.80
  -2   0 -16   28.39    4.70
  -2  -1  17   72.78   10.86
   2   1 -17   91.49    8.86
  -2  -1  16   69.58    9.04
   2   1 -16   77.18   11.93
  -2  -1  15  144.76   14.91
   2   1 -15  144.05    5.17
  -2  -1  15  141.23    4.33
  -2  -1  14  186.00   13.78
   2   1 -14  201.40    8.62
  -2  -1  14  187.52    8.12
  -2  -1  13  123.42    9.49
   2   1 -13  123.81    7.81
  -2  -1  13  114.50    5.52
  -2  -1  12    1.99    1.33
   2   1 -12    4.46    1.91
  -2  -1  12    1.34    1.04
  -2  -1  11  203.79    8.32
   2   1 -11  223.26    8.90
  -2  -1  11  211.00    8.14
  -2  -1  10  339.38   13.22
   2   1 -10  338.30   13.18
  -2  -1  10  321.40   12.50
  -2  -1   9  443.22   30.67
   2   1  -9  490.49    9.70
  -2  -1   9  434.13   13.42
  -2  -1   8  165.17    6.86
   2   1  -8  159.79    6.81
  -2  -1   8  158.79    6.85
  -2  -1   7  587.84   17.59
   2   1  -6  816.93   39.98
  -2  -1   6  965.43   12.31
   2   1  -6  822.60   40.25
   2   1  -5  743.26   12.92
   2   1  -5  758.55   13.22
  -2  -1   5  764.14   13.25
  -2  -1   5  763.57   13.58
   2   1  -4    9.01    0.83
   2   1  -4    9.39    0.89
  -2  -1   4    6.86    0.74
  -2  -1   4    5.03    0.84
   2   1  -4    7.83    0.84
   2   1  -3  637.61   10.91
   2   1  -3  634.72   10.99
  -2  -1   3  638.13   11.01
  -2  -1   3  640.63   11.27
   2   1  -3  624.55   10.91
  -2  -1   2 6260.17   58.04
  -2  -1   1 3553.78   33.19
  -2  -1   1 3579.47   33.54
   2   1   0   14.07    0.49
  -2  -1   0   18.78    0.65
  -2  -1   0   18.51    0.94
  -2  -1   0   16.32    1.08
   2   1   2  982.74    9.67
  -2  -1  -2  996.76    9.77
   2   1   2  998.49   10.18
  -2  -1  -2  979.09   10.05
  -2  -1  -2  994.39    9.47
   2   1   2  986.71    9.34
   2   1   3  868.73    8.91
  -2  -1  -3  843.81    8.59
  -2  -1  -3  861.97    8.89
  -2  -1  -3  867.65    8.10
  -2  -1  -3  861.34    8.08
   2   1   4 1096.12   11.24
  -2  -1  -4 1051.74   10.74
  -2  -1  -4 1035.75   10.72
   2   1   6  742.66    9.61
   2   1   6  717.73    9.20
   2   1   7  112.70    6.15
  -2  -1  -7  112.96    6.02
   2   1   8   11.15    1.53
  -2  -1  -8    9.45    1.41
   2   1   9  553.51   13.42
  -2  -1  -9  436.27   10.76
   2   1  10  385.95    9.26
  -2  -1 -10  392.30    9.29
   2   1  11  217.88   16.56
  -2  -1 -11  201.14   23.83
   2   1  12  140.64   10.25
  -2  -1 -12  164.10    7.95
   2   1  13  191.34    8.86
  -2  -1 -13  186.95    8.14
   2   1  14   70.20    6.95
  -2  -1 -14   61.44    7.68
   2   1  15   51.81    6.96
  -2  -1 -15   54.04    6.20
   2   1  16   27.47    5.18
  -2  -1 -16   35.40    5.25
  -2  -2  17  137.71   16.04
   2   2 -17  161.85   15.08
  -2  -2  16   80.84    8.46
   2   2 -16   75.47    6.59
  -2  -2  15   97.05    8.69
   2   2 -15  107.76   10.69
  -2  -2  15  103.32    3.56
  -2  -2  14  102.69    8.81
   2   2 -14   96.34    6.13
  -2  -2  14   90.78    6.43
  -2  -2  13   42.38    3.48
   2   2 -13   49.37    3.84
  -2  -2  13   42.39    3.05
  -2  -2  12   37.85    2.85
   2   2 -12   44.23    3.20
  -2  -2  12   41.17    2.16
  -2  -2  11    9.62    1.78
   2   2 -11    7.58    2.80
  -2  -2  11    3.74    1.62
  -2  -2  10   65.02    5.67
   2   2 -10   64.38    5.42
  -2  -2  10   72.40    7.05
  -2  -2   9  652.54   13.10
   2   2  -9  689.08   13.73
  -2  -2   9  664.59   13.23
  -2  -2   8 1634.02   28.83
   2   2  -8 1671.37   30.47
  -2  -2   8 1553.20   27.49
  -2  -2   7 2336.46   26.79
   2   2  -7 2231.13   25.67
  -2  -2   7 2282.66   26.29
  -2  -2   6  777.82   19.29
   2   2  -6  769.70   19.08
  -2  -2   6  768.68   19.15
  -2  -2   5   30.45    1.90
   2   2  -5   32.91    1.83
   2   2  -5   30.33    1.93
  -2  -2   5   32.82    1.69
  -2  -2   4  228.92    6.26
   2   2  -4  223.73    6.10
   2   2  -4  223.95    6.20
  -2  -2   4  233.86    9.58
   2   2  -4  221.31    6.19
  -2  -2   3 1153.97   11.22
   2   2  -3 1144.34   11.10
   2   2  -3 1143.33   11.26
  -2  -2   3 1168.42   11.50
   2   2  -3 1129.51   11.40
   2   2  -2 4452.31   41.15
  -2  -2   2 4514.53   42.38
   2   2  -1 6099.35   56.02
  -2  -2   1 6320.40   58.80
   2   2  -1 6127.09   56.92
  -2  -2   0   61.42    1.71
  -2  -2   0   65.30    2.02
   2   2   0   61.24    2.03
  -2  -2   0   64.46    2.39
   2   2   0   59.74    2.03
   2   2   1 2673.47   24.89
  -2  -2  -1 2598.66   24.20
  -2  -2  -1 2669.59   25.12
   2   2   2  517.47    8.96
  -2  -2  -2  504.76    8.72
  -2  -2  -2  515.91    8.88
   2   2   3  114.32    3.97
  -2  -2  -3  114.22    3.35
  -2  -2  -3  107.77    3.22
  -2  -2  -3  114.61    3.18
  -2  -2  -3  111.29    3.09
   2   2   4 1136.69   14.00
  -2  -2  -4 1114.90   13.68
  -2  -2  -4 1118.36   13.11
   2   2   5 2584.53   30.78
   2   2   5 2608.20   31.38
  -2  -2  -5 2536.96   29.32
   2   2   6  332.29   10.68
  -2  -2  -6  337.45    9.79
   2   2   7  131.49    5.58
  -2  -2  -7  132.97    5.73
  -2  -2  -7  125.99    4.73
   2   2   8  614.50   12.45
  -2  -2  -8  629.94   12.77
  -2  -2  -8  599.61   10.95
   2   2   9  605.63   14.64
  -2  -2  -9  616.45   14.84
   2   2  10  101.72    9.01
  -2  -2 -10  109.35    6.29
   2   2  11  107.40   11.31
  -2  -2 -11  101.53    4.88
   2   2  12  191.20   13.57
  -2  -2 -12  189.55    7.50
   2   2  13  150.48   12.86
  -2  -2 -13  135.05    6.41
   2   2  14  130.15   10.31
  -2  -2 -14  154.68    5.85
   2   2  15   70.77    7.88
  -2  -2 -15   75.01    6.83
   2   2  16   26.20    5.68
  -2  -2 -16   32.26    4.67
  -2  -3  17   69.58   11.08
   2   3 -17   84.04    8.80
  -2  -3  16   67.30    9.31
   2   3 -16   71.85   10.83
  -2  -3  16   55.69   10.49
  -2  -3  15  106.54    6.60
   2   3 -15  106.51    9.56
  -2  -3  15   96.41    5.51
  -2  -3  14  266.58   10.51
   2   3 -14  277.81   10.56
  -2  -3  14  248.59    9.43
  -2  -3  13   32.95    4.09
   2   3 -13   40.19    4.49
  -2  -3  13   29.81    3.67
  -2  -3  12    4.52    2.27
   2   3 -12    3.66    1.97
  -2  -3  12    4.99    1.50
  -2  -3  11   30.74    3.66
   2   3 -11   34.47    3.72
  -2  -3  11   30.82    4.59
  -2  -3  10  922.42   21.49
   2   3 -10  916.40   21.20
  -2  -3  10  931.62   21.63
  -2  -3   9 1930.39   36.17
   2   3  -9 1980.03  151.50
  -2  -3   9 1965.95  150.46
  -2  -3   8 1261.32   22.49
   2   3  -8 1289.42   24.92
  -2  -3   8 1340.27   23.97
  -2  -3   7   31.45    2.27
   2   3  -7   29.10    2.00
  -2  -3   7   27.35    2.11
  -2  -3   6   41.83    2.60
   2   3  -6   36.72    1.96
   2   3  -6   39.33    2.10
  -2  -3   6   31.79    1.68
  -2  -3   6   41.15    2.75
  -2  -3   5   75.32    3.54
   2   3  -5   73.34    3.28
   2   3  -5   69.51    3.29
  -2  -3   5   78.31    3.44
  -2  -3   4 1534.72   18.37
   2   3  -4 1529.19   18.25
   2   3  -4 1550.63   18.51
  -2  -3   4 1558.53   18.58
  -2  -3   3  453.15    7.96
   2   3  -3  445.80    7.79
   2   3  -3  454.93    8.13
  -2  -3   3  449.79    7.89
  -2  -3   2  451.22    7.79
   2   3  -2  453.63    7.79
   2   3  -2  465.48    8.51
  -2  -3   2  454.39    7.96
  -2  -3   2  468.39    8.59
   2   3  -2  457.12    8.23
  -2  -3   1  310.69    5.39
   2   3  -1  345.84    5.95
   2   3  -1  327.88    5.83
  -2  -3   1  330.57    5.88
  -2  -3   1  327.16    6.25
  -2  -3   0  925.42    8.85
  -2  -3   0  941.82    9.02
   2   3   0  936.91    9.27
  -2  -3   0  914.35    9.04
   2   3   1   76.38    2.30
   2   3   1   78.57    2.56
  -2  -3  -1   71.54    2.20
  -2  -3  -1   71.62    2.36
  -2  -3  -1   73.36    2.40
   2   3   2  656.90   11.52
  -2  -3  -2  633.22   10.89
   2   3   2  657.73   11.51
  -2  -3  -2  624.47   10.87
  -2  -3  -2  643.60   11.11
   2   3   3  135.49    5.50
  -2  -3  -3  134.14    5.34
   2   3   3  128.43    5.27
  -2  -3  -3  127.26    5.17
  -2  -3  -3  133.13    5.24
   2   3   4   60.12    3.06
  -2  -3  -4   61.16    2.79
   2   3   4   62.86    3.24
  -2  -3  -4   59.44    2.63
   2   3   5  130.83    7.78
   2   3   5  118.76    7.03
   2   3   5  139.91    7.96
  -2  -3  -5  133.54    7.60
   2   3   6  650.52   10.84
   2   3   6  727.93    8.46
  -2  -3  -6  691.94    8.04
   2   3   7  541.44   10.57
  -2  -3  -7  551.83   10.59
   2   3   7  523.23    9.30
  -2  -3  -7  512.23    9.06
   2   3   8  375.29   13.38
  -2  -3  -8  386.36   13.31
   2   3   8  375.05   12.26
  -2  -3  -8  362.52   11.89
   2   3   9  237.94   10.22
  -2  -3  -9  237.74    9.39
   2   3   9  231.96    8.35
  -2  -3  -9  215.80    7.81
   2   3  10   96.91    7.19
  -2  -3 -10  107.03    6.41
   2   3  11   57.55    9.93
  -2  -3 -11   63.96    4.01
   2   3  12  472.59   20.32
  -2  -3 -12  416.72   20.49
   2   3  13   40.24    6.14
  -2  -3 -13   32.54    4.04
   2   3  14  294.28   12.56
  -2  -3 -14  267.61   11.74
   2   3  15  129.59   16.80
  -2  -3 -15  137.83   11.88
   2   3  16   30.29    6.35
  -2  -3 -16   43.98    6.52
  -2  -4  17  110.93   14.19
   2   4 -17  135.04   12.69
  -2  -4  16  143.55    6.84
   2   4 -16  145.76    6.59
  -2  -4  16  128.43    5.77
  -2  -4  15   82.76    8.43
   2   4 -15   94.69    9.50
  -2  -4  15   82.57    8.18
  -2  -4  14  192.66    7.94
   2   4 -14  174.49    7.59
  -2  -4  14  183.12    7.31
  -2  -4  13   30.66    3.27
   2   4 -13   23.25    3.44
  -2  -4  13   26.59    3.76
  -2  -4  12   13.08    2.46
   2   4 -12    9.68    2.09
  -2  -4  12    7.94    1.83
  -2  -4  11 1631.29   32.06
   2   4 -11 1599.14   33.13
  -2  -4  11 1667.19  202.91
  -2  -4  10 1874.14   38.14
   2   4 -10 1866.48   37.78
  -2  -4  10 1861.34   39.94
  -2  -4   9  764.76   17.91
   2   4  -9  762.35   18.11
  -2  -4   9  753.30   17.74
  -2  -4   8  311.15   10.78
   2   4  -8  317.21   10.98
  -2  -4   8  314.63   11.05
  -2  -4   7  481.55    9.27
   2   4  -7  510.49    9.72
  -2  -4   7  489.48    9.63
  -2  -4   6 1484.73   17.47
   2   4  -6 1485.01   17.21
  -2  -4   6 1381.47   15.94
  -2  -4   6 1467.62   17.69
  -2  -4   5  233.97    9.22
   2   4  -5  228.46    8.99
   2   4  -5  233.69    9.20
  -2  -4   5  213.10    8.65
  -2  -4   4 1771.18   21.17
   2   4  -4 1750.75   20.85
   2   4  -4 1773.52   21.04
  -2  -4   4 1799.44   21.31
  -2  -4   4 1819.93   22.32
  -2  -4   3 1936.67   22.91
   2   4  -3 1930.91   22.74
   2   4  -3 1967.02   23.14
  -2  -4   3 1947.96   22.90
  -2  -4   3 1803.04   22.02
  -2  -4   2 1169.38   13.99
   2   4  -2 1147.69   13.68
   2   4  -2 1203.19   14.34
  -2  -4   2 1140.89   13.60
  -2  -4   2 1207.15   15.11
  -2  -4   1 1597.28   18.79
   2   4  -1 1627.84   19.10
   2   4  -1 1613.74   19.01
  -2  -4   1 1627.31   19.43
  -2  -4   1 1529.05   18.56
  -2  -4   1 1675.17   20.37
  -2  -4   0  122.42    5.00
  -2  -4   0  120.04    4.73
   2   4   0  122.59    5.19
  -2  -4   0  118.69    4.69
  -2  -4   0  115.36    4.73
  -2  -4  -1  166.75    6.54
  -2  -4  -1  175.44    7.14
   2   4   1  178.66    7.16
  -2  -4  -1  180.90    7.07
  -2  -4  -1  171.74    6.83
   2   4   2   21.92    2.69
  -2  -4  -2   13.14    1.55
   2   4   2   16.06    2.20
  -2  -4  -2   10.65    0.81
  -2  -4  -2   10.75    1.37
   2   4   3  122.06    5.04
   2   4   3  115.44    4.99
  -2  -4  -3  104.92    4.51
  -2  -4  -3  104.31    4.40
   2   4   4   62.03    3.76
  -2  -4  -4   58.64    3.18
   2   4   4   61.83    4.07
  -2  -4  -4   57.44    3.01
   2   4   5  106.04    5.87
   2   4   5  104.12    5.47
   2   4   5  112.83    5.78
  -2  -4  -5  106.01    5.37
   2   4   6  629.81   11.86
   2   4   6  614.21   11.10
  -2  -4  -6  604.99   10.76
   2   4   7   12.23    1.99
  -2  -4  -7    6.46    1.20
   2   4   7    7.80    0.98
  -2  -4  -7    6.02    0.87
   2   4   8  260.82   31.63
  -2  -4  -8  252.18   10.24
   2   4   8  237.69    9.30
  -2  -4  -8  232.91    8.99
   2   4   9  280.61   12.23
  -2  -4  -9  297.73   12.52
   2   4   9  263.56   10.47
   2   4  10   21.00    3.94
  -2  -4 -10   18.75    2.99
   2   4  10   12.75    2.32
   2   4  11    5.23    1.57
  -2  -4 -11    5.28    1.86
   2   4  12  512.57   19.23
  -2  -4 -12  541.05   51.51
   2   4  13  266.39   16.93
  -2  -4 -13  284.25    9.04
   2   4  14   75.93   10.11
  -2  -4 -14   81.57    7.12
   2   4  15  133.62   16.60
  -2  -4 -15  168.56   15.84
  -2  -5  17  174.27   12.55
   2   5 -17  180.44   13.17
  -2  -5  16   76.64    7.50
   2   5 -16   81.59    7.63
  -2  -5  16   60.10    7.11
  -2  -5  15   27.44    5.70
   2   5 -15   25.64    3.39
  -2  -5  15   22.04    3.98
  -2  -5  14   13.06    2.32
   2   5 -14   15.88    2.37
  -2  -5  14   12.88    2.18
  -2  -5  13   87.71    4.94
   2   5 -13   99.68    5.21
  -2  -5  13  105.81    5.79
  -2  -5  12  112.14    5.52
   2   5 -12  115.43    5.21
  -2  -5  12  109.04    5.23
  -2  -5  11  551.92   16.73
   2   5 -11  559.88   16.71
  -2  -5  11  560.62   17.05
  -2  -5  10  322.39   13.43
   2   5 -10  321.18   13.16
  -2  -5  10  316.53   13.26
  -2  -5   9  286.96   10.96
   2   5  -9  301.76   11.65
  -2  -5   9  288.49   11.29
  -2  -5   8  241.88   10.54
   2   5  -8  255.41   10.97
  -2  -5   8  227.01   10.12
  -2  -5   7  385.86   13.11
   2   5  -7  392.83   13.17
  -2  -5   7  387.68   13.40
  -2  -5   6   69.22    4.34
   2   5  -6   71.87    4.39
  -2  -5   6   63.36    3.81
  -2  -5   6   74.23    4.88
  -2  -5   5  939.93   11.53
   2   5  -5  923.91   11.61
  -2  -5   5  923.50   10.84
  -2  -5   4  777.98    9.56
   2   5  -4  759.24    9.21
   2   5  -4  759.13    9.73
  -2  -5   4  752.97    8.88
  -2  -5   4  793.12   10.46
  -2  -5   3 1551.86   18.65
   2   5  -3 1544.41   18.45
   2   5  -3 1533.09   18.15
  -2  -5   3 1536.74   18.17
  -2  -5   3 1623.80   20.24
  -2  -5   2  776.91   19.05
   2   5  -2  744.85   18.21
   2   5  -2  777.81   18.94
  -2  -5   2  742.09   18.07
  -2  -5   2  760.75   19.06
  -2  -5   1  952.28   11.67
   2   5  -1  938.37   11.40
   2   5  -1  929.50   11.19
  -2  -5   1  916.20   11.09
  -2  -5   1  939.03   12.20
  -2  -5   0  622.86   15.28
  -2  -5   0  628.99   15.46
   2   5   0  627.66   15.60
  -2  -5   0  630.61   15.44
  -2  -5  -1    1.12    0.49
  -2  -5  -1    2.62    0.60
   2   5   1    0.71    0.39
  -2  -5  -1    6.49    0.97
  -2  -5  -2    2.80    0.57
  -2  -5  -2    2.77    0.63
   2   5   2    3.51    0.76
  -2  -5  -2    0.99    0.65
  -2  -5  -2    2.33    0.44
   2   5   3   32.98    2.45
  -2  -5  -3   29.89    2.31
   2   5   3   33.09    3.18
  -2  -5  -3   26.08    3.25
  -2  -5  -3   20.80    2.32
   2   5   4  301.75   10.02
   2   5   4  300.04    9.19
   2   5   4  311.70    9.22
  -2  -5  -4  269.74    8.18
   2   5   5  100.54    7.48
   2   5   5  121.68    5.48
  -2  -5  -5  104.68    4.18
   2   5   6  464.23   15.80
  -2  -5  -6  458.03   15.51
   2   5   6  452.60   15.43
  -2  -5  -6  387.92   12.86
   2   5   7  609.75   14.62
  -2  -5  -7  577.00   13.82
   2   5   7  533.04   12.76
  -2  -5  -7  535.07   12.26
   2   5   8   47.08    6.50
  -2  -5  -8   47.92    4.23
   2   5   8   41.25    4.31
  -2  -5  -8   39.17    3.03
   2   5   9    4.30    1.67
  -2  -5  -9    5.14    1.79
   2   5   9    0.69    0.60
   2   5  10    6.11    1.61
  -2  -5 -10    6.94    2.51
   2   5  10    2.19    0.84
   2   5  11  111.83   10.74
  -2  -5 -11   99.98    5.73
   2   5  12  233.65    7.53
  -2  -5 -12  222.35    7.06
   2   5  13  302.25   13.48
  -2  -5 -13  314.80   58.91
   2   5  14    5.16    2.31
  -2  -5 -14    8.66    2.92
   2   5  15   49.97   10.17
  -2  -5 -15   60.64    8.56
  -2  -6  16   21.81    4.19
   2   6 -16   23.36    4.18
  -2  -6  16   26.79    4.82
  -2  -6  15   40.64    4.69
   2   6 -15   44.45    4.87
  -2  -6  15   40.50    4.50
  -2  -6  14  100.94    6.49
   2   6 -14   98.82    5.89
  -2  -6  14  106.20    6.56
  -2  -6  13   88.89    5.09
   2   6 -13   91.25    4.84
  -2  -6  13   87.53    8.13
  -2  -6  12   14.55    3.00
   2   6 -12   13.56    2.35
  -2  -6  12    8.49    2.44
  -2  -6  11   62.24    3.88
   2   6 -11   52.54    3.55
  -2  -6  11   55.62    9.11
  -2  -6  10  185.09    7.51
   2   6 -10  172.74    6.68
  -2  -6  10  173.18    7.20
  -2  -6   9    6.81    1.67
   2   6  -9    5.96    1.39
  -2  -6   9   13.06    3.94
  -2  -6   8   42.93    3.76
   2   6  -8   47.27    3.75
  -2  -6   8   42.74    6.45
  -2  -6   7  112.86    6.11
   2   6  -7  115.38    5.93
  -2  -6   7  117.74    6.55
  -2  -6   6  117.58    5.70
   2   6  -6  105.59    4.93
  -2  -6   6  103.11    4.77
  -2  -6   6  120.98    6.27
  -2  -6   5  262.87    8.05
   2   6  -5  251.12    7.52
  -2  -6   5  247.74    7.34
  -2  -6   4  262.81    8.02
   2   6  -4  234.45    7.03
   2   6  -4  255.72    7.61
  -2  -6   4  252.69    7.35
  -2  -6   4  260.93    8.38
  -2  -6   3  210.69    8.25
   2   6  -3  201.59    7.79
   2   6  -3  214.32    8.13
  -2  -6   3  210.46    8.09
  -2  -6   3  222.05    9.01
  -2  -6   2  175.92    6.95
   2   6  -2  165.12    6.43
   2   6  -2  168.79    6.45
  -2  -6   2  160.59    6.32
  -2  -6   2  170.71    7.11
  -2  -6   1  163.96    6.51
   2   6  -1  161.91    6.30
   2   6  -1  159.59    6.21
  -2  -6   1  158.01    6.07
  -2  -6   0 1830.76   20.85
   2   6   0 1754.43   20.12
  -2  -6   0 1751.87   19.80
  -2  -6  -1  138.27    8.00
  -2  -6  -1  159.75    6.32
   2   6   1  144.59    5.85
  -2  -6  -1  149.73    5.80
  -2  -6  -2  129.97    5.25
  -2  -6  -2  151.62    6.06
   2   6   2  148.84    5.92
  -2  -6  -2  138.86    5.41
  -2  -6  -3  127.68    5.28
   2   6   3  128.37    5.42
   2   6   5 1333.63   30.23
  -2  -6  -5 1310.86   29.58
   2   6   5 1314.38   30.15
   2   6   6  670.00   15.98
  -2  -6  -6  668.55   15.73
   2   6   6  673.29   15.74
   2   6   7  211.38    9.15
  -2  -6  -7  210.38    8.23
   2   6   7  219.75    8.37
   2   6   8   43.41    4.23
  -2  -6  -8   38.25    2.61
   2   6   8   37.43    4.35
   2   6   9   30.53    2.97
  -2  -6  -9   23.61    2.66
   2   6   9   21.87    3.07
   2   6  10   94.82   10.90
  -2  -6 -10  101.44    5.37
   2   6  11  106.59    9.62
  -2  -6 -11  113.75   11.33
   2   6  12   52.13    6.33
  -2  -6 -12   48.55    4.54
   2   6  13   33.29    5.78
  -2  -6 -13   31.68    4.17
   2   6  14   20.95    4.53
  -2  -6 -14   28.14    5.04
  -2  -7  16   28.59    4.48
   2   7 -16   27.84    4.17
  -2  -7  16   32.16    5.02
  -2  -7  15   18.42    3.06
   2   7 -15   19.05    2.85
  -2  -7  15   25.88    4.26
  -2  -7  14  173.01    7.66
   2   7 -14  172.83    7.19
  -2  -7  14  158.09   15.00
  -2  -7  13   95.12    5.85
   2   7 -13  101.08    5.80
  -2  -7  13   91.37    5.96
  -2  -7  12   48.38    3.98
   2   7 -12   47.04    4.90
  -2  -7  12   54.17    4.66
  -2  -7  11   78.83    4.50
   2   7 -11   76.37    3.88
  -2  -7  11   76.88    4.62
  -2  -7  10   25.92    2.51
   2   7 -10   20.61    1.96
  -2  -7  10   20.41    2.35
  -2  -7   9    5.18    1.45
   2   7  -9    5.18    1.11
  -2  -7   9    4.60    1.97
  -2  -7   8  336.66    7.71
   2   7  -8  308.97   12.42
  -2  -7   8  321.83   14.77
  -2  -7   7   10.06    1.78
   2   7  -7   15.74    2.30
  -2  -7   7   13.05    2.44
  -2  -7   6  284.42   11.06
   2   7  -6  267.84   10.65
  -2  -7   6  260.71   31.15
  -2  -7   6  286.26   11.52
  -2  -7   5   45.21    4.01
   2   7  -5   46.34    4.40
  -2  -7   5   42.61    3.42
  -2  -7   5   43.94    4.48
  -2  -7   4  248.56   10.70
   2   7  -4  242.33   10.11
  -2  -7   4  229.25    9.64
  -2  -7   4  217.28    9.73
  -2  -7   3  109.02    5.30
   2   7  -3  108.67    4.90
  -2  -7   3  102.99    4.76
  -2  -7   3  103.53    5.47
  -2  -7   2  181.87    7.97
   2   7  -2  172.99    7.38
  -2  -7   2  167.74    7.15
  -2  -7   2  178.35    8.05
  -2  -7   1   90.42    5.48
   2   7  -1   76.35    6.16
   2   7  -1   92.65    5.38
  -2  -7   1   87.65    5.17
  -2  -7   0  586.56   11.53
  -2  -7   0  671.78   13.00
   2   7   0  656.41   12.45
  -2  -7   0  644.42   12.07
  -2  -7  -1  508.11   10.12
   2   7   1  477.33   15.86
  -2  -7  -1  479.53   15.75
  -2  -7  -2   79.73    5.79
   2   7   2   73.56    5.29
  -2  -7  -2   61.45    4.40
  -2  -7  -3  438.19   10.49
  -2  -7  -4 1392.35   31.60
  -2  -7  -4 1376.17   30.91
  -2  -7  -5  833.70   17.42
  -2  -7  -5  819.19   17.06
   2   7   6   27.52    4.24
  -2  -7  -6   24.85    2.58
   2   7   6   22.13    3.18
   2   7   7    3.21    1.43
  -2  -7  -7    1.71    1.24
   2   7   7    1.60    0.66
   2   7   8  188.96    7.90
  -2  -7  -8  176.35    6.65
   2   7   8  176.74    6.90
   2   7   9  268.86   11.74
  -2  -7  -9  266.41   11.57
   2   7  10  167.55    8.56
  -2  -7 -10  179.45    7.22
   2   7  11   56.72    7.23
  -2  -7 -11   50.96    4.69
   2   7  12   51.95    8.70
  -2  -7 -12   62.93    6.78
   2   7  13   36.55    5.36
  -2  -7 -13   39.28    7.75
  -2  -7 -14   30.33    4.79
  -2  -8  15    5.36    2.37
  -2  -8  15    7.47    2.35
  -2  -8  14  136.05   11.71
   2   8 -14  118.26    9.95
  -2  -8  14  153.31   13.11
  -2  -8  13   58.74    5.38
   2   8 -13   56.54    4.64
  -2  -8  13   53.60   10.53
  -2  -8  12   47.89    4.40
   2   8 -12   47.45    3.89
  -2  -8  12   58.78    6.06
  -2  -8  11   70.90    5.34
   2   8 -11   65.18    4.51
  -2  -8  11   71.14    5.66
  -2  -8  10   90.61    4.65
   2   8 -10   91.11    4.39
  -2  -8  10   97.61    5.35
  -2  -8   9   62.11    3.98
   2   8  -9   52.75    4.14
  -2  -8   9   65.60    4.48
  -2  -8   8  331.94   10.35
   2   8  -8  334.80   10.33
  -2  -8   8  346.28   11.23
  -2  -8   7   24.85    2.68
   2   8  -7   21.12    3.34
  -2  -8   7   26.45    3.52
  -2  -8   6    4.32    1.80
   2   8  -6    0.57    0.75
  -2  -8   6    5.09    1.08
  -2  -8   5  502.03   11.03
   2   8  -5  486.98    9.94
  -2  -8   5  472.27    9.65
  -2  -8   5  516.56   11.99
  -2  -8   4  502.49   10.89
   2   8  -4  494.21   10.00
  -2  -8   4  483.34    9.78
  -2  -8   4  495.66   11.38
  -2  -8   3  252.75   10.13
   2   8  -3  240.34    9.33
  -2  -8   3  236.88    9.04
  -2  -8   3  258.99   10.71
  -2  -8   2  140.90    7.42
   2   8  -2  134.16    6.63
  -2  -8   2  132.54    6.54
  -2  -8   2  143.85    7.89
  -2  -8   1  172.76    7.29
   2   8  -1  145.85    7.27
  -2  -8   1  144.99    7.23
  -2  -8   0  166.02    8.48
   2   8   0  156.56    7.97
  -2  -8   0  159.79    7.84
  -2  -8  -1  179.73    7.40
  -2  -8  -1  157.28    7.75
  -2  -8  -2  352.88    7.99
  -2  -8  -2  290.51   10.57
  -2  -8  -2  352.70    7.56
  -2  -8  -3 1115.43   22.89
  -2  -8  -3 1077.84   21.86
  -2  -8  -4  251.85   10.43
  -2  -8  -4  253.98   10.35
  -2  -8  -5   64.81    3.66
  -2  -8  -5   65.13    2.42
  -2  -8  -6  156.06    7.86
  -2  -8  -6  169.09    6.15
  -2  -8  -7  127.16    5.75
  -2  -8  -7  131.63    5.83
   2   8   8   95.92    8.40
  -2  -8  -8   85.56    5.87
  -2  -8  -9   66.01    5.76
   2   8  10  193.51    6.89
  -2  -8 -10  186.33    6.39
   2   8  11  223.21    9.74
  -2  -8 -11  259.14   10.52
   2   8  12   43.43    8.08
  -2  -8 -12   57.40   11.01
   2   8  13   24.24    6.42
  -2  -8 -13   33.17    5.10
  -2  -9  14   15.21    3.36
  -2  -9  14   13.35    3.08
  -2  -9  13   33.70    3.79
  -2  -9  13   12.37    2.96
  -2  -9  12    8.65    1.78
  -2  -9  12   14.67    3.47
  -2  -9  11  241.70    7.88
  -2  -9  11  238.01    8.49
  -2  -9  10  262.15    7.48
  -2  -9  10  277.91    8.47
  -2  -9   9   75.10    4.19
  -2  -9   9   70.25    4.61
  -2  -9   8  122.63    5.60
   2   9  -8  117.18    4.83
  -2  -9   8  132.68    6.44
  -2  -9   7  399.80   11.09
   2   9  -7  336.10    8.69
  -2  -9   7  401.58   11.62
  -2  -9   6   40.21    2.31
   2   9  -6   32.53    1.13
  -2  -9   5  228.66   11.28
   2   9  -5  215.55   10.16
  -2  -9   5  256.81   13.07
  -2  -9   4  291.10   12.01
   2   9  -4  257.96   10.09
  -2  -9   4  297.98   12.73
  -2  -9   3  401.06    8.71
   2   9  -3  333.34    6.29
  -2  -9   3  358.20    6.75
  -2  -9   3  401.63    9.59
  -2  -9   2  191.24    9.30
  -2  -9   2  197.37   10.14
  -2  -9   1   99.04    5.67
  -2  -9   1   95.96    4.84
  -2  -9   1   99.79    5.05
  -2  -9   0  178.51    8.81
  -2  -9   0  158.86    7.36
  -2  -9  -1  325.77   39.82
  -2  -9  -2   93.23    5.29
  -2  -9  -3   84.23    3.72
  -2  -9  -3   79.96    3.19
  -2  -9  -4   28.47    2.16
  -2  -9  -4   34.34    2.40
  -2  -9  -5  452.72   13.46
  -2  -9  -5  462.23   13.42
  -2  -9  -6  287.76   12.27
  -2  -9  -6  271.82   11.45
  -2  -9  -7   35.51    4.50
  -2  -9  -7   40.68    2.31
  -2  -9  -8   13.25    1.91
  -2  -9  -8    5.60    1.09
  -2  -9  -9   55.82    4.62
  -2  -9  -9   59.81    6.15
  -2  -9 -10   89.35    7.72
  -2  -9 -10  100.40    4.73
   2   9  11   93.92   19.65
  -2  -9 -11  125.74   10.76
   2   9  12   45.08    8.96
  -2  -9 -12   41.25    6.64
  -2 -10  13  114.34    8.44
  -2 -10  13  119.29    9.03
  -2 -10  12   40.89    4.86
  -2 -10  12   40.51    5.04
  -2 -10  11  150.34    6.91
  -2 -10  11  150.25    7.37
  -2 -10  10  102.86    6.19
  -2 -10  10  102.63    6.60
  -2 -10   9  159.58    5.50
  -2 -10   9  150.70   18.34
  -2 -10   8  267.45   10.02
  -2 -10   8  282.49   11.24
  -2 -10   7  259.58   11.19
  -2 -10   7  264.40   11.93
  -2 -10   6    8.02    1.72
  -2 -10   6   16.32    2.94
  -2 -10   5    1.69    1.39
  -2 -10   5    5.83    2.76
  -2 -10   4  152.31    7.33
  -2 -10   4  147.38    7.58
  -2 -10   3  230.80    8.34
  -2 -10   3  239.88    9.41
  -2 -10   2  138.25    6.72
  -2 -10   2  127.47    6.91
  -2 -10   1  289.47   45.12
  -2 -10   0  245.62    8.73
  -2 -10  -1   75.82    3.94
  -2 -10  -2    6.79    2.08
  -2 -10  -2    5.75    1.15
  -2 -10  -3   89.28    4.68
  -2 -10  -3   85.54    4.44
  -2 -10  -4   90.76    4.68
  -2 -10  -4   75.21    6.08
  -2 -10  -5   92.86    6.16
  -2 -10  -5   86.35    5.47
  -2 -10  -6  403.87   10.84
  -2 -10  -6  384.39    9.77
  -2 -10  -7   62.81    4.63
  -2 -10  -7   63.74    4.64
  -2 -10  -8   32.60    3.54
  -2 -10  -8   37.57    3.95
  -2 -10  -9   17.60    3.02
  -2 -10  -9   19.05    3.16
  -2 -10 -10   45.71    4.38
  -2 -10 -10   39.39    5.66
  -2 -11  12  122.29    8.87
  -2 -11  12  140.61   10.49
  -2 -11  11   46.93    4.54
  -2 -11  11   52.88    7.00
  -2 -11  10   46.61    5.27
  -2 -11  10   53.78    6.17
  -2 -11   9   77.00    6.33
  -2 -11   8  221.66    7.53
  -2 -11   8  237.30    8.31
  -2 -11   7  113.57    6.41
  -2 -11   7  114.45    7.48
  -2 -11   6   29.44    3.33
  -2 -11   6   26.35    3.24
  -2 -11   5    6.39    1.24
  -2 -11   5    9.64    2.24
  -2 -11   4   67.80    4.84
  -2 -11   4   86.52    6.51
  -2 -11   3   79.68    4.42
  -2 -11   3   82.87    5.03
  -2 -11   2  176.07    7.33
  -2 -11   2  181.49    8.12
  -2 -11   1  134.57    8.08
  -2 -11   1  134.60    8.56
  -2 -11   0  118.60    7.41
  -2 -11  -1    9.73    1.63
  -2 -11  -2   43.54    2.47
  -2 -11  -3   55.41    4.65
  -2 -11  -4   34.92    3.51
  -2 -11  -5    4.93    1.24
  -2 -11  -6  350.41   65.41
  -2 -11  -7   83.19    6.96
  -2 -11  -8    4.33    1.66
  -2 -11  -9   26.35    3.97
  -2 -12  10   34.09    5.11
  -2 -12  10   36.20    6.25
  -2 -12   9   14.78    3.01
  -2 -12   9   22.42    4.61
  -2 -12   8   24.98    4.23
  -2 -12   8   28.51    4.98
  -2 -12   7   94.47    4.84
  -2 -12   6   29.15    3.53
  -2 -12   6   32.94    4.72
  -2 -12   5   24.57    3.24
  -2 -12   5   30.11    4.20
  -2 -12   4   46.08    4.30
  -2 -12   4   41.73    5.45
  -2 -12   3   63.73    4.74
  -2 -12   3   79.08    6.26
  -2 -12   2   88.58    5.39
  -2 -12   2  104.96    6.59
  -2 -12   1    0.47    1.31
  -2 -12   1    3.11    2.43
  -2 -12   0    4.53    1.38
  -2 -12   0    6.51    2.46
  -2 -12  -1    3.27    1.70
  -2 -12  -2    3.32    1.16
  -2 -12  -3   46.82    4.24
  -2 -12  -4   75.69    6.35
  -2 -12  -5    4.93    1.41
  -2 -12  -6    5.85    1.89
  -2 -12  -7   41.72    4.09
  -2 -13   8   21.04    4.14
  -2 -13   6  113.04   11.26
  -2 -13   5   71.96    7.46
  -2 -13   4   97.10    8.76
  -2 -13   3   74.81    6.96
  -2 -13   2   75.12    7.07
  -2 -13   0    1.97    2.44
  -2 -13  -1    3.83    1.90
  -2 -14   4   74.30    6.50
  -2 -14   3  101.06    7.81
  -2 -14   2   53.14    7.90
  -2 -14   1   48.57    7.33
  -2 -14   0   33.31    5.54
  -2 -14  -1   33.91    5.64
   3 -14  -3   27.15    4.51
  -3  14   3   21.62    5.05
   3 -14  -2    6.20    2.72
  -3  14   2    2.79    1.69
   3 -14  -1   27.70    4.62
  -3  14   1   25.42    5.77
   3 -14   0   25.32    4.55
  -3  14   0   23.24    5.34
   3 -14   1   13.59    3.08
  -3  14  -1   16.66    4.09
   3 -14   3   30.30    5.07
   3 -13  -6    6.43    2.37
  -3  13   6    4.29    1.75
   3 -13  -5    6.24    1.97
  -3  13   5    7.34    2.45
   3 -13  -4   31.39    5.59
  -3  13   4   28.23    5.52
   3 -13  -3  115.00   10.11
  -3  13   3  118.27   13.93
   3 -13  -2   23.85    5.38
  -3  13   2   20.64    4.56
   3 -13  -1   41.42    4.78
  -3  13   1   36.44    6.09
   3 -13   0   67.60    6.76
  -3  13   0   56.88    8.92
   3 -13   1   31.68    4.36
  -3  13  -1   26.42    4.69
   3 -13   2   31.45    4.30
  -3  13  -2   36.00    6.33
   3 -13   3    9.62    2.79
  -3  13  -3   16.93    2.77
   3 -13   4   19.49    3.57
   3 -13   5   13.91    3.34
   3 -13   6    7.27    3.01
   3 -13   7   23.12    4.64
   3 -12  -9   51.40    7.58
  -3  12   9   41.78    9.46
   3 -12  -8    5.47    1.92
  -3  12   8    9.56    3.18
   3 -12  -7   13.54    2.70
  -3  12   7   14.89    3.58
   3 -12  -6   27.79    3.92
  -3  12   6   26.98    5.19
   3 -12  -5    8.08    2.66
  -3  12   5    8.25    2.04
   3 -12  -4   23.32    3.68
  -3  12   4   23.65    5.13
   3 -12  -3   50.41    4.91
  -3  12   3   47.03    5.87
   3 -12  -2   93.62    6.46
  -3  12   2   89.66   12.00
   3 -12  -1   87.07    5.80
   3 -12   0  100.47    6.45
  -3  12   0  112.44    9.65
   3 -12   1  106.74    6.67
  -3  12  -1   62.40    5.81
   3 -12   2   53.26    5.04
  -3  12  -2   48.45    6.53
   3 -12   3   26.42    3.97
  -3  12  -3   19.92    4.02
   3 -12   4   38.36    4.93
   3 -12   5   52.79    5.08
   3 -12   6   38.63    4.79
   3 -12   7   49.90    6.01
   3 -12   8   61.43    7.50
   3 -12   9   13.59    3.05
   3 -12   9   11.61    2.81
   3 -11 -10   24.27    4.49
  -3  11  10   15.88    3.92
   3 -11  -9   85.60    8.04
  -3  11   9   61.24   10.99
   3 -11  -8   48.48   10.09
  -3  11   8   47.24    6.64
   3 -11  -7   28.61    4.02
  -3  11   7   21.97    4.06
   3 -11  -6    4.36    1.79
  -3  11   6    4.32    2.00
   3 -11  -5   28.95    3.80
  -3  11   5   19.82    3.05
   3 -11  -4   27.54    2.51
  -3  11   4   36.89    4.60
   3 -11  -3   94.41    6.80
  -3  11   3  100.15    9.86
   3 -11  -2   42.61    4.31
  -3  11   2   37.32    4.37
   3 -11  -1   95.95    5.74
  -3  11   1   97.34   10.09
   3 -11   0  123.94    8.24
  -3  11   0  124.15    9.71
   3 -11   1   72.36    4.33
  -3  11  -1   75.94    6.26
   3 -11   2   11.55    2.56
  -3  11  -2   15.05    2.80
   3 -11   3  134.26    7.05
  -3  11  -3  120.15    8.19
   3 -11   4   50.62    4.37
  -3  11  -4   53.51    8.03
   3 -11   5   51.38    4.68
   3 -11   6   95.90    6.27
   3 -11   7  219.56    7.90
   3 -11   8  323.59   60.57
   3 -11   9    5.35    2.98
   3 -11   9    8.59    2.76
   3 -11  10    5.20    2.24
   3 -11  10   10.52    3.57
   3 -11  11   10.33    2.61
   3 -10 -12   35.46    6.82
   3 -10 -12   42.85    5.98
  -3  10  12   22.33    6.44
   3 -10 -11   60.23    7.26
   3 -10 -11   62.37    7.33
  -3  10  11   49.74    6.97
   3 -10 -10   92.30   18.43
  -3  10  10   67.07   10.53
   3 -10  -9  119.29   22.55
   3 -10  -9  109.37    7.47
  -3  10   9  106.41   12.11
   3 -10  -8   11.88    2.32
   3 -10  -8   15.47    2.24
  -3  10   8   15.45    3.78
   3 -10  -7   11.01    2.25
   3 -10  -7   16.05    1.92
  -3  10   7   17.08    3.17
   3 -10  -6   -1.57    1.78
   3 -10  -6    3.82    0.80
  -3  10   6    7.10    2.12
   3 -10  -5  204.47    8.72
   3 -10  -5  202.09    7.85
  -3  10   5  200.07   10.83
   3 -10  -4   14.57    2.98
   3 -10  -4    9.28    1.76
  -3  10   4   12.13    3.01
   3 -10  -3   91.15    5.33
  -3  10   3   91.33    9.67
   3 -10  -2   76.15    4.36
  -3  10   2   84.57    8.25
   3 -10  -1   74.70    4.23
  -3  10   1   94.28    8.81
   3 -10   0   93.79    5.59
  -3  10   0  112.83    9.34
   3 -10   1  165.99    8.21
  -3  10  -1  174.54    9.22
   3 -10   2   51.85    4.32
  -3  10  -2   50.13    6.29
   3 -10   3    4.01    3.11
  -3  10  -3    0.36    0.95
   3 -10   4   68.27    4.26
  -3  10  -4   58.64    6.16
   3 -10   5  132.52    8.84
  -3  10  -5  136.89    8.65
   3 -10   6  323.90   14.32
   3 -10   7  370.44   14.03
   3 -10   8    6.30    2.20
   3 -10   9    3.84    2.05
   3 -10   9    2.43    1.55
   3 -10  10    3.90    1.95
   3 -10  10    9.96    2.61
   3 -10  11  148.79   12.95
   3 -10  11  131.64   11.50
   3 -10  12   56.71    8.03
   3 -10  12   56.38    7.82
   3  -9 -13   44.82    8.82
   3  -9 -13   46.77    6.99
  -3   9  13   29.33    7.40
   3  -9 -12   79.63    9.24
   3  -9 -12   78.26    7.17
   3  -9 -11   79.92    6.91
   3  -9 -11   67.04    5.63
  -3   9  11   53.73    7.31
   3  -9 -10   28.01    3.91
   3  -9 -10   26.83    3.28
  -3   9  10   26.17    4.87
   3  -9  -9   65.40    4.17
   3  -9  -9   62.52    3.62
  -3   9   9   57.23    7.11
   3  -9  -8   48.60    4.78
   3  -9  -8   44.57    2.34
  -3   9   8   43.29    5.82
   3  -9  -7  154.62   10.07
   3  -9  -7  137.89    6.04
  -3   9   7  140.53    6.49
   3  -9  -6   51.59    3.82
   3  -9  -6   61.04    3.07
  -3   9   6   66.64    8.03
   3  -9  -5   63.11    3.76
   3  -9  -5   60.68    2.95
  -3   9   5   64.59    8.14
   3  -9  -4  198.66   23.59
   3  -9  -4  196.45    7.41
  -3   9   4  193.20   12.40
   3  -9  -3    5.37    2.08
  -3   9   3   -0.17    1.33
   3  -9  -2  363.46    8.80
   3  -9  -2  345.57    6.87
   3  -9  -1  275.93   11.89
   3  -9  -1  221.92    8.70
   3  -9  -1  250.24    9.81
  -3   9   1  262.44   13.86
   3  -9   0   69.30    8.92
  -3   9   0   84.69    9.32
   3  -9   1   30.68    3.25
  -3   9  -1   37.81    5.43
   3  -9   2   19.25    3.45
  -3   9  -2   30.98    4.90
   3  -9   3   16.26    3.31
  -3   9  -3   18.93    3.59
   3  -9   4  201.22   23.98
  -3   9  -4  189.66    7.74
   3  -9   5  503.18   14.45
  -3   9  -5  481.92   14.48
   3  -9   6  309.65    9.46
   3  -9   7   22.10    3.53
   3  -9   8    1.75    2.13
   3  -9   9   16.58    3.22
   3  -9   9    8.92    1.81
   3  -9  10  101.30    6.52
   3  -9  10   96.36    5.87
   3  -9  11   82.23    7.37
   3  -9  11   73.74    6.34
   3  -9  12   62.58    6.55
   3  -9  12   41.42    5.05
   3  -9  13   42.76    6.38
  -3   8  14   29.42    6.21
   3  -8 -14   35.49    5.49
   3  -8 -13   90.32    8.45
  -3   8  13   93.49   18.86
   3  -8 -12  137.63   11.89
   3  -8 -12  126.16    6.70
  -3   8  12  108.40   13.06
   3  -8 -11    0.85    1.62
   3  -8 -11    2.36    1.38
  -3   8  11   -0.23    1.05
   3  -8 -10   17.82    3.12
   3  -8 -10   17.47    2.51
  -3   8  10   13.74    2.55
   3  -8  -9  139.13   14.43
   3  -8  -9  126.27    9.84
  -3   8   9  136.39   11.40
   3  -8  -8  340.42   10.94
   3  -8  -8  326.80   10.53
  -3   8   8  326.69   11.02
   3  -8  -7  150.42    7.32
   3  -8  -7  171.56    6.21
  -3   8   7  163.67   12.14
   3  -8  -6  121.41    5.45
   3  -8  -6  132.97    5.27
  -3   8   6  136.01   10.60
   3  -8  -5    0.62    1.83
   3  -8  -5    1.23    1.07
  -3   8   5    1.49    1.51
   3  -8  -4  499.27   11.62
   3  -8  -4  504.41   10.60
  -3   8   4  524.53   12.08
   3  -8  -3   22.56    3.73
   3  -8  -3   17.38    2.66
  -3   8   3   16.40    2.14
  -3   8   3   17.69    2.97
   3  -8  -2  166.18    9.05
   3  -8  -2  154.81    7.66
  -3   8   2  146.80    7.23
   3  -8  -1  144.59    8.03
   3  -8  -1  132.89    6.53
  -3   8   1  128.82    6.33
  -3   8   1  147.56    9.32
   3  -8   0   70.65    4.85
   3  -8   0   59.14    4.60
  -3   8   0   59.91    4.78
  -3   8   0   73.03    6.68
   3  -8   1   12.08    2.02
   3  -8   1   10.72    1.44
  -3   8  -1   18.28    3.00
   3  -8   2   40.82    3.91
  -3   8  -2   39.81    3.29
  -3   8  -2   45.22    5.06
   3  -8   3   77.65    6.68
  -3   8  -3   66.01    5.06
  -3   8  -3   65.97    4.82
  -3   8  -3   68.03    6.42
   3  -8   4  179.31   10.52
  -3   8  -4  163.88    8.76
  -3   8  -4  178.08    9.51
  -3   8  -4  179.46   10.11
   3  -8   5  186.10    9.86
  -3   8  -5  157.49    7.33
  -3   8  -5  180.24    8.39
  -3   8  -5  191.96    9.62
   3  -8   6   93.89    5.02
  -3   8  -6   87.67    3.38
   3  -8   7   24.15    2.52
  -3   8  -7   28.15    1.99
   3  -8   8   56.70    3.66
  -3   8  -8   62.90    3.22
   3  -8   9    4.44    2.93
   3  -8   9    2.35    1.88
   3  -8  10   74.91    5.95
  -3   8 -10   68.54    4.71
   3  -8  10   73.26    5.51
   3  -8  11   99.24    6.60
  -3   8 -11   79.46    5.60
   3  -8  11  104.15    6.28
   3  -8  12   51.38    6.08
  -3   8 -12   45.20    4.72
   3  -8  12   41.09    4.39
   3  -8  13   34.50    4.15
  -3   8 -13   33.13    3.42
   3  -8  14   20.22    4.06
  -3   7  15   44.99    8.90
   3  -7 -15   45.54    6.36
  -3   7  14   49.15    7.88
   3  -7 -14   50.12    5.67
  -3   7  14   30.84    5.68
  -3   7  13   70.00   11.26
   3  -7 -13   70.90    7.30
  -3   7  13   65.46   10.07
  -3   7  12  144.10   15.34
   3  -7 -12  130.75    7.11
  -3   7  12  130.78   10.80
  -3   7  11    2.25    1.28
   3  -7 -11    4.18    0.92
  -3   7  11    6.97    1.33
  -3   7  10  151.46   14.62
   3  -7 -10  137.82    8.37
  -3   7  10  131.09    7.77
   3  -7  -9  174.02    7.01
   3  -7  -9  172.95    6.66
  -3   7   9  177.46    6.75
   3  -7  -8  157.61    6.90
   3  -7  -8  155.84    6.32
  -3   7   8  152.59    6.19
   3  -7  -7  202.13   25.16
   3  -7  -7  184.72    8.96
  -3   7   7  186.57    9.26
   3  -7  -6  355.24    8.57
   3  -7  -6  361.24    8.53
  -3   7   6  352.61    9.01
   3  -7  -5   71.33    4.35
   3  -7  -5   73.16    4.00
  -3   7   5   74.99    6.94
   3  -7  -4   59.75    5.19
   3  -7  -4   56.39    4.62
  -3   7   4   56.15    7.62
   3  -7  -3  255.80   11.24
   3  -7  -3  264.51   11.20
  -3   7   3  245.53   10.35
  -3   7   3  271.66   11.83
   3  -7  -2   57.52    4.66
   3  -7  -2   49.97    3.65
  -3   7   2   44.52    3.26
  -3   7   2   57.20    7.23
   3  -7  -1  230.05   10.14
   3  -7  -1  219.25    9.17
  -3   7   1  214.35    8.99
  -3   7   1  204.48    9.06
   3  -7   0   60.58    4.80
   3  -7   0   59.12    4.16
  -3   7   0   57.57    4.59
  -3   7   0   65.00    7.85
   3  -7   1  375.68   13.18
   3  -7   1  347.50   11.48
  -3   7  -1  341.52   11.22
  -3   7  -1  372.54   13.14
   3  -7   2  543.33   11.46
   3  -7   2  508.11    9.70
  -3   7  -2  496.67   38.02
  -3   7  -2  548.50   12.05
   3  -7   3  171.60    7.93
   3  -7   3  155.85    7.14
  -3   7  -3  164.63   12.68
  -3   7  -3  166.08    9.41
   3  -7   4   63.55    5.59
  -3   7  -4   58.71    4.64
  -3   7  -4   68.08    8.68
   3  -7   5  290.44   11.88
  -3   7  -5  251.25    9.72
  -3   7  -5  271.10   10.25
  -3   7  -5  272.09   10.85
   3  -7   6  125.57    7.72
  -3   7  -6  118.60    6.58
  -3   7  -6  135.77    7.67
   3  -7   7  169.99    8.99
  -3   7  -7  152.27    7.33
   3  -7   8   10.67    3.15
  -3   7  -8    8.32    1.43
   3  -7   9  321.56   10.10
  -3   7  -9  310.14    8.60
   3  -7   9  302.87    8.95
   3  -7  10  178.65    8.12
  -3   7 -10  182.72    7.45
   3  -7  10  176.64    7.66
   3  -7  11  132.77    5.38
  -3   7 -11  131.10    4.01
   3  -7  11  123.09    3.93
   3  -7  12   62.88    5.27
  -3   7 -12   58.40    4.71
   3  -7  12   42.91    6.48
   3  -7  13   49.52    5.93
  -3   7 -13   40.30    4.27
   3  -7  14    7.93    2.40
  -3   7 -14    9.98    2.34
   3  -6 -15    6.10    2.02
   3  -6 -14    6.92    2.54
  -3   6  14    2.83    1.08
   3  -6 -13   28.18    4.81
  -3   6  13   31.31    3.54
   3  -6 -12  154.35   11.82
  -3   6  12  150.37    6.45
   3  -6 -11   85.40    4.56
  -3   6  11   95.19    4.65
  -3   6  10   10.81    2.02
   3  -6 -10    9.42    2.29
  -3   6  10    4.95    1.65
   3  -6  -9  238.24   12.76
  -3   6   9  254.05   12.45
  -3   6   8  139.77   11.66
   3  -6  -8  139.41    7.19
  -3   6   8  132.50   16.37
   3  -6  -7   85.66    5.11
   3  -6  -7   88.24    4.92
  -3   6   7   82.63    4.76
   3  -6  -6  192.97    8.16
   3  -6  -6  185.55    7.78
  -3   6   6  198.32    8.21
   3  -6  -5  107.77    5.96
   3  -6  -5  106.00    5.09
  -3   6   5  108.32    9.13
   3  -6  -4    4.30    1.21
   3  -6  -4    2.48    0.62
  -3   6   4    6.65    1.18
  -3   6   4    2.66    0.91
   3  -6  -3  399.82   12.17
   3  -6  -3  378.23   11.29
  -3   6   3  384.98   11.18
   3  -6  -2  430.74   12.88
   3  -6  -2  413.55   11.92
  -3   6   2  399.01   11.51
  -3   6   2  433.44   13.09
   3  -6  -1  378.04   11.74
   3  -6  -1  389.61   11.52
  -3   6   1  380.56   11.21
  -3   6   1  407.96   13.28
   3  -6   0  115.34    6.37
   3  -6   0  110.35    5.55
  -3   6   0  103.84    5.21
  -3   6   0  113.44    7.60
   3  -6   1  309.97   17.85
   3  -6   1  291.32   11.29
  -3   6  -1  280.88   10.56
  -3   6  -1  308.23   17.65
   3  -6   2  268.25    8.47
   3  -6   2  250.78    7.92
  -3   6  -2  263.70    7.63
  -3   6  -2  265.47    8.20
   3  -6   3  188.26    7.85
   3  -6   3  175.61    6.88
  -3   6  -3  174.60    6.67
  -3   6  -3  185.80    7.49
   3  -6   4  195.78    8.97
   3  -6   4  199.28    8.58
  -3   6  -4  195.43    8.25
  -3   6  -4  201.66    9.01
   3  -6   5   92.07    5.04
   3  -6   5   80.10    6.21
  -3   6  -5   74.94    5.32
  -3   6  -5   83.43    6.76
   3  -6   6    7.44    1.98
  -3   6  -6    9.08    1.19
  -3   6  -6   13.65    2.20
   3  -6   7  362.14    9.03
  -3   6  -7  354.14    7.88
   3  -6   8   36.03    4.17
  -3   6  -8   36.06    3.34
   3  -6   9  171.98    7.66
  -3   6  -9  166.62    6.45
   3  -6   9  155.25    6.36
   3  -6  10  284.40    9.83
  -3   6 -10  266.81    8.29
   3  -6  10  274.30    8.51
   3  -6  11  144.24    8.88
  -3   6 -11  152.42    6.57
   3  -6  11  147.27    8.73
   3  -6  12  185.85    6.33
  -3   6 -12  181.09    5.47
   3  -6  12  180.49    5.28
  -3   6 -13   81.79    5.96
   3  -6  14   40.65    5.48
  -3   6 -14   26.80    4.26
   3  -6  15   33.25    5.61
  -3   6 -15   18.11    4.79
  -3   5  16   90.52   12.18
   3  -5 -16  119.77    8.85
  -3   5  15   17.55    3.13
   3  -5 -15   21.42    3.79
  -3   5  14    7.06    1.73
   3  -5 -14    5.59    2.33
  -3   5  14    3.60    1.56
  -3   5  13    6.41    1.94
   3  -5 -13    9.80    2.40
  -3   5  13    6.98    1.15
  -3   5  12   81.98    6.29
   3  -5 -12   83.79    4.62
  -3   5  12   81.34    4.14
  -3   5  11  154.67   12.75
   3  -5 -11  140.21    7.16
  -3   5  11  136.88    6.60
  -3   5  10  149.31   10.10
   3  -5 -10  122.37    5.18
  -3   5  10  124.25    5.06
  -3   5   9  275.34   12.82
   3  -5  -9  286.61   11.16
  -3   5   9  257.80    9.94
  -3   5   8  453.13   11.41
   3  -5  -8  440.21   11.90
  -3   5   8  427.96   10.57
  -3   5   7  214.58   10.03
   3  -5  -7  216.54    9.52
  -3   5   7  226.49    9.90
   3  -5  -6   73.68    6.73
   3  -5  -6   71.76    4.57
  -3   5   6   75.02    5.58
   3  -5  -5    4.94    1.07
   3  -5  -5    4.96    0.82
  -3   5   5    8.77    1.32
   3  -5  -4  297.64   11.70
   3  -5  -4  285.31   11.39
  -3   5   4  258.23    9.89
  -3   5   4  277.22   10.84
   3  -5  -3 1367.47   16.60
   3  -5  -3 1319.36   15.27
  -3   5   3 1251.88   14.68
   3  -5  -2 2012.02   23.44
   3  -5  -2 1958.31   22.53
  -3   5   2 1977.70   22.27
  -3   5   2 2064.02   24.19
   3  -5  -1  483.24   12.42
   3  -5  -1  487.81   12.05
  -3   5   1  480.71   11.86
  -3   5   1  526.85   13.47
   3  -5   0   10.28    1.63
   3  -5   0   11.16    0.84
  -3   5   0   12.93    0.86
  -3   5   0   11.70    1.60
   3  -5   1  155.63    6.52
   3  -5   1  160.74    6.19
  -3   5  -1  153.50    5.89
  -3   5  -1  143.96    7.77
   3  -5   2  323.55   10.17
   3  -5   2  323.27    9.60
  -3   5  -2  319.29    9.45
  -3   5  -2  305.31   12.15
   3  -5   3   23.35    2.35
   3  -5   3   31.01    2.63
  -3   5  -3   21.91    1.34
  -3   5  -3   26.64    3.00
   3  -5   4  246.21    8.10
   3  -5   4  279.12    8.37
  -3   5  -4  269.56    7.91
  -3   5  -4  255.64    7.86
   3  -5   5  205.59    8.63
   3  -5   5  227.32   15.81
  -3   5  -5  214.98    8.62
   3  -5   6  315.26   11.14
  -3   5  -6  346.45   12.01
   3  -5   7  297.72   11.81
  -3   5  -7  358.67   13.68
   3  -5   8  149.14    8.80
  -3   5  -8  156.40    8.74
   3  -5   8  154.69    8.64
   3  -5   9  114.66    6.63
  -3   5  -9  114.39    6.22
   3  -5   9  128.32   15.86
   3  -5  10  248.35    9.34
  -3   5 -10  273.95    9.69
   3  -5  10  273.90    9.39
   3  -5  11  209.66    8.35
  -3   5 -11  239.23    8.73
   3  -5  11  218.86    7.92
   3  -5  12  244.00    9.76
  -3   5 -12  251.38    9.55
   3  -5  13   81.20    6.27
  -3   5 -13   84.56    5.27
   3  -5  14   14.92    3.25
  -3   5 -14   12.24    2.75
   3  -5  15   30.88    4.52
  -3   5 -15   25.64    4.66
  -3   4  16  101.29   15.29
   3  -4 -16   80.55    9.62
  -3   4  15  102.94    8.00
   3  -4 -15  107.29    5.28
  -3   4  15   94.55    4.38
  -3   4  14   14.59    2.49
   3  -4 -14   14.27    2.77
  -3   4  14   13.53    2.07
  -3   4  13    8.43    1.80
   3  -4 -13    4.66    1.53
  -3   4  13    6.53    1.25
  -3   4  12   77.73    5.54
   3  -4 -12   75.27    7.56
  -3   4  12   71.62    3.79
  -3   4  11   33.83    5.09
   3  -4 -11   34.05    3.85
  -3   4  11   31.19    1.90
  -3   4  10  522.86   12.04
   3  -4 -10  467.62   11.40
  -3   4  10  513.75   10.91
  -3   4   9  653.76   16.73
   3  -4  -9  617.77   14.90
  -3   4   9  638.62   15.17
  -3   4   8  563.06   12.23
   3  -4  -8  545.40   12.47
  -3   4   8  532.34   10.93
  -3   4   7  336.43   10.43
   3  -4  -7  316.24    9.76
  -3   4   7  311.46    9.52
  -3   4   6  139.91    6.62
   3  -4  -6  139.49    5.89
  -3   4   6  134.51    5.68
   3  -4  -5  453.10   13.59
  -3   4   5  467.00   14.12
   3  -4  -4  126.06    5.18
  -3   4   4  124.34    5.10
   3  -4  -3 2394.92   28.30
  -3   4   3 2395.40   28.25
   3  -4  -2 6425.81  312.59
  -3   4   2 6190.83  301.15
   3  -4  -1 3737.76  181.90
  -3   4   1 3606.91  175.51
  -3   4   1 3810.79  185.58
   3  -4   0  697.87   17.08
  -3   4   0  681.13   16.67
  -3   4   0  706.39   18.30
   3  -4   1  230.69    8.94
  -3   4  -1  220.52    8.53
  -3   4  -1  227.29    9.51
   3  -4   2 1621.39   19.72
  -3   4  -2 1564.68   18.57
  -3   4  -2 1644.09   20.22
   3  -4   3   36.24    2.43
   3  -4   3   41.30    3.27
  -3   4  -3   33.66    1.66
  -3   4  -3   41.49    2.54
   3  -4   3   33.72    1.76
   3  -4   4 1290.03   15.77
   3  -4   4 1302.90   15.24
  -3   4  -4 1180.45   13.70
  -3   4  -4 1288.37   15.60
   3  -4   4 1185.58   13.89
   3  -4   5 2370.92   27.61
   3  -4   5 2377.48   27.49
  -3   4  -5 2347.30   26.70
   3  -4   6  435.61   13.24
   3  -4   6  394.05   11.62
   3  -4   7   75.24    5.87
   3  -4   8  196.28    8.43
  -3   4  -8  194.48    7.96
   3  -4   8  184.93    7.57
   3  -4   9    4.18    1.67
  -3   4  -9    1.87    1.48
   3  -4   9    6.50    1.57
   3  -4  10   13.73    2.38
  -3   4 -10   10.57    2.20
   3  -4  10   15.28    2.53
   3  -4  11   47.60    3.91
  -3   4 -11   42.05    3.25
   3  -4  11   41.43    2.80
   3  -4  12  109.74    7.20
  -3   4 -12   96.75    5.04
   3  -4  13   44.84    4.06
  -3   4 -13   61.29    7.76
   3  -4  14   34.73    4.37
  -3   4 -14   28.90    3.40
   3  -4  15   49.74    5.76
  -3   4 -15   38.27    4.13
   3  -4  16   45.78    7.01
  -3   4 -16   53.70    7.67
  -3   3  17   34.93    4.91
   3  -3 -17   42.83    6.13
  -3   3  16  101.38   12.45
   3  -3 -16   97.53    8.87
   3  -3 -15  205.90    9.14
  -3   3  15  206.09    8.55
  -3   3  14   76.28    8.06
   3  -3 -14   73.39    8.24
  -3   3  14   71.83    3.93
  -3   3  13   61.35    8.71
   3  -3 -13   60.56    6.09
  -3   3  13   65.68    3.65
  -3   3  12    7.58    2.56
   3  -3 -12    3.40    1.90
  -3   3  12    1.71    1.04
  -3   3  11  308.18   21.77
   3  -3 -11  296.03   12.53
  -3   3  11  289.95   11.96
  -3   3  10  229.26   17.07
   3  -3 -10  204.31    8.71
  -3   3  10  207.27    8.18
  -3   3   9  602.14   14.67
   3  -3  -9  588.31   14.52
  -3   3   9  563.42   14.03
  -3   3   8   36.99    3.95
   3  -3  -8   33.86    4.55
  -3   3   8   24.19    2.34
  -3   3   7   73.05    7.82
   3  -3  -7   70.83    7.33
  -3   3   7   60.27    3.99
  -3   3   6  211.75    8.53
   3  -3  -6  202.44    8.06
  -3   3   6  199.90    7.99
  -3   3   5  557.48   14.13
   3  -3  -5  594.27   14.92
  -3   3   5  593.24   15.01
   3  -3  -4    8.11    0.99
  -3   3   4    8.33    0.98
  -3   3   4   11.74    1.33
   3  -3  -3  662.92   16.38
  -3   3   3  658.63   16.21
  -3   3   3  704.14   17.57
  -3   3   2 2993.54   28.69
   3  -3  -2 3056.42   29.34
  -3   3   2 2941.61   27.80
  -3   3   2 2851.80   27.58
  -3   3   1 2294.99   22.10
   3  -3  -1 2416.96   23.01
  -3   3   1 2250.01   21.38
  -3   3   1 2420.17   23.46
  -3   3   0  421.45    7.63
   3  -3   0  441.77    7.82
  -3   3   0  436.46    7.68
  -3   3   0  444.39    8.11
  -3   3  -1   32.30    1.51
   3  -3   1   33.99    1.50
  -3   3  -1   31.14    1.19
   3  -3   1   36.98    1.49
   3  -3   2  802.65   19.66
  -3   3  -2  774.10   18.93
  -3   3  -2  801.33   19.68
   3  -3   2  784.50   19.27
   3  -3   3  779.03   19.54
  -3   3  -3  753.52   18.48
  -3   3  -3  778.46   19.23
   3  -3   3  741.57   18.21
   3  -3   4 1330.79   16.34
  -3   3  -4 1327.54   16.26
   3  -3   4 1275.63   15.41
   3  -3   5  577.45   17.12
  -3   3  -5  553.07   16.49
   3  -3   5  565.13   16.57
   3  -3   6   64.69    5.43
   3  -3   6   56.98    3.43
   3  -3   7  408.68   13.80
   3  -3   7  378.70   12.51
   3  -3   7  404.05   13.42
  -3   3  -8  412.71   10.14
   3  -3   8  351.91   13.17
   3  -3   8  383.04   14.34
  -3   3  -9  158.49    8.90
   3  -3   9  140.26    7.61
   3  -3   9  147.92    8.20
  -3   3 -10   11.27    2.16
   3  -3  10    8.07    1.42
  -3   3 -11   23.33    2.04
   3  -3  11   21.18    2.32
  -3   3 -12   88.05    4.84
  -3   3 -13   95.46    7.94
   3  -3  14   29.19    3.61
  -3   3 -14   28.79    3.28
   3  -3  15   82.55    8.02
  -3   3 -15   79.57    7.59
   3  -3  16   30.70    5.20
  -3   3 -16   30.19    4.99
  -3   2  17   41.27    4.72
   3  -2 -17   36.07    4.81
  -3   2  16   70.84   10.77
   3  -2 -16   70.50    6.23
  -3   2  15  186.23   17.90
   3  -2 -15  194.58    7.02
  -3   2  15  179.51    6.04
  -3   2  14   94.09    9.49
   3  -2 -14   74.19    9.07
  -3   2  14   69.27    4.85
  -3   2  13  226.17   15.08
   3  -2 -13  232.54   14.34
  -3   2  13  234.33    8.36
  -3   2  12   53.62    4.50
   3  -2 -12   56.04    3.45
  -3   2  12   43.27    3.66
  -3   2  11  649.47   14.25
   3  -2 -11  622.02   13.36
  -3   2  11  651.59   14.45
  -3   2  10  357.72   14.24
   3  -2 -10  341.82   13.83
  -3   2  10  363.61   14.01
  -3   2   9    8.72    1.39
   3  -2  -9   10.60    2.16
  -3   2   9    7.63    1.15
  -3   2   8   52.09    5.28
   3  -2  -8   65.63    7.65
  -3   2   8   50.97    3.37
  -3   2   7  305.24   12.90
   3  -2  -7  291.59   11.39
  -3   2   7  278.06   10.88
  -3   2   6  373.05    9.79
   3  -2  -6  357.65    9.35
  -3   2   6  396.11   10.30
  -3   2   5  296.51   11.66
   3  -2  -5  305.89   11.98
  -3   2   4 1066.60   13.10
   3  -2  -3    1.01    0.89
  -3   2   3    0.39    0.61
   3  -2  -3    1.51    0.89
  -3   2   2 1590.99   15.43
  -3   2   2 1694.89   16.77
  -3   2   1   33.31    1.34
   3  -2  -1   34.47    1.37
  -3   2   1   32.39    1.26
  -3   2   1   33.58    1.61
   3  -2  -1   29.72    1.38
  -3   2   0   96.14    2.99
  -3   2   0   92.27    2.89
  -3   2   0  101.05    3.14
   3  -2   0   96.00    2.94
  -3   2  -1  207.62    5.77
  -3   2  -1  215.39    5.86
  -3   2  -1  224.52    6.18
   3  -2   1  213.16    5.86
  -3   2  -2  234.16    9.56
  -3   2  -2  248.51    4.68
   3  -2   2  243.78    4.58
  -3   2  -3 1173.45   14.27
  -3   2  -3 1254.94   15.19
   3  -2   3 1227.56   14.70
   3  -2   4  543.97   14.31
  -3   2  -4  568.72   14.00
   3  -2   4  564.16   13.85
   3  -2   5  413.75   12.78
  -3   2  -5  382.98   11.24
   3  -2   5  397.54   11.67
   3  -2   6   59.93    3.72
   3  -2   6   58.23    3.81
   3  -2   6   61.93    3.19
   3  -2   7   74.92    4.83
   3  -2   7   89.25    8.11
   3  -2   7   72.67    4.22
   3  -2   7   75.36    4.44
   3  -2   8  760.39   15.32
   3  -2   8  699.02   13.00
   3  -2   8  729.74   13.65
   3  -2   9  212.96    8.90
  -3   2  -9  214.08    8.82
   3  -2   9  197.04    7.58
   3  -2   9  207.99    8.06
   3  -2  10   62.02    5.76
  -3   2 -10   63.05    5.75
   3  -2  10   56.78    4.89
   3  -2  11  171.44    6.90
  -3   2 -11  164.35    7.76
   3  -2  12  177.97    6.96
  -3   2 -12  189.41    7.16
   3  -2  13  155.54    7.15
  -3   2 -13  164.40    7.28
   3  -2  14    9.68    2.05
  -3   2 -14   18.37    3.22
   3  -2  15   88.78    7.63
  -3   2 -15   77.35    6.86
  -3   2 -16   42.16    4.58
  -3   1  17   44.16    6.10
   3  -1 -17   45.57    4.59
  -3   1  16   39.35    6.48
   3  -1 -16   40.03    5.24
  -3   1  15  100.90   10.82
   3  -1 -15   90.91   11.13
  -3   1  15  102.50    5.89
  -3   1  14   87.58    8.01
   3  -1 -14   86.69    9.64
  -3   1  14   80.82    5.37
  -3   1  13  308.19   13.71
   3  -1 -13  287.72    9.97
  -3   1  13  307.19    9.50
  -3   1  12  416.68   16.66
   3  -1 -12  308.74   10.08
  -3   1  12  380.94   11.61
  -3   1  11    1.27    1.50
   3  -1 -11    1.41    2.17
  -3   1  11    6.43    1.75
  -3   1  10 1184.16   28.89
   3  -1 -10 1184.82   28.55
  -3   1  10 1205.21   27.49
  -3   1   9  181.47    8.44
   3  -1  -9  176.38    7.98
  -3   1   9  182.47    8.10
  -3   1   8  102.96   10.70
   3  -1  -8   97.25    6.01
  -3   1   8   96.14    5.87
  -3   1   7  179.69    7.78
   3  -1  -7  169.13    6.86
  -3   1   7  177.44    7.13
   3  -1  -6  462.89   11.80
  -3   1   6  467.07   11.93
   3  -1  -5  687.20   16.96
   3  -1  -5  773.54   19.13
   3  -1  -4  729.30   12.65
   3  -1  -4  758.60   13.26
   3  -1  -4  734.28   12.87
   3  -1  -3  592.27   10.31
   3  -1  -3  608.37   10.66
   3  -1  -3  585.88   10.37
   3  -1  -2 1294.14   13.34
   3  -1  -2 1337.30   13.05
   3  -1  -2 1287.19   12.77
  -3   1   2 1341.22   13.47
   3  -1  -1  387.00    6.90
  -3   1   1  395.88    6.99
   3  -1  -1  403.55    7.23
  -3   1   1  394.49    7.18
   3  -1  -1  386.13    7.29
   3  -1   0  806.12   32.28
   3  -1   0  824.53    8.50
  -3   1   0  782.31   13.64
  -3   1   0  831.37    8.55
   3  -1   0  795.13   31.86
   3  -1   1  299.70    5.65
  -3   1  -1  281.09    5.18
   3  -1   1  295.54    5.49
  -3   1  -1  288.78    5.29
  -3   1  -1  295.37    5.37
   3  -1   1  289.28    5.32
   3  -1   2  228.78    6.36
  -3   1  -2  202.49    5.61
   3  -1   2  225.22    6.27
  -3   1  -2  221.84    5.97
   3  -1   2  205.58    5.53
   3  -1   3  736.58   12.90
  -3   1  -3  733.06   12.77
   3  -1   3  760.95   13.31
  -3   1  -3  745.57   12.83
   3  -1   3  729.34   12.37
   3  -1   4 1465.48   18.00
   3  -1   4 1432.32   18.43
  -3   1  -4 1451.76   17.02
   3  -1   4 1432.84   16.80
   3  -1   5  409.43   10.60
   3  -1   5  404.36   10.74
   3  -1   5  394.75    9.65
   3  -1   6   21.62    1.84
   3  -1   6   31.48    4.12
   3  -1   6   21.05    1.15
   3  -1   6   18.88    1.09
   3  -1   7   14.93    1.50
   3  -1   7   17.69    2.30
   3  -1   7   15.64    1.35
   3  -1   7   13.85    1.44
   3  -1   8  214.50    9.61
   3  -1   8  209.12    8.61
   3  -1   8  208.99    8.61
   3  -1   9  377.90   14.81
  -3   1  -9  377.68   14.66
   3  -1  10  233.69   10.02
  -3   1 -10  232.45    9.87
   3  -1  11  202.12   23.96
  -3   1 -11  209.20   10.61
   3  -1  12  207.82    8.14
  -3   1 -12  196.06    7.72
   3  -1  13  140.42    6.93
  -3   1 -13  134.42    6.51
   3  -1  14   52.79    4.84
  -3   1 -14   53.85    4.70
   3  -1  15   22.07    4.12
  -3   1 -15   20.18    3.89
   3  -1  16   26.90    5.56
  -3   1 -16   32.67    4.41
  -3   0  17   11.87    3.00
   3   0 -17   15.51    3.50
  -3   0  16   95.75    7.99
   3   0 -16   93.57   12.29
  -3   0  16   83.55    6.90
  -3   0  15  214.29   17.45
   3   0 -15  228.56    7.47
  -3   0  15  231.08    6.55
  -3   0  14  127.50   13.86
  -3   0  14  116.55   10.97
  -3   0  13    5.61    2.03
  -3   0  13    8.54    1.61
  -3   0  12  135.30    8.05
  -3   0  12  144.18    6.03
  -3   0  11   55.05    6.40
   3   0 -11   60.76    5.17
  -3   0  11   56.90    4.71
  -3   0  10  452.44   13.97
   3   0 -10  461.89   11.40
  -3   0  10  459.69   11.22
  -3   0   9  536.53   11.21
   3   0  -9  548.28   11.34
  -3   0   9  559.66   11.37
  -3   0   8   57.84    6.18
   3   0  -8   66.43    7.24
  -3   0   8   50.03    3.43
  -3   0   7    9.28    1.31
   3   0  -7   10.33    1.27
  -3   0   7   11.96    1.61
  -3   0   6   30.93    2.86
  -3   0   6   19.83    1.91
  -3   0   5   99.66    4.46
   3   0  -5   96.75    4.30
  -3   0   5  107.26    7.14
   3   0  -5   93.56    4.17
  -3   0   4  987.86   10.12
   3   0  -4  941.58    9.68
  -3   0   4  939.01    9.68
   3   0  -4  942.26    9.99
  -3   0   3  279.16    5.10
   3   0  -3  269.18    5.40
  -3   0   3  271.08    5.07
  -3   0   3  257.20    5.32
   3   0  -3  249.40    4.88
   3   0  -2   60.32    1.89
   3   0  -2   65.48    2.05
   3   0  -2   57.51    2.06
  -3   0   2   53.38    1.84
  -3   0   2   60.38    2.16
   3   0  -2   62.09    3.06
   3   0  -1  309.08    5.44
  -3   0   1  327.16    5.77
  -3   0   1  302.67    5.57
  -3   0   1  325.49    6.48
   3   0   0   15.90    0.88
  -3   0   0   16.83    0.81
   3   0   0   17.36    1.32
  -3   0   0   15.24    0.89
   3   0   0   12.94    0.85
   3   0   1 1594.24   15.28
  -3   0  -1 1521.53   14.56
   3   0   1 1565.96   15.33
  -3   0  -1 1574.83   15.09
   3   0   1 1514.86   14.53
   3   0   2  637.62   11.05
  -3   0  -2  630.88   10.91
   3   0   2  646.35   11.35
  -3   0  -2  639.41   10.88
   3   0   2  624.84   10.64
   3   0   3 1278.32   12.83
  -3   0  -3 1236.50   12.35
   3   0   3 1290.45   13.09
  -3   0  -3 1289.06   12.17
   3   0   3 1250.87   11.84
   3   0   5 1255.26   15.73
   3   0   5 1237.42   15.56
   3   0   6  138.94    8.26
   3   0   6  145.40    6.45
   3   0   7  212.54    8.49
   3   0   7  218.91    8.73
   3   0   8  182.93    8.19
   3   0   9  946.28   22.06
   3   0  10  212.13    9.37
   3   0  11  224.99   11.40
   3   0  12  273.46    8.97
  -3   0 -12  281.79    9.06
   3   0  13  104.29    7.12
  -3   0 -13   94.73    6.46
   3   0  14  132.98    5.55
  -3   0 -14  119.34    7.25
   3   0  15   22.88    3.88
  -3   0 -15   19.97    3.56
   3   0  16   10.17    3.46
  -3   0 -16    8.37    2.68
  -3  -1  17  100.07   11.84
   3   1 -17  118.06   11.22
  -3  -1  16  110.19   12.84
   3   1 -16  107.45    7.83
  -3  -1  16   97.78    4.51
  -3  -1  15  231.67   12.31
   3   1 -15  232.78    7.14
  -3  -1  15  229.95    6.56
  -3  -1  14  147.62   15.78
   3   1 -14  179.26   12.26
  -3  -1  14  151.14    6.43
  -3  -1  13   24.78    2.80
   3   1 -13   24.76    2.88
  -3  -1  13   26.58    2.93
  -3  -1  12  109.18    6.55
   3   1 -12  121.38    8.02
  -3  -1  12  108.60    4.61
  -3  -1  11  381.74   16.42
   3   1 -11  348.35   10.11
  -3  -1  11  352.36    8.25
  -3  -1  10  222.35   12.76
   3   1 -10  222.05    9.15
  -3  -1  10  231.64    9.45
  -3  -1   9  793.35   22.06
   3   1  -9  760.22   15.90
  -3  -1   9  794.16   15.70
  -3  -1   8  279.67    8.82
   3   1  -8  289.02    8.96
  -3  -1   8  275.62   10.68
  -3  -1   7   20.04    2.19
   3   1  -7   20.13    1.68
  -3  -1   7   11.84    1.38
  -3  -1   6    8.23    1.01
   3   1  -6    4.64    0.64
   3   1  -6    4.17    1.21
  -3  -1   6    5.35    0.82
  -3  -1   5  233.06    9.13
   3   1  -5  213.79    8.37
   3   1  -5  217.48    8.61
  -3  -1   5  225.70    9.07
  -3  -1   4  742.32   12.83
   3   1  -4  717.22   12.35
   3   1  -4  716.92   12.54
  -3  -1   4  710.57   12.41
  -3  -1   4  716.60   12.74
   3   1  -4  678.36   11.96
  -3  -1   3  170.60    4.69
   3   1  -3  167.80    4.58
  -3  -1   3  163.53    4.60
  -3  -1   3  168.64    5.01
  -3  -1   2  579.08    9.81
   3   1  -2  563.57    9.54
  -3  -1   2  568.83    9.95
  -3  -1   2  566.02   10.58
   3   1  -1  670.53   11.21
   3   1  -1  682.26   11.42
  -3  -1   1  696.37   12.05
  -3  -1   1  688.47   12.02
   3   1   0    3.28    0.33
  -3  -1   0    3.48    0.40
   3   1   0    4.00    0.70
  -3  -1   0    3.10    0.55
   3   1   0    1.60    0.73
  -3  -1  -1 7061.24  281.29
   3   1   2    0.41    0.62
  -3  -1  -2    0.01    0.65
   3   1   2    1.32    1.35
  -3  -1  -2    1.73    0.68
   3   1   2    2.22    0.76
   3   1   3 1233.19   14.93
  -3  -1  -3 1216.49   14.67
  -3  -1  -3 1149.59   14.17
  -3  -1  -3 1215.20   14.23
   3   1   3 1199.93   14.02
   3   1   4 2672.12   31.64
  -3  -1  -4 2647.03   31.23
  -3  -1  -4 2627.54   30.17
  -3  -1  -4 2630.88   30.21
   3   1   5  330.77   10.08
   3   1   5  333.50   10.31
   3   1   6   53.71    3.21
   3   1   6   57.21    4.58
   3   1   7 1141.11   20.53
   3   1   7 1081.73   19.56
   3   1   8 1231.09   23.65
   3   1   9  405.18    9.45
  -3  -1  -9  373.47    8.72
   3   1  10  186.84    9.43
  -3  -1 -10  179.36    9.09
   3   1  11  268.13    9.77
  -3  -1 -11  278.78   10.32
   3   1  12  238.49   16.14
  -3  -1 -12  232.31   10.40
   3   1  13  134.77   11.35
  -3  -1 -13  133.93    4.51
   3   1  14   68.24    6.95
  -3  -1 -14   80.46    6.09
   3   1  15   53.10    7.56
  -3  -1 -15   69.00    6.61
   3   1  16    8.44    2.32
  -3  -1 -16   13.09    3.00
  -3  -2  17  176.41   19.20
   3   2 -17  186.77   17.33
  -3  -2  16   64.64    7.76
   3   2 -16   58.77    6.37
  -3  -2  16   57.65    6.02
  -3  -2  15  145.40   10.87
   3   2 -15  170.75    9.98
  -3  -2  15  176.07    6.12
  -3  -2  14  144.31   14.42
   3   2 -14  152.36    7.00
  -3  -2  14  137.65   10.82
  -3  -2  13   56.47    6.62
   3   2 -13   45.22    2.95
  -3  -2  13   42.19    4.69
  -3  -2  12  218.89   17.06
   3   2 -12  201.95   23.90
  -3  -2  12  212.55   10.74
  -3  -2  11  482.30   10.97
   3   2 -11  483.53   11.08
  -3  -2  11  463.67   10.64
  -3  -2  10 1522.58   34.63
   3   2 -10 1602.54   36.34
  -3  -2  10 1557.53   35.36
  -3  -2   9  765.41   15.11
   3   2  -9  761.84   15.06
  -3  -2   9  666.69   13.35
  -3  -2   8  167.83    6.84
   3   2  -8  169.58    7.26
  -3  -2   8  151.27    6.39
  -3  -2   7  861.47   10.75
   3   2  -7  888.07   11.18
  -3  -2   7  831.25   10.84
   3   2  -6  191.10    7.60
   3   2  -6  195.60    7.86
  -3  -2   5 3118.47  151.82
   3   2  -5 3076.52   36.05
   3   2  -5 3146.09  153.22
  -3  -2   4 1555.53   18.47
   3   2  -4 1545.07   18.33
   3   2  -4 1557.96   18.78
  -3  -2   4 1531.54   18.41
  -3  -2   3 1034.71   10.03
   3   2  -3 1025.89    9.94
   3   2  -3 1028.51   10.57
  -3  -2   3  995.54   10.09
  -3  -2   3 1058.10   11.21
  -3  -2   2  786.16   13.14
   3   2  -2  789.31   13.20
   3   2  -2  825.16    8.65
  -3  -2   2  804.58   32.38
   3   2  -2  796.98   32.13
   3   2  -1 1309.98   12.92
  -3  -2   1 1330.74   13.40
   3   2  -1 1269.95   12.64
   3   2   1 1087.28   10.38
  -3  -2  -1 1081.58   10.33
  -3  -2  -1 1090.27   10.93
   3   2   1 1048.70   10.38
   3   2   2 3490.50   32.66
  -3  -2  -2 3451.93   32.26
  -3  -2  -2 3454.26   32.35
   3   2   3  112.65    4.64
  -3  -2  -3  114.29    4.60
  -3  -2  -3  107.09    5.42
  -3  -2  -3  115.25    4.57
   3   2   4   94.05    4.18
  -3  -2  -4   95.19    4.15
   3   2   4   95.44    4.29
  -3  -2  -4   89.61    3.72
  -3  -2  -4   98.15    4.06
   3   2   5  145.03    5.86
   3   2   5  142.53    5.84
  -3  -2  -5  144.40    5.40
  -3  -2  -5  135.25    7.64
   3   2   6  689.79   12.74
   3   2   7  606.98   12.19
   3   2   8  437.54   11.91
   3   2   9   71.91    5.80
  -3  -2  -9   77.32    6.25
   3   2  10  133.37   12.37
  -3  -2 -10  135.97    6.06
   3   2  11  147.06   11.70
  -3  -2 -11  161.63    8.06
   3   2  12  234.78   10.50
  -3  -2 -12  247.78   11.00
   3   2  13   50.32    6.69
  -3  -2 -13   44.79    4.27
   3   2  14   96.46   14.43
  -3  -2 -14  117.85    8.47
   3   2  15   78.91   13.23
  -3  -2 -15   98.93    8.78
   3   2  16   26.26    4.99
  -3  -2 -16   30.50    5.34
  -3  -3  17   39.89    5.55
   3   3 -17   35.16    4.55
  -3  -3  16   64.13    7.62
   3   3 -16   75.69    8.35
  -3  -3  16   61.14    9.77
  -3  -3  15   45.19    5.98
   3   3 -15   48.40    4.34
  -3  -3  15   50.82    4.52
  -3  -3  14    0.95    1.10
   3   3 -14    4.08    2.38
  -3  -3  14    1.35    1.10
  -3  -3  13    4.36    1.78
   3   3 -13    6.38    3.11
  -3  -3  13    2.14    1.30
  -3  -3  12  317.33   10.47
   3   3 -12  300.71   35.37
  -3  -3  12  317.58   10.19
  -3  -3  11 1149.50   22.97
   3   3 -11 1153.13   22.96
  -3  -3  11 1161.28   23.25
  -3  -3  10  224.67    8.79
   3   3 -10  232.92    9.20
  -3  -3  10  218.52    9.48
  -3  -3   9  106.09    5.40
   3   3  -9   96.69    4.95
  -3  -3   9   94.73    5.17
  -3  -3   8  299.39    9.15
   3   3  -8  304.59    9.43
  -3  -3   8  291.78    9.70
  -3  -3   7 1251.13   22.12
   3   3  -7 1278.35   22.63
  -3  -3   7 1252.59   15.53
  -3  -3   6  674.32    8.51
   3   3  -6  642.58   36.14
   3   3  -6  674.76    8.63
  -3  -3   6  694.65    9.36
  -3  -3   5  839.32   10.51
   3   3  -5  823.92   40.27
   3   3  -5  841.15   10.77
  -3  -3   4 2296.88   26.97
   3   3  -4 2284.82   26.78
   3   3  -4 2412.59   28.58
  -3  -3   4 2318.81   27.46
  -3  -3   3  618.34   15.07
   3   3  -3  622.52   15.16
   3   3  -3  646.57   16.62
  -3  -3   3  613.46   15.12
  -3  -3   3  641.47   16.13
  -3  -3   2  611.16   14.80
   3   3  -2  601.70   14.56
   3   3  -2  616.55   15.24
  -3  -3   2  596.33   14.75
  -3  -3   2  626.77   15.77
  -3  -3   1 1321.11   12.22
  -3  -3   1 1323.36   12.24
   3   3  -1 1398.10   13.79
  -3  -3   1 1342.35   13.25
   3   3  -1 1317.80   13.22
  -3  -3   0 2647.72   24.48
  -3  -3   0 2658.66   24.56
   3   3   0 2696.69   25.81
  -3  -3   0 2592.33   24.67
  -3  -3   0 2716.24   26.09
   3   3   1   39.99    1.85
  -3  -3  -1   39.88    1.79
   3   3   1   49.03    4.07
  -3  -3  -1   42.31    2.07
  -3  -3  -1   43.87    2.23
   3   3   2  620.95   15.19
  -3  -3  -2  595.32   14.57
   3   3   2  603.56   15.43
  -3  -3  -2  524.52   13.04
  -3  -3  -2  614.39   15.14
  -3  -3  -2  614.09   15.15
   3   3   3  497.19   12.48
  -3  -3  -3  480.94   11.93
   3   3   3  483.25   12.48
  -3  -3  -3  450.07   11.06
  -3  -3  -3  482.63   11.96
   3   3   4  649.56    8.32
  -3  -3  -4  585.65   17.21
   3   3   4  587.65   18.31
  -3  -3  -4  613.69   17.97
  -3  -3  -4  633.52   18.45
   3   3   5  575.76   17.53
   3   3   5  571.81   18.07
  -3  -3  -5  568.78   16.52
  -3  -3  -5  572.85   16.68
   3   3   6  145.43    6.17
   3   3   6  138.43    5.77
  -3  -3  -6  137.23    5.23
   3   3   7   78.63    5.92
   3   3   7   82.08    8.93
  -3  -3  -7   71.46    4.92
  -3  -3  -7   75.89    5.23
   3   3   8   77.95    4.41
  -3  -3  -9    3.62    1.86
   3   3  10    3.85    1.79
  -3  -3 -10    4.87    1.88
   3   3  11   73.19    8.14
  -3  -3 -11   77.20    4.31
   3   3  12  259.90   10.45
  -3  -3 -12  260.11   10.15
   3   3  13   12.61    2.21
  -3  -3 -13   13.52    2.12
   3   3  14  115.15   11.06
  -3  -3 -14  122.97    6.24
   3   3  15  103.24   13.59
  -3  -3 -15  109.06   10.50
  -3  -4  17   56.47    9.23
   3   4 -17   59.44   10.70
  -3  -4  16   17.16    2.91
   3   4 -16   17.16    2.80
  -3  -4  16   15.76    2.72
  -3  -4  15    4.80    2.27
  -3  -4  15    5.82    1.52
  -3  -4  14   51.04    4.73
   3   4 -14   40.17    4.09
  -3  -4  14   42.00    6.42
  -3  -4  13  167.55    7.41
   3   4 -13  192.56    8.35
  -3  -4  13  188.93    8.19
  -3  -4  12   66.12    4.00
   3   4 -12   71.59    8.38
  -3  -4  12   74.43    5.70
  -3  -4  11  216.80   10.91
   3   4 -11  216.42   10.79
  -3  -4  11  222.98   11.33
  -3  -4  10   17.64    2.74
   3   4 -10   17.29    2.69
  -3  -4  10   15.25    2.48
  -3  -4   9  263.24   10.33
   3   4  -9  254.63   10.29
  -3  -4   9  259.31   31.20
  -3  -4   8  536.00   10.80
   3   4  -8  553.57   11.15
  -3  -4   8  566.06   11.88
  -3  -4   7  330.53    9.89
   3   4  -7  328.94    9.88
  -3  -4   7  317.78    9.96
  -3  -4   6  772.17    9.64
   3   4  -6  643.51   36.18
   3   4  -6  751.47    9.41
  -3  -4   6  719.45    9.85
  -3  -4   5   82.22    4.43
   3   4  -5   73.89    3.91
   3   4  -5   80.69    4.63
  -3  -4   5   77.72    4.09
  -3  -4   5   72.37    4.45
  -3  -4   4 1003.45   12.24
   3   4  -4 1022.67   12.41
   3   4  -4 1035.42   12.82
  -3  -4   3  238.66    9.20
   3   4  -3  245.84    9.46
   3   4  -3  249.34    9.71
  -3  -4   3  255.98   10.30
  -3  -4   2 1555.49   18.21
   3   4  -2 1548.24   18.08
   3   4  -2 1552.63   18.56
  -3  -4   2 1540.27   18.93
  -3  -4   2 1663.67   20.52
  -3  -4   1 1957.07   22.78
  -3  -4   1 2010.88   23.34
   3   4  -1 1996.16   23.65
  -3  -4   1 1965.44   23.76
  -3  -4   0  781.90   18.95
  -3  -4   0  825.48   40.22
   3   4   0  864.81   10.85
  -3  -4   0  825.82   40.35
  -3  -4   0  853.83   11.04
  -3  -4  -1    4.50    0.48
  -3  -4  -1    5.64    0.66
   3   4   1    6.67    0.98
  -3  -4  -1    4.31    0.68
  -3  -4  -1    5.41    0.91
   3   4   2   51.15    2.42
  -3  -4  -2   46.16    2.12
   3   4   2   50.52    3.54
  -3  -4  -2   46.78    2.52
   3   4   3  377.02   11.37
  -3  -4  -3  370.00   10.98
   3   4   3  356.06   11.37
  -3  -4  -3  326.27    9.70
  -3  -4  -3  362.57   10.87
   3   4   4  164.37    6.64
  -3  -4  -4  125.01    6.33
   3   4   4  152.41    6.72
  -3  -4  -4  144.96    5.63
  -3  -4  -4  155.53    6.08
   3   4   5  112.67    4.84
   3   4   5  106.98    4.71
  -3  -4  -5  102.07    7.12
  -3  -4  -5  100.63    7.04
   3   4   6  128.21    6.52
   3   4   6  122.62    7.56
  -3  -4  -6  124.87    5.62
  -3  -4  -6  118.80    5.41
   3   4   7   83.29    6.67
  -3  -4  -7   81.07    4.07
  -3  -4  -7   77.79    3.96
   3   4   8    1.51    1.07
  -3  -4  -8    3.53    1.67
  -3  -4  -8    2.67    0.62
  -3  -4  -8    3.89    1.00
   3   4   9   11.09    2.47
  -3  -4  -9    7.05    1.70
  -3  -4  -9    4.33    0.61
   3   4  10    3.65    1.05
  -3  -4 -10    5.36    1.74
   3   4  11   29.01    4.68
  -3  -4 -11   31.52    3.01
   3   4  12  152.88   12.45
  -3  -4 -12  147.26    4.87
   3   4  13  117.14   11.16
  -3  -4 -13  122.64    6.09
   3   4  14   15.11    2.60
  -3  -4 -14   15.12    2.59
   3   4  15   83.67   10.91
  -3  -4 -15   98.64    7.33
  -3  -5  17   22.73    4.74
  -3  -5  17   12.72    2.60
  -3  -5  16   16.21    2.92
   3   5 -16   17.78    2.83
  -3  -5  16   16.35    2.70
  -3  -5  15  209.46    9.28
   3   5 -15  224.34    9.65
  -3  -5  15  222.40    9.63
  -3  -5  14  246.28    8.25
   3   5 -14  243.87    8.21
  -3  -5  14  226.41    7.61
  -3  -5  13  133.67    6.28
   3   5 -13  129.45    5.87
  -3  -5  13  128.29    6.27
  -3  -5  12   20.17    2.75
   3   5 -12   14.87    2.47
  -3  -5  12   23.73    3.37
  -3  -5  11   37.36    3.24
   3   5 -11   30.91    2.56
  -3  -5  11   39.04    4.35
  -3  -5  10  312.01   12.91
   3   5 -10  324.26   39.66
  -3  -5  10  295.71   12.52
  -3  -5   9  112.28    6.52
   3   5  -9  116.97    6.75
  -3  -5   9  110.31    6.86
  -3  -5   8  266.69   10.43
   3   5  -8  286.25   11.07
  -3  -5   8  290.60   11.67
  -3  -5   7  179.23    7.84
   3   5  -7  197.74    8.60
  -3  -5   7  199.43    9.12
  -3  -5   6  157.16    6.26
   3   5  -6  166.57    6.62
  -3  -5   5  761.14   13.65
   3   5  -5  741.96   13.27
   3   5  -5  737.39   13.81
  -3  -5   5  756.32   14.84
  -3  -5   4  414.22   12.31
   3   5  -4  413.55   12.22
   3   5  -4  418.56   12.43
  -3  -5   4  398.71   11.92
  -3  -5   4  433.29   13.43
  -3  -5   3   40.01    2.29
   3   5  -3   37.56    2.04
   3   5  -3   38.08    2.36
  -3  -5   3   40.20    2.68
  -3  -5   3   42.34    3.24
  -3  -5   2  487.82   14.27
   3   5  -2  493.96   14.43
   3   5  -2  499.31   14.69
  -3  -5   2  485.73   14.45
  -3  -5   1  952.42   10.84
  -3  -5   1 1010.06   11.53
   3   5  -1 1025.00   12.58
  -3  -5   1 1002.23   11.75
  -3  -5   0  154.70    6.00
  -3  -5   0  153.93    5.92
   3   5   0  163.52    6.43
  -3  -5   0  157.81    6.16
  -3  -5   0  152.54    6.31
  -3  -5  -1  375.36   11.19
  -3  -5  -1  419.71   12.36
   3   5   1  395.85   12.04
  -3  -5  -1  381.61   11.34
  -3  -5  -1  416.83   12.62
  -3  -5  -2  186.61    7.50
  -3  -5  -2  203.34    7.87
   3   5   2  204.28    8.97
  -3  -5  -2  195.20    7.75
   3   5   3   78.86    5.17
  -3  -5  -3   81.61    4.80
   3   5   3   81.38    6.02
  -3  -5  -3   75.25    4.42
  -3  -5  -3   80.83    4.91
   3   5   4  352.38   10.40
   3   5   4  350.47   10.58
  -3  -5  -4  344.99   10.19
   3   5   5  669.78   14.13
   3   5   5  676.39   13.72
  -3  -5  -5  654.90   12.57
   3   5   6   68.31    9.47
   3   5   6   75.78    8.65
  -3  -5  -6   70.00    3.66
  -3  -5  -6   70.52    3.82
   3   5   7  200.30    8.74
  -3  -5  -7  181.60    9.76
  -3  -5  -7  189.38    7.07
   3   5   8   52.23    6.68
  -3  -5  -8   46.81    4.54
  -3  -5  -8   41.87    3.58
   3   5   9  165.14   11.61
  -3  -5  -9  156.02    7.52
   3   5  10  161.15   10.50
  -3  -5 -10  148.07   18.39
   3   5  11   65.38    6.77
  -3  -5 -11   62.49    4.95
   3   5  12   44.17    7.56
  -3  -5 -12   54.26    4.68
   3   5  13  132.98   11.58
  -3  -5 -13  159.84    7.19
   3   5  14   19.98    3.70
  -3  -5 -14   21.21    4.39
  -3  -6  16   94.93    9.29
   3   6 -16   75.02    8.60
  -3  -6  16   59.26   10.64
  -3  -6  15  174.01    7.68
   3   6 -15  147.46    6.40
  -3  -6  15  178.31    7.79
  -3  -6  14   47.41    4.77
   3   6 -14   46.68    4.35
  -3  -6  14   38.92    5.12
  -3  -6  13   39.47    4.05
   3   6 -13   49.35    4.29
  -3  -6  13   48.74    4.67
  -3  -6  12  205.45    8.76
   3   6 -12  190.94    7.88
  -3  -6  12  191.09    8.26
  -3  -6  11   88.98    4.61
   3   6 -11   86.92    4.43
  -3  -6  11   95.64   12.19
  -3  -6  10   99.00    4.53
   3   6 -10   96.91    8.66
  -3  -6  10   93.72    4.73
  -3  -6   9   23.86    2.63
   3   6  -9   23.93    2.65
  -3  -6   9   18.77    3.39
  -3  -6   8  187.91    7.38
   3   6  -8  174.48    9.60
  -3  -6   8  167.96    9.72
  -3  -6   7   61.40    5.16
   3   6  -7   52.21    4.31
  -3  -6   7   61.76    5.73
  -3  -6   6  120.40    5.75
   3   6  -6  115.99    5.41
  -3  -6   5  332.18   11.21
   3   6  -5  297.46   10.02
   3   6  -5  343.72   11.51
  -3  -6   5  306.57   10.41
  -3  -6   5  339.50   11.98
  -3  -6   4  306.69    9.07
   3   6  -4  300.49    8.82
   3   6  -4  307.29    9.18
  -3  -6   4  304.04    8.90
  -3  -6   4  326.37   10.13
  -3  -6   3   29.49    2.07
   3   6  -3   23.80    1.65
   3   6  -3   25.89    1.73
  -3  -6   3   26.69    1.82
  -3  -6   3   27.34    2.41
  -3  -6   2    1.20    1.02
   3   6  -2    1.66    0.40
   3   6  -2    2.30    0.77
  -3  -6   2    0.48    0.47
  -3  -6   2    1.90    1.48
  -3  -6   1  219.60    8.36
  -3  -6   1  212.77    8.14
   3   6  -1  225.30   15.59
  -3  -6   1  216.71    8.39
  -3  -6   1  230.01   16.16
  -3  -6   0  854.95   15.05
   3   6   0  842.89   15.04
  -3  -6   0  799.32   14.38
  -3  -6   0  866.52   15.97
  -3  -6  -1   13.89    1.71
  -3  -6  -1   12.73    1.13
   3   6   1   22.67    3.05
  -3  -6  -1   14.80    1.10
  -3  -6  -1   12.24    1.72
  -3  -6  -2  329.90    9.62
  -3  -6  -2  391.96   11.41
   3   6   2  385.71   12.00
  -3  -6  -2  383.90   11.53
  -3  -6  -3 1040.03   20.40
   3   6   3  935.56   18.95
  -3  -6  -3  972.83   18.61
   3   6   4 1006.93   23.17
   3   6   4  942.87   21.62
   3   6   5  397.84   10.07
   3   6   5  373.59   14.94
   3   6   6   22.53    4.10
   3   6   7  332.74    9.11
  -3  -6  -7  343.37    7.94
   3   6   8  433.78   13.70
  -3  -6  -8  447.39   12.37
   3   6   9  213.73    7.77
  -3  -6  -9  215.95    8.03
   3   6  10  255.41   11.41
  -3  -6 -10  259.50    9.85
   3   6  11  135.47    9.19
  -3  -6 -11  123.85    4.23
   3   6  12   60.19    7.60
  -3  -6 -12   65.60    5.53
   3   6  13   50.79    6.71
  -3  -6 -13   50.63    6.35
   3   6  14   53.92   10.95
  -3  -6 -14   76.73    6.00
  -3  -7  16   29.46    4.71
   3   7 -16   17.55    3.24
  -3  -7  16   28.65    4.84
  -3  -7  15   13.33    2.95
   3   7 -15   16.74    3.34
  -3  -7  15   16.40    3.50
  -3  -7  14   66.54    7.13
   3   7 -14   74.33    6.26
  -3  -7  14   71.81    6.55
  -3  -7  13   83.73    5.30
   3   7 -13   73.69    6.98
  -3  -7  13   86.56    5.72
  -3  -7  12  136.02    6.21
   3   7 -12  135.43    5.89
  -3  -7  12  134.87    6.49
  -3  -7  11  170.72    7.24
   3   7 -11  173.00    7.18
  -3  -7  11  168.77    7.84
  -3  -7  10  105.80    4.91
   3   7 -10  112.48    5.13
  -3  -7  10  110.14    5.54
  -3  -7   9  144.76    6.00
   3   7  -9  158.22    6.30
  -3  -7   9  143.26    6.68
  -3  -7   8  253.20   10.46
   3   7  -8  262.94   11.00
  -3  -7   8  263.73   11.37
  -3  -7   7    4.75    1.56
   3   7  -7    1.26    1.24
  -3  -7   7    7.37    2.77
  -3  -7   6  119.23    6.81
   3   7  -6  112.82    6.58
  -3  -7   6  121.49    7.42
  -3  -7   4  293.20   11.17
   3   7  -4  296.20   11.13
  -3  -7   4  254.26   10.18
  -3  -7   4  296.99   11.86
  -3  -7   3  119.18    5.56
   3   7  -3  108.62    5.05
   3   7  -3  115.20    5.27
  -3  -7   3  107.29    4.99
  -3  -7   3  127.38    6.51
  -3  -7   2  214.62    9.15
   3   7  -2  215.83    9.47
   3   7  -2  218.40    9.22
  -3  -7   2  205.25    8.65
  -3  -7   2  220.65    9.87
  -3  -7   1   58.98    4.21
  -3  -7   1   67.85    4.99
   3   7  -1   57.53    4.87
  -3  -7   1   57.92    4.46
  -3  -7   1   63.69    5.13
  -3  -7   0   48.90    4.43
  -3  -7   0   45.24    3.45
   3   7   0   49.28    4.04
  -3  -7   0   47.39    3.48
  -3  -7   0   56.39    4.68
   3   7   1  639.95   13.30
  -3  -7  -1  628.75   12.77
  -3  -7  -2  540.22   13.43
   3   7   2  537.83   12.95
  -3  -7  -2  555.13   13.25
  -3  -7  -3  648.95   15.02
   3   7   3  613.53   15.92
  -3  -7  -3  619.09   14.58
  -3  -7  -4   82.26    6.26
   3   7   4   92.82    7.13
  -3  -7  -5  310.93   12.64
   3   7   6  581.14   17.40
  -3  -7  -6  539.45   16.03
   3   7   7   57.75    6.58
  -3  -7  -7   49.85    3.58
   3   7   8  142.87    9.84
  -3  -7  -8  115.01    5.24
   3   7   9  131.61    9.72
  -3  -7  -9  129.59    6.03
   3   7  10  211.81    8.06
  -3  -7 -10  212.77    6.70
   3   7  11  159.60   11.27
  -3  -7 -11  178.98    7.99
   3   7  12   78.76   10.19
  -3  -7 -12   97.34    8.68
   3   7  13   32.91    6.13
  -3  -7 -13   47.56    4.67
  -3  -8  15   43.94    6.42
  -3  -8  15   32.40    5.08
  -3  -8  14   33.91    3.61
   3   8 -14   39.18    7.56
  -3  -8  14   42.20    5.61
  -3  -8  13   51.44    5.60
   3   8 -13   50.52    5.38
  -3  -8  13   50.27    6.06
  -3  -8  12  140.04    5.15
   3   8 -12  132.47    4.53
  -3  -8  12  136.76    5.81
  -3  -8  11  153.18    4.95
   3   8 -11  153.83    4.58
  -3  -8  11  160.44    6.07
  -3  -8  10  124.86    7.54
   3   8 -10  121.99    7.51
  -3  -8  10  129.18    8.05
  -3  -8   9  127.72    5.72
   3   8  -9  112.46    6.60
  -3  -8   9  128.59    6.59
  -3  -8   8  313.99    8.84
   3   8  -8  309.50    8.34
  -3  -8   8  318.20    9.61
  -3  -8   7   91.44    3.77
   3   8  -7   95.99    4.66
  -3  -8   6   40.62    3.85
   3   8  -6   37.69    3.27
  -3  -8   6   53.09    5.45
  -3  -8   5  759.97   15.10
   3   8  -5  772.61   14.91
  -3  -8   5  700.33   13.75
  -3  -8   5  795.24   16.83
  -3  -8   4  267.24   10.02
   3   8  -4  266.52    9.73
  -3  -8   4  239.89    8.98
  -3  -8   4  287.22   11.42
  -3  -8   3  172.54    9.53
   3   8  -3  181.63    9.74
  -3  -8   3  155.92    8.39
  -3  -8   3  160.42    9.32
  -3  -8   2  221.18    8.36
   3   8  -2  230.91    8.56
  -3  -8   2  197.17    7.44
  -3  -8   2  243.27    9.74
  -3  -8   1  582.49   12.29
   3   8  -1  577.95   12.36
  -3  -8   1  522.75   11.32
  -3  -8   1  592.87   13.45
  -3  -8   0  359.23    7.95
   3   8   0  340.09    8.12
  -3  -8   0  325.50    7.10
  -3  -8   0  342.24    8.33
  -3  -8  -1  854.77   17.61
   3   8   1  843.25   17.72
  -3  -8  -1  848.69   18.10
  -3  -8  -2    6.14    2.03
   3   8   2    9.18    1.64
  -3  -8  -2    2.41    1.36
  -3  -8  -3    9.94    1.67
   3   8   3    8.57    1.54
  -3  -8  -4  428.09   12.80
  -3  -8  -5  719.22   18.69
  -3  -8  -5  718.40   18.66
  -3  -8  -6  392.01   12.51
  -3  -8  -6  402.90   11.97
  -3  -8  -7    8.12    1.56
  -3  -8  -7   14.42    2.30
   3   8   8    2.18    0.83
  -3  -8  -8    3.97    1.16
   3   8   9  104.28    9.06
  -3  -8  -9  104.17    6.05
   3   8  10  155.11   12.94
  -3  -8 -10  157.90    7.01
   3   8  11   80.95   12.79
  -3  -8 -11  117.81   10.26
   3   8  12   28.13    6.32
  -3  -8 -12   33.29    4.45
  -3  -9  14   29.33    4.63
  -3  -9  14   33.14    5.22
  -3  -9  13  207.71   17.28
  -3  -9  13  210.04   17.74
  -3  -9  12   69.85    6.14
  -3  -9  12   59.39    6.69
  -3  -9  11   55.56    4.73
  -3  -9  11   49.82    5.66
  -3  -9  10   64.84    3.97
  -3  -9  10   71.36    4.84
  -3  -9   9  151.31    6.53
  -3  -9   9  165.49    7.88
  -3  -9   8  259.64   11.10
   3   9  -8  237.95   10.17
  -3  -9   8  272.99   12.17
  -3  -9   7  511.91   15.08
   3   9  -7  446.83   12.70
  -3  -9   6   56.27    9.03
   3   9  -6   55.91    8.77
  -3  -9   6   51.11    4.60
  -3  -9   5  120.67    4.85
   3   9  -5  112.73    4.04
  -3  -9   5  122.05    5.79
  -3  -9   4  181.56    6.99
   3   9  -4  170.58    6.33
  -3  -9   4  194.38    8.24
   3   9  -3   67.88    2.92
  -3  -9   3   66.60    3.39
   3   9  -2  407.93    8.56
  -3  -9   2  422.17    9.84
   3   9  -1  945.24   18.03
  -3  -9   1 1018.34   21.03
   3   9   0  188.18    6.97
  -3  -9   0  195.46    7.99
  -3  -9  -1   17.84    2.66
   3   9   1   11.13    2.17
  -3  -9  -1   14.05    2.99
  -3  -9  -2   78.41    3.34
  -3  -9  -2   76.74    3.71
  -3  -9  -3  116.36    5.68
  -3  -9  -3  105.83   16.55
  -3  -9  -3  108.55    5.54
  -3  -9  -4  245.48    8.66
  -3  -9  -4  238.80    8.27
  -3  -9  -5  307.98   12.96
  -3  -9  -5  308.53   12.90
  -3  -9  -6  185.34    7.61
  -3  -9  -6  178.35    6.81
  -3  -9  -7   53.37    5.53
  -3  -9  -7   49.02    4.05
  -3  -9  -8   20.36    3.77
  -3  -9  -8   24.16    3.00
  -3  -9  -9   54.11   10.87
  -3  -9 -10   29.57    4.94
   3   9  11   35.44    6.41
  -3  -9 -11   40.75    3.98
  -3 -10  13  189.76   13.10
  -3 -10  13  204.37   14.49
  -3 -10  12   38.88    4.12
  -3 -10  12   48.50    6.06
  -3 -10  11   23.19    3.81
  -3 -10  11   20.00    3.96
  -3 -10  10   63.96    5.32
  -3 -10  10   58.62    5.54
  -3 -10   9  214.46    7.58
  -3 -10   8  208.23    6.17
  -3 -10   8  208.48    7.10
  -3 -10   7  139.77    6.21
  -3 -10   6   79.35    4.18
  -3 -10   6   76.33    4.89
  -3 -10   5   26.91    3.79
  -3 -10   5   36.22    4.10
  -3 -10   4  123.78    5.47
  -3 -10   4  132.02    7.12
  -3 -10   3  122.96    5.41
  -3 -10   3  135.32    6.95
  -3 -10   2  356.42   10.66
  -3 -10   2  389.46   12.47
  -3 -10   1    9.04    1.91
  -3 -10   1    9.71    2.45
  -3 -10   0    2.32    1.11
  -3 -10   0    6.71    2.93
  -3 -10  -1   15.16    2.26
  -3 -10  -1   15.40    2.11
  -3 -10  -1   18.48    2.98
  -3 -10  -2  182.07    7.48
  -3 -10  -2  171.72    6.68
  -3 -10  -2  198.22    8.49
  -3 -10  -3   43.17    3.45
  -3 -10  -3   41.17    3.12
  -3 -10  -3   47.72    4.23
  -3 -10  -4    0.87    1.15
  -3 -10  -4    2.66    1.03
  -3 -10  -4    1.72    1.25
  -3 -10  -5   58.42    5.68
  -3 -10  -5   68.07    3.54
  -3 -10  -5   69.97    3.95
  -3 -10  -6  328.16    9.79
  -3 -10  -6  324.85    9.48
  -3 -10  -7   17.32    3.67
  -3 -10  -7   14.04    1.94
  -3 -10  -7   12.71    1.84
  -3 -10  -8   19.13    4.28
  -3 -10  -8   20.44    3.44
  -3 -10  -9   65.29   11.36
  -3 -10  -9   95.03   17.87
  -3 -10 -10   48.47    6.61
  -3 -10 -10   46.99    6.39
  -3 -11  12  126.13    8.92
  -3 -11  12  140.20   10.27
  -3 -11  11   35.80    4.70
  -3 -11  11   34.56    5.23
  -3 -11  10   40.78    4.53
  -3 -11  10   65.84    6.98
  -3 -11   9   85.92    7.14
  -3 -11   9  105.36    6.01
  -3 -11   8  194.73    8.22
  -3 -11   8  214.44    9.77
  -3 -11   7   64.27    4.72
  -3 -11   7   75.16    6.34
  -3 -11   6   48.33    4.02
  -3 -11   6   57.38    5.37
  -3 -11   5   66.62    3.79
  -3 -11   5   60.63    8.04
  -3 -11   4  231.73    8.81
  -3 -11   4  251.19   10.17
  -3 -11   3  106.84    6.84
  -3 -11   3  105.45    7.23
  -3 -11   2   58.10    4.37
  -3 -11   2   58.62    5.05
  -3 -11   1    6.16    1.21
  -3 -11   1   14.03    2.81
  -3 -11   0   19.88    2.57
  -3 -11   0   18.17    2.66
  -3 -11  -1   41.38    2.20
  -3 -11  -1   36.62    2.70
  -3 -11  -2   54.70    4.37
  -3 -11  -2   54.65    4.93
  -3 -11  -3   79.59    4.46
  -3 -11  -3   91.55    5.35
  -3 -11  -4   43.20    3.77
  -3 -11  -4   43.04    4.10
  -3 -11  -5    1.02    0.88
  -3 -11  -5    3.14    1.69
  -3 -11  -6   53.02    5.62
  -3 -11  -6   65.83    6.90
  -3 -12  10   36.18    5.74
  -3 -12   7   70.83    6.88
  -3 -12   6   33.30    4.69
  -3 -12   5  173.83    8.35
  -3 -12   4  106.44    7.93
  -3 -12   3  107.19    7.97
  -3 -12   1   30.57    4.11
  -3 -12   0    1.17    1.70
  -3 -12  -1   71.79   13.80
  -3 -12  -2  147.50    6.98
  -3 -12  -3   68.85    6.21
  -3 -12  -4   18.69    3.24
  -3 -12  -5   18.80    2.91
  -3 -12  -6    5.84    2.26
  -3 -13   7    9.52    2.35
  -3 -13   6   64.47    7.87
  -3 -13   5   27.35    5.64
  -3 -13   4   82.87    8.28
  -3 -13   3   69.66    7.03
  -3 -13   2   69.34    7.06
  -3 -13   1   66.37    6.77
  -3 -13   0   13.66    2.86
  -3 -13  -1  106.07    9.40
  -3 -13  -2   89.42    8.95
  -3 -13  -3   41.36    4.03
  -3 -13  -4   33.32    5.17
   4 -14  -1   23.43    4.91
  -4  14   1   18.00    5.10
   4 -14   0   10.93    2.89
  -4  14   0    4.96    2.00
   4 -14   1   10.82    3.00
  -4  14  -1    2.26    1.97
   4 -13  -6   13.26    2.91
  -4  13   6   16.25    4.83
   4 -13  -5   40.25    4.42
  -4  13   5   38.12    6.09
   4 -13  -4   17.90    4.10
  -4  13   4   21.67    5.19
   4 -13  -3   67.61    6.68
  -4  13   3   62.93   10.46
   4 -13  -2   14.87    3.26
  -4  13   2    9.15    2.86
   4 -13  -1   21.68    4.09
  -4  13   1   12.42    3.50
   4 -13   0  112.78   10.24
  -4  13   0   95.72   15.83
   4 -13   1   54.32    6.29
  -4  13  -1   38.89    7.74
   4 -13   2   45.45    5.73
  -4  13  -2   33.38    7.80
  -4  13  -3   34.13    5.63
   4 -13   4   22.45    4.72
  -4  13  -4   21.05    5.20
   4 -13   5   16.50    4.09
   4 -13   6   47.97    7.25
   4 -12  -8    5.07    2.50
  -4  12   8   -0.14    1.81
   4 -12  -7   49.50    5.28
  -4  12   7   29.59    6.30
   4 -12  -6   56.56   10.91
  -4  12   6   50.97    8.25
   4 -12  -5   58.95    6.79
  -4  12   5   46.93    7.14
   4 -12  -4   43.90    4.47
  -4  12   4   39.32    5.61
   4 -12  -3   25.89    4.21
  -4  12   3   19.94    3.77
   4 -12  -2   87.74    7.08
   4 -12  -1   55.76    5.08
  -4  12   1   49.14    8.08
   4 -12   0   55.22    5.42
  -4  12   0   62.58    9.82
   4 -12   1   34.65    4.36
  -4  12  -1   26.03    6.21
   4 -12   2   23.18    4.02
  -4  12  -2   18.63    4.64
   4 -12   3   65.81    6.14
  -4  12  -3   48.54    8.46
   4 -12   4   24.13    4.36
  -4  12  -4   21.04    5.00
   4 -12   5   45.32    5.56
   4 -12   6   62.88    6.60
   4 -12   7   49.50    6.32
   4 -12   8   41.64    4.23
   4 -11 -10   31.17    5.52
  -4  11  10   17.42    5.08
   4 -11  -9  116.41   10.74
  -4  11   9   79.27   11.81
   4 -11  -8   11.84    2.95
  -4  11   8   17.95    4.48
   4 -11  -7   33.17    3.93
  -4  11   7   34.16    6.45
   4 -11  -6   63.56    5.53
  -4  11   6   49.73    6.73
   4 -11  -5   69.79    5.59
  -4  11   5   57.58    7.01
   4 -11  -4   46.89    4.28
  -4  11   4   53.87    7.57
   4 -11  -3   55.86    4.62
  -4  11   3   62.07    5.54
   4 -11  -2   29.17    2.56
   4 -11  -1   59.31    5.05
  -4  11   1   60.01    6.58
   4 -11   0   38.04    2.94
  -4  11   0   41.13    4.34
   4 -11   1   30.20    3.48
  -4  11  -1   30.82    4.26
   4 -11   2   12.81    3.09
  -4  11  -2    8.46    1.69
   4 -11   3   56.91    5.13
  -4  11  -3   43.52    4.69
   4 -11   4   21.78    3.72
  -4  11  -4   18.77    4.46
   4 -11   5  148.00    6.34
  -4  11  -5  142.52   13.45
   4 -11   6  146.50    6.31
   4 -11   7   10.07    2.45
   4 -11   8    7.90    3.11
   4 -11   9    4.48    2.02
   4 -11   9   11.57    3.23
   4 -11  10   99.66    8.08
   4 -11  10   85.72    6.71
   4 -10 -12   28.24    5.28
   4 -10 -12   20.68    3.70
  -4  10  12   20.06    4.56
   4 -10 -11   44.75    4.48
   4 -10 -11   36.56    4.60
  -4  10  11   32.93    6.14
   4 -10 -10   25.01    4.39
   4 -10 -10   26.56    4.11
  -4  10  10   22.57    4.47
   4 -10  -9   54.78    4.97
   4 -10  -9   56.51    4.55
  -4  10   9   58.81    7.73
   4 -10  -8   65.08    5.49
   4 -10  -8   62.10    6.09
  -4  10   8   61.08    7.23
   4 -10  -7   50.24    6.55
   4 -10  -7   55.81    4.54
  -4  10   7   58.16    7.39
   4 -10  -6   57.77    4.90
   4 -10  -6   51.41    4.70
  -4  10   6   62.95    8.23
   4 -10  -5   35.12    3.54
   4 -10  -5   32.80    4.70
  -4  10   5   41.41    5.69
   4 -10  -4    4.29    1.95
  -4  10   4   11.21    2.53
   4 -10  -3   51.96    3.55
  -4  10   3   63.48    8.61
   4 -10  -2   46.07    3.39
  -4  10   2   46.32    4.57
   4 -10  -1   58.48    4.45
  -4  10   1   70.30    7.66
   4 -10   0  107.43    6.24
  -4  10   0  118.33    8.45
   4 -10   1   17.51    3.16
  -4  10  -1   15.45    3.40
   4 -10   2    2.79    3.10
  -4  10  -2    7.87    1.80
   4 -10   3    7.74    2.68
  -4  10  -3    4.89    1.58
   4 -10   4  353.59   15.47
  -4  10  -4  309.96   13.55
   4 -10   5  119.89    6.66
  -4  10  -5  109.59   12.85
   4 -10   6   14.05    3.22
  -4  10  -6    8.08    1.86
   4 -10   7   -0.25    2.05
   4 -10   8   21.78    3.22
   4 -10   9  110.24    5.64
   4 -10  10   18.34    3.54
   4 -10  10   14.97    2.50
   4 -10  11   29.73    4.29
   4 -10  11   35.66    4.85
   4  -9 -13   77.88    6.25
   4  -9 -13   79.80    6.05
  -4   9  13   45.13    9.95
   4  -9 -12   29.65    5.79
   4  -9 -12   25.03    4.09
  -4   9  12   17.43    3.92
   4  -9 -11    1.42    1.68
   4  -9 -11    2.13    1.47
  -4   9  11   -0.14    1.11
   4  -9 -10   24.87    3.73
   4  -9 -10   18.02    2.62
  -4   9  10   23.17    4.31
   4  -9  -9   98.86    4.34
   4  -9  -9   90.01    6.87
  -4   9   9   95.33   10.73
   4  -9  -8   62.57    5.39
   4  -9  -8   60.44    4.40
  -4   9   8   72.76    8.49
   4  -9  -7   27.22    4.28
   4  -9  -7   28.55    3.91
  -4   9   7   28.24    4.78
   4  -9  -6   57.44    3.82
   4  -9  -6   57.75    4.47
  -4   9   6   60.77    8.19
   4  -9  -5    8.30    2.66
   4  -9  -5    3.32    0.99
  -4   9   5    2.97    1.50
   4  -9  -4  138.56    7.25
   4  -9  -4  127.96    5.80
  -4   9   4  135.26    9.64
   4  -9  -3    7.95    2.18
   4  -9  -3    5.51    0.91
   4  -9  -2  253.22   13.14
   4  -9  -2  210.45   10.04
  -4   9   2  232.44   13.69
   4  -9  -1   52.05    2.92
   4  -9  -1   53.06    1.48
  -4   9   1   58.81    6.16
   4  -9   0    8.22    3.38
  -4   9   0    4.76    1.40
   4  -9   1   40.34    3.55
   4  -9   1   34.87    1.52
  -4   9  -1   45.61    4.26
   4  -9   2  272.12   13.74
   4  -9   2  234.48   11.09
  -4   9  -2  257.40   14.74
   4  -9   3  141.74    6.74
  -4   9  -3  168.48    9.74
   4  -9   4   56.26    9.75
  -4   9  -4   42.18    2.49
  -4   9  -4   48.56    7.12
   4  -9   5    5.04    2.46
  -4   9  -5    3.98    0.66
  -4   9  -5   11.43    2.14
   4  -9   6   40.96    4.97
  -4   9  -6   33.36    4.67
   4  -9   7   81.55    4.85
   4  -9   8  100.37    4.56
   4  -9   9   59.87    6.55
   4  -9  10   43.42    4.72
   4  -9  10   34.83    4.05
   4  -9  11   20.55    4.60
   4  -9  11   18.79    2.98
   4  -9  12   15.28    3.64
   4  -8 -14   21.90    6.14
   4  -8 -14   22.84    4.10
  -4   8  14   18.43    4.42
   4  -8 -13   45.59    5.65
   4  -8 -13   46.85    5.50
  -4   8  13   37.34    5.74
   4  -8 -12   84.53   13.13
   4  -8 -12   67.42    6.07
  -4   8  12   69.17    9.05
   4  -8 -11   10.53    2.52
   4  -8 -11   17.26    2.93
  -4   8  11   15.27    2.70
   4  -8 -10  109.58    4.27
   4  -8 -10   91.02    4.94
  -4   8  10  104.95   10.79
   4  -8  -9   60.72    5.02
   4  -8  -9   64.89    6.74
  -4   8   9   70.12    5.61
   4  -8  -8   23.66    3.56
   4  -8  -8   24.65    2.87
  -4   8   8   29.64    5.07
   4  -8  -7   70.60    4.47
   4  -8  -7   67.32    3.58
  -4   8   7   71.20    7.32
   4  -8  -6  126.03    5.55
   4  -8  -6  129.83   15.34
  -4   8   6  137.41    9.56
   4  -8  -5   14.83    2.83
   4  -8  -5   16.28    2.61
  -4   8   5   15.66    3.10
   4  -8  -4  355.83    8.84
   4  -8  -4  344.30    7.47
  -4   8   4  359.22   11.54
   4  -8  -3  130.24    7.67
   4  -8  -3  142.02    7.90
  -4   8   3  121.18    6.64
   4  -8  -2   22.03    3.40
   4  -8  -2   19.74    2.54
  -4   8   2   14.17    2.60
  -4   8   2   27.64    4.32
   4  -8  -1   12.46    3.39
   4  -8  -1    5.15    0.82
  -4   8   1   10.24    1.88
   4  -8   0   66.92    5.95
   4  -8   0   56.26    4.21
  -4   8   0   40.77    4.80
  -4   8   0   66.06    7.90
   4  -8   1  402.28    9.70
   4  -8   1  376.12    8.16
  -4   8  -1  369.66    7.84
  -4   8  -1  391.80    9.95
   4  -8   2  332.16    8.45
   4  -8   2  306.04   11.31
  -4   8  -2  296.83   10.74
  -4   8  -2  351.00   13.69
   4  -8   3    9.62    1.95
   4  -8   3   16.51    2.90
  -4   8  -3   11.29    1.75
  -4   8  -3   15.38    2.78
   4  -8   4    3.77    2.44
   4  -8   4    1.13    0.79
  -4   8  -4    1.22    0.71
  -4   8  -4    2.32    1.13
   4  -8   5  275.42   13.88
  -4   8  -5  261.23   12.89
   4  -8   6  184.91    7.49
  -4   8  -6  166.94    7.43
  -4   8  -6  175.81    6.75
   4  -8   7  106.88    5.91
  -4   8  -7   91.96    4.28
   4  -8   8   72.26    4.59
  -4   8  -8   61.84    4.47
   4  -8   9   97.06    7.04
  -4   8  -9   87.21    5.58
   4  -8  10  184.39    6.95
  -4   8 -10  179.51    5.85
   4  -8  10  174.17    5.93
  -4   8 -11  111.41    7.61
   4  -8  11   98.15    6.88
   4  -8  12   35.93    4.58
  -4   8 -12   28.85    4.38
   4  -8  13   24.80    4.77
   4  -7 -15    4.30    1.89
  -4   7  14   11.44    2.90
   4  -7 -14    9.99    2.80
  -4   7  14    4.37    1.70
  -4   7  13   83.48   11.19
   4  -7 -13   88.86    7.55
  -4   7  13   73.60    6.81
  -4   7  12  234.63   15.64
   4  -7 -12  220.66    8.38
  -4   7  12  233.28    7.85
   4  -7 -11  102.72    5.76
   4  -7 -11  103.23    3.90
  -4   7  11  109.10    4.02
   4  -7 -10  102.68    5.58
   4  -7 -10   96.33    4.93
  -4   7  10   92.00    4.69
   4  -7  -9  163.92    6.67
   4  -7  -9  156.72    6.04
  -4   7   9  157.16    6.18
   4  -7  -8   73.74    7.48
   4  -7  -8   75.44    3.71
  -4   7   8   70.24    3.53
   4  -7  -7  235.72   10.67
   4  -7  -7  204.84   25.16
  -4   7   7  224.01    9.82
   4  -7  -6  380.29    8.98
   4  -7  -6  371.79    8.00
  -4   7   6  378.58    8.68
   4  -7  -5  102.31    6.24
   4  -7  -5   97.06   13.64
  -4   7   5   93.82    8.57
   4  -7  -4   51.15    4.60
   4  -7  -4   54.02    4.57
  -4   7   4   59.96    7.51
   4  -7  -3 1072.79   24.84
   4  -7  -3 1033.09   23.92
  -4   7   3 1073.43   25.11
   4  -7  -2    7.48    1.92
   4  -7  -2    8.33    1.01
  -4   7   2    7.77    0.85
  -4   7   2    8.84    1.63
   4  -7  -1   86.71    6.70
   4  -7  -1   74.65    5.31
  -4   7   1   67.74    4.80
  -4   7   1   81.83    6.37
   4  -7   0  278.11   12.32
   4  -7   0  280.16   11.73
  -4   7   0  257.31   10.79
  -4   7   0  271.82   13.87
   4  -7   1  115.91    6.19
   4  -7   1  104.85    4.91
  -4   7  -1  101.96    4.67
  -4   7  -1  120.96    6.90
   4  -7   2   54.66    5.26
   4  -7   2   43.13    3.72
  -4   7  -2   42.84    3.48
  -4   7  -2   54.09    5.94
   4  -7   3   61.43    5.44
   4  -7   3   64.76    6.26
  -4   7  -3   53.36    4.71
  -4   7  -3   60.93    5.90
   4  -7   4  255.76   10.21
   4  -7   4  243.34    9.10
  -4   7  -4  190.37    7.08
  -4   7  -4  259.63   10.38
   4  -7   5  281.78   11.25
   4  -7   5  258.20   10.09
  -4   7  -5  284.09   10.87
   4  -7   6    8.62    1.74
  -4   7  -6   14.14    2.52
   4  -7   7  144.21    6.76
  -4   7  -7  134.48    5.25
   4  -7   8    0.69    2.08
  -4   7  -8    5.43    1.77
   4  -7   9  158.32    7.17
  -4   7  -9  160.41    6.56
   4  -7   9  165.46    6.92
   4  -7  10  149.60    7.46
  -4   7 -10  134.97    5.85
   4  -7  10  133.60    5.84
   4  -7  11  174.99    7.03
  -4   7 -11  155.71    5.63
   4  -7  11  157.30    5.32
   4  -7  12   78.35    6.13
  -4   7 -12   69.51    5.64
   4  -7  13   23.87    4.08
  -4   7 -13   35.75    3.60
   4  -7  14   17.47    3.76
  -4   7 -14   15.57    1.97
  -4   6  15    5.49    2.27
   4  -6 -15    7.15    2.48
  -4   6  15    0.43    1.07
  -4   6  14   34.45    6.48
   4  -6 -14   22.48    3.79
  -4   6  14   24.76    3.38
  -4   6  13   99.09   11.20
   4  -6 -13  111.69    6.77
  -4   6  13  120.87    6.95
  -4   6  12   87.75   11.96
   4  -6 -12   93.74   14.37
  -4   6  11   78.93    7.05
   4  -6 -11   82.07    4.40
  -4   6  11   84.43    4.38
  -4   6  10   66.65    7.75
   4  -6 -10   73.45    4.23
  -4   6  10   62.31    3.56
   4  -6  -9  333.03   10.81
   4  -6  -9  405.37   12.53
  -4   6   9  381.71   11.88
   4  -6  -8  152.29    7.98
   4  -6  -8  154.34    7.73
  -4   6   8  165.42    8.23
   4  -6  -7  178.70   11.55
   4  -6  -7  186.49   26.07
  -4   6   7  202.61    8.04
   4  -6  -6  252.98   10.37
   4  -6  -6  285.61   11.07
  -4   6   6  272.92   10.81
   4  -6  -5  122.08    6.18
   4  -6  -5  126.76    6.05
  -4   6   5  127.18    6.26
   4  -6  -4  279.74   12.18
   4  -6  -4  269.47   11.97
   4  -6  -3 1362.30   25.97
   4  -6  -3 1404.57   26.17
  -4   6   3 1433.38   27.55
   4  -6  -2 1529.45   27.33
   4  -6  -2 1526.01   26.58
  -4   6   2 1566.41   28.52
   4  -6  -1  427.07   12.98
   4  -6  -1  414.53   12.01
  -4   6   1  394.20   11.44
  -4   6   1  423.80   12.88
   4  -6   0   67.91    5.01
   4  -6   0   62.65    3.79
  -4   6   0   58.52    3.50
  -4   6   0   69.08    5.18
   4  -6   1  255.92    8.24
   4  -6   1  258.93    7.64
  -4   6  -1  258.61    9.11
  -4   6  -1  273.78    8.53
   4  -6   2  372.83   11.75
   4  -6   2  358.72   10.78
  -4   6  -2  350.34   10.24
  -4   6  -2  364.80   11.94
   4  -6   3  268.75   11.81
   4  -6   3  258.93   11.00
  -4   6  -3  238.04   10.01
  -4   6  -3  270.71   12.03
   4  -6   4  155.25    7.56
   4  -6   4  155.86    7.65
  -4   6  -4  153.43    8.83
   4  -6   5  249.61   10.47
   4  -6   5  243.76    9.60
  -4   6  -5  249.22   10.42
   4  -6   6  104.23    7.30
   4  -6   6   82.69    7.96
  -4   6  -6   94.53   14.41
   4  -6   7  142.19    7.50
   4  -6   8    2.56    2.04
  -4   6  -8    0.70    1.06
   4  -6   9    7.92    3.00
  -4   6  -9    4.07    1.09
   4  -6   9    7.50    1.55
   4  -6  10  207.47    9.18
  -4   6 -10  188.13    7.70
   4  -6  10  196.58    7.94
   4  -6  11   83.48    6.25
  -4   6 -11   76.91    7.71
   4  -6  11   60.35    4.40
   4  -6  12   66.49    6.05
  -4   6 -12   71.90    5.41
   4  -6  13   43.71    5.56
  -4   6 -13   33.12    4.60
   4  -6  14   20.79    4.18
  -4   6 -14   21.66    4.04
  -4   5  16  103.16   12.26
   4  -5 -16   93.30    7.20
  -4   5  15  111.79   14.30
   4  -5 -15  100.66    8.87
  -4   5  15  121.35   10.31
  -4   5  14   34.53    5.81
   4  -5 -14   31.77    3.76
  -4   5  14   29.20    3.30
  -4   5  13   11.81    2.02
   4  -5 -13   11.40    1.98
  -4   5  13   12.71    1.96
  -4   5  12   39.11    4.69
   4  -5 -12   27.51    4.40
  -4   5  12   24.25    3.44
  -4   5  11   74.57    7.05
   4  -5 -11   56.34    4.38
  -4   5  11   48.75    2.97
  -4   5  10   65.63    6.03
   4  -5 -10   58.95    3.77
  -4   5  10   43.62    2.32
  -4   5   9  144.20   10.88
   4  -5  -9  140.87   11.51
  -4   5   9  117.91    6.60
  -4   5   8   74.47    9.18
   4  -5  -8   65.77    6.40
  -4   5   8   66.06    5.38
   4  -5  -7  182.08    7.81
   4  -5  -7  167.87   20.23
  -4   5   7  172.30    7.24
   4  -5  -6  209.43    9.68
   4  -5  -6  190.57    8.33
  -4   5   6  209.76    9.26
   4  -5  -5    6.88    1.09
   4  -5  -5    3.44    0.79
  -4   5   5    7.17    1.30
   4  -5  -4  163.80    8.07
   4  -5  -4  176.80    7.03
   4  -5  -3  873.39   13.23
   4  -5  -3  888.38   10.85
  -4   5   3  909.78   11.87
   4  -5  -2  801.88   10.57
   4  -5  -2  804.90    9.83
  -4   5   2  753.30    9.14
  -4   5   2  844.21   11.07
   4  -5  -1  358.78   11.17
   4  -5  -1  343.48   10.28
  -4   5   1  335.37   10.00
  -4   5   1  366.48   11.43
   4  -5   0  523.56   15.89
   4  -5   0  500.97   14.77
  -4   5   0  478.83   14.49
  -4   5   0  523.53   15.93
   4  -5   1  215.34    8.96
   4  -5   1  214.03    8.27
  -4   5  -1  199.33    7.67
  -4   5  -1  203.10    8.23
   4  -5   2  223.84    9.33
   4  -5   2  221.22    8.60
  -4   5  -2  205.07    7.89
  -4   5  -2  213.88    8.58
   4  -5   3  107.29    5.22
   4  -5   3  108.74    5.57
  -4   5  -3  105.80    4.25
  -4   5  -3  125.78    7.73
   4  -5   4  808.56   15.32
   4  -5   4  799.59   14.69
  -4   5  -4  799.87   15.79
   4  -5   5  506.85   10.83
   4  -5   5  462.45   16.01
  -4   5  -5  506.65   11.45
   4  -5   6   49.53    4.66
   4  -5   6   52.79    5.69
  -4   5  -6   53.73    5.22
   4  -5   7   94.17    7.44
   4  -5   7  104.82    8.37
  -4   5  -9   73.00    3.47
   4  -5   9   66.83    2.47
  -4   5 -10  159.72    6.03
   4  -5  10  149.01   18.34
  -4   5 -11   54.86    4.17
   4  -5  11   38.49    4.61
  -4   5 -12   17.74    2.35
  -4   5 -13   21.28    3.16
  -4   5 -14   23.32    4.68
  -4   5 -15   33.85    5.10
  -4   4  16   82.49    9.58
   4  -4 -16  103.30    9.95
  -4   4  15  269.66   17.75
   4  -4 -15  258.40   10.65
  -4   4  15  251.05   10.11
  -4   4  14   67.73    7.19
   4  -4 -14   78.38    6.06
  -4   4  14   66.50    4.89
  -4   4  13   83.95    8.44
   4  -4 -13   80.28    8.53
  -4   4  13   67.25    4.82
  -4   4  12   42.37    5.73
   4  -4 -12   34.35    4.06
  -4   4  12   35.78    3.95
  -4   4  11  113.97    8.83
   4  -4 -11  110.88    5.81
  -4   4  11  105.91   16.68
  -4   4  10  150.15   12.64
   4  -4 -10  141.97    7.33
  -4   4  10  140.29    7.11
  -4   4   9   60.55    7.44
   4  -4  -9   46.33    4.37
  -4   4   9   43.09    3.76
  -4   4   8  158.96   10.15
   4  -4  -8  153.40    8.05
  -4   4   8  131.59    6.93
  -4   4   7  413.20   14.25
   4  -4  -7  362.99   12.46
  -4   4   7  387.05   13.30
   4  -4  -6  347.06   10.39
  -4   4   6  356.76   10.89
   4  -4  -5   12.36    1.78
   4  -4  -5    8.02    1.31
  -4   4   5   11.08    1.44
   4  -4  -4   59.93    3.56
  -4   4   4   60.25    3.60
   4  -4  -3 1102.14   13.18
  -4   4   3 1097.79   13.57
  -4   4   2  480.74   11.97
  -4   4   2  520.36   13.23
   4  -4  -1  192.15    7.61
  -4   4   1  182.94    7.22
  -4   4   1  198.49    8.06
   4  -4   0  338.92   16.75
  -4   4   0  319.10   12.31
  -4   4   0  333.63   16.60
   4  -4   1   10.17    1.38
   4  -4   1   13.43    1.22
  -4   4  -1   11.15    0.94
  -4   4  -1   14.63    2.37
   4  -4   2 1717.04   19.88
  -4   4  -2 1548.81   17.71
  -4   4  -2 1680.51   19.82
   4  -4   3  912.69   11.82
   4  -4   3  904.54   11.29
  -4   4  -3  887.60   10.94
   4  -4   4  385.11   11.70
   4  -4   4  380.48   11.21
  -4   4  -4  390.09   12.04
   4  -4   5  105.41    4.82
   4  -4   5  124.61    8.55
  -4   4  -5  105.51    4.54
   4  -4   6  112.57    5.93
   4  -4   6  112.58    7.66
  -4   4  -6  104.71    5.12
   4  -4   7  482.59   11.96
   4  -4   7  471.53   12.60
   4  -4   8  727.04   15.96
   4  -4   8  699.43   16.89
   4  -4   9   32.66    2.65
  -4   4  -9   26.85    1.83
   4  -4   9   31.39    1.83
   4  -4  10    2.53    1.65
  -4   4 -10    3.39    2.18
   4  -4  10    1.37    0.79
   4  -4  11   73.60    4.15
  -4   4 -11   70.58    3.82
   4  -4  12   25.51    2.83
  -4   4 -12   16.88    2.33
   4  -4  13   46.37    4.73
  -4   4 -13   33.69    3.91
   4  -4  14   81.47    7.41
  -4   4 -14   75.54   10.82
   4  -4  15   59.55    7.35
  -4   4 -15   52.14    6.38
  -4   3  17   57.38   10.51
   4  -3 -17   62.41    8.57
  -4   3  16   84.29   10.66
   4  -3 -16   96.67    8.58
  -4   3  16   79.94    7.24
  -4   3  15  156.09   14.22
   4  -3 -15  153.36   10.87
  -4   3  15  143.51    6.37
  -4   3  14   71.16    6.07
   4  -3 -14   55.74    4.76
  -4   3  14   62.41    3.83
  -4   3  13  151.78    8.87
   4  -3 -13  132.68   10.85
  -4   3  13  142.18    8.45
  -4   3  12   57.89    6.82
   4  -3 -12   51.99    4.11
  -4   3  12   47.67    3.40
  -4   3  11  227.33   12.90
   4  -3 -11  208.01   10.57
  -4   3  11  216.77   10.87
  -4   3  10  127.51   11.18
   4  -3 -10  118.09    7.05
  -4   3  10  120.83    6.99
  -4   3   9  204.22    9.27
   4  -3  -9  213.16    8.90
  -4   3   9  209.43    8.66
  -4   3   8  227.87   10.10
   4  -3  -8  218.23    9.58
  -4   3   8  236.54   10.39
  -4   3   7  294.47    9.22
   4  -3  -7  283.35    8.75
  -4   3   7  294.81    9.07
  -4   3   6  196.49    7.96
   4  -3  -6  190.98    7.77
  -4   3   6  201.53    8.27
   4  -3  -5  437.00   13.23
   4  -3  -5  410.83   12.42
  -4   3   5  439.77   13.41
   4  -3  -4  189.86    7.60
  -4   3   4  188.96    7.68
   4  -3  -3  203.39    8.10
  -4   3   3  183.55    7.26
  -4   3   3  184.35    7.51
   4  -3  -2  425.58   10.79
  -4   3   2  382.70    9.66
  -4   3   2  407.11   10.52
   4  -3  -1   12.99    1.39
  -4   3   1    5.90    0.74
   4  -3  -1    7.69    0.95
  -4   3   1    6.90    0.72
  -4   3   1    9.22    1.09
   4  -3   0  231.55    9.31
   4  -3   0  223.17    8.79
  -4   3   0  221.94    8.68
   4  -3   0  214.50    8.52
   4  -3   1 1808.70   21.68
  -4   3  -1 1727.00   20.63
  -4   3  -1 1828.85   22.07
   4  -3   2  805.37   20.08
   4  -3   2  817.34   40.02
  -4   3  -2  742.21   18.26
   4  -3   2  746.79   18.39
   4  -3   3  326.00   10.15
   4  -3   3  365.18   11.01
  -4   3  -3  351.59   11.06
   4  -3   3  345.57   10.35
   4  -3   4   27.78    2.24
   4  -3   4   38.45    4.79
  -4   3  -4   32.93    2.61
   4  -3   4   24.07    1.58
   4  -3   5  134.38    5.87
   4  -3   5  115.32    5.83
  -4   3  -5  120.37    5.31
   4  -3   5  117.74    4.68
   4  -3   6  181.61    8.20
   4  -3   6  176.07    8.07
  -4   3  -6  175.81    7.90
   4  -3   6  169.04    7.20
   4  -3   7  490.28   12.08
   4  -3   7  466.38   11.92
   4  -3   7  433.63    9.96
   4  -3   8  270.63   10.60
   4  -3   8  248.05    9.80
   4  -3   8  236.19    8.64
   4  -3   8  255.29    9.40
   4  -3   9   84.09    5.06
   4  -3   9   85.32    4.57
   4  -3  10   10.09    2.04
  -4   3 -10    4.87    1.63
   4  -3  10    8.83    1.32
   4  -3  11  164.53    6.94
  -4   3 -11  179.19    6.97
   4  -3  12   80.50    5.93
  -4   3 -12   75.06    5.47
   4  -3  13  164.63    6.25
  -4   3 -13  159.98    5.67
   4  -3  14   50.39    5.99
  -4   3 -14   53.95    6.01
   4  -3  15   12.46    2.89
  -4   3 -15   13.91    3.01
  -4   2  17   21.88    5.15
   4  -2 -17   29.40    4.65
  -4   2  16   44.65    6.74
   4  -2 -16   36.52    4.02
  -4   2  16   40.37    4.54
  -4   2  15   74.63    7.14
   4  -2 -15   83.63    6.83
  -4   2  15   83.02    4.96
  -4   2  14   44.04    5.32
   4  -2 -14   46.25    5.76
  -4   2  14   48.38    3.76
  -4   2  13   36.27    5.52
   4  -2 -13   32.47    3.32
  -4   2  13   28.66    3.98
  -4   2  12   34.06    2.91
   4  -2 -12   25.29    2.83
  -4   2  12   28.66    2.80
  -4   2  11   72.65    6.37
   4  -2 -11   72.63    5.17
  -4   2  11   63.65    5.60
  -4   2  10  638.70   18.19
   4  -2 -10  646.24   15.48
  -4   2  10  658.47   14.32
  -4   2   9  104.07    5.97
   4  -2  -9  101.94    5.68
  -4   2   9  102.18    5.63
  -4   2   8   20.41    2.28
   4  -2  -8   12.16    1.67
  -4   2   8   14.55    1.89
  -4   2   7  307.25   10.82
   4  -2  -7  295.53    9.10
  -4   2   7  309.77    9.50
  -4   2   6  158.93    6.56
   4  -2  -6  149.53    6.19
  -4   2   6  159.32    6.53
  -4   2   5   28.41    3.69
   4  -2  -5   22.81    2.00
   4  -2  -4 1791.94   21.77
   4  -2  -4 1765.07   21.43
   4  -2  -3    6.18    0.84
   4  -2  -3    5.38    0.78
   4  -2  -3    5.22    0.80
  -4   2   3    4.46    0.80
  -4   2   3    7.71    1.17
   4  -2  -2   29.69    3.62
  -4   2   2   26.32    1.64
   4  -2  -2   30.44    2.26
  -4   2   2   22.12    1.34
  -4   2   2   26.88    1.84
   4  -2  -2   21.27    1.55
   4  -2   0 1356.37   16.52
  -4   2   0 1312.47   15.88
  -4   2   0 1371.95   16.59
   4  -2   0 1354.88   16.49
   4  -2   1  288.60   11.30
  -4   2  -1  268.93   10.48
  -4   2  -1  260.53   10.15
  -4   2  -1  292.42   11.41
   4  -2   1  273.39   10.63
   4  -2   2   22.37    2.00
  -4   2  -2   20.03    1.28
  -4   2  -2   19.76    1.23
  -4   2  -2   21.55    1.31
   4  -2   2   26.21    1.43
   4  -2   3  591.82   14.92
   4  -2   3  583.83   14.64
  -4   2  -3  580.52   14.62
   4  -2   3  574.74   14.19
   4  -2   4  909.02   11.46
   4  -2   4  872.49   10.99
  -4   2  -4  900.40   10.50
   4  -2   4  875.36   10.27
   4  -2   5  233.47    9.29
   4  -2   5  244.11    9.84
  -4   2  -5  230.63    8.76
   4  -2   5  221.29    8.42
   4  -2   6   64.19    4.30
   4  -2   6   67.47    5.91
  -4   2  -6   65.15    3.88
   4  -2   6   61.69    3.61
   4  -2   7  209.60    9.41
   4  -2   7  224.69   14.17
   4  -2   7  190.73    7.98
   4  -2   7  196.32    8.24
   4  -2   8  511.07   12.62
   4  -2   8  494.98   12.78
   4  -2   8  481.43   10.83
   4  -2   8  479.23   10.81
   4  -2   9   89.02    5.60
   4  -2   9   71.01    3.74
   4  -2   9   76.98    3.95
   4  -2  10  151.93    6.52
  -4   2 -10  138.73    6.03
   4  -2  11  271.57    9.06
  -4   2 -11  292.76    9.44
   4  -2  12  201.28    8.51
  -4   2 -12  182.90    7.33
   4  -2  13  162.13    6.01
  -4   2 -13  173.40    6.17
   4  -2  14   19.92    3.61
  -4   2 -14   21.23    3.88
   4  -2  15   23.23    4.41
  -4   2 -15   24.85    4.50
  -4   1  17   30.65    4.74
   4  -1 -17   31.59    4.86
  -4   1  16  109.41    9.79
   4  -1 -16  115.29    6.04
  -4   1  16  114.64    5.21
  -4   1  15  162.20    9.09
   4  -1 -15  145.73    5.58
  -4   1  15  176.71    6.15
  -4   1  14   21.25    2.82
   4  -1 -14   17.83    2.71
  -4   1  14   22.11    1.96
  -4   1  13    4.51    1.95
   4  -1 -13    5.08    2.82
  -4   1  13    2.55    1.64
  -4   1  12  333.28   10.70
   4  -1 -12  288.91   14.44
  -4   1  12  339.49   10.65
  -4   1  11   59.41    7.47
   4  -1 -11   53.91    5.42
  -4   1  11   53.37    4.93
  -4   1  10 1476.19   34.26
   4  -1 -10 1525.14   31.36
  -4   1  10 1485.44   33.99
  -4   1   9  274.37   12.83
   4  -1  -9  281.69   12.68
  -4   1   9  264.08   11.51
  -4   1   8   49.84    5.10
   4  -1  -8   43.48    3.18
  -4   1   8   49.64    3.55
  -4   1   7   90.03    6.65
   4  -1  -7   70.22    4.12
  -4   1   7   86.25    4.99
  -4   1   6  662.90   10.06
   4  -1  -6  627.06   18.62
  -4   1   5  138.86    5.79
   4  -1  -5  134.63    5.60
  -4   1   4  255.64   10.06
   4  -1  -4  235.39    9.24
   4  -1  -4  259.68   10.24
   4  -1  -3 1104.80   13.55
   4  -1  -3 1163.45   14.18
   4  -1  -3 1140.17   14.11
  -4   1   3 1153.36   14.54
   4  -1  -2  862.93    8.89
   4  -1  -2  878.38    9.02
   4  -1  -2  905.11    9.59
  -4   1   2  918.20    9.89
   4  -1  -1  519.02    9.11
  -4   1   1  524.43    9.22
   4  -1  -1  529.63    9.88
  -4   1   1  516.46    9.20
  -4   1   1  527.62    9.51
   4  -1  -1  499.50    9.15
   4  -1   0  341.72    6.29
  -4   1   0  320.51    5.85
   4  -1   0  341.84    6.46
  -4   1   0  327.82    6.09
  -4   1   0  335.78    6.27
   4  -1   0  311.13    6.06
   4  -1   1    5.68    0.88
  -4   1  -1    2.59    0.49
   4  -1   1    4.73    1.21
  -4   1  -1    4.31    0.65
  -4   1  -1    3.79    0.64
   4  -1   1    4.35    0.84
   4  -1   2  433.22   10.93
  -4   1  -2  426.24   10.70
   4  -1   2  443.91   11.24
  -4   1  -2  453.55   11.28
   4  -1   2  421.03   10.87
   4  -1   3  246.23    9.78
  -4   1  -3  223.73    8.79
   4  -1   3  250.69    9.89
  -4   1  -3  244.42    9.44
   4  -1   3  234.64    9.07
   4  -1   4 1156.61   14.02
  -4   1  -4 1109.81   12.57
   4  -1   4 1095.96   12.43
   4  -1   5  379.36   11.62
   4  -1   5  379.52   12.08
  -4   1  -5  380.88   11.12
   4  -1   5  374.55   10.95
   4  -1   6  202.90    8.14
   4  -1   6  209.93   12.04
   4  -1   6  195.62    7.41
   4  -1   7  487.47   16.51
   4  -1   7  511.09   10.58
   4  -1   8  278.66   11.14
   4  -1   8  299.75   11.78
   4  -1   9  149.08    8.70
   4  -1   9  144.48    9.98
   4  -1  10  113.42    5.23
  -4   1 -10  123.62    5.55
   4  -1  11  371.22   11.58
  -4   1 -11  349.88   11.01
   4  -1  12  175.77    7.80
  -4   1 -12  154.95    6.92
   4  -1  13  115.95    4.42
  -4   1 -13   91.91    5.23
   4  -1  14  115.62    8.34
  -4   1 -14  115.84    8.19
   4  -1  15    4.74    2.58
  -4   1 -15    5.17    2.35
  -4   0  17   65.69    9.20
   4   0 -17   61.88    7.77
  -4   0  16  201.46   12.89
   4   0 -16  225.70    9.62
  -4   0  16  216.34    8.96
  -4   0  15  122.94   12.76
   4   0 -15  118.65    7.04
  -4   0  15  133.95    4.93
  -4   0  14   29.54    3.26
  -4   0  14   25.35    2.04
  -4   0  13   55.07    4.78
  -4   0  13   55.09    3.42
  -4   0  12  836.16   30.25
  -4   0  12  848.99   24.98
  -4   0  11  597.19   17.84
   4   0 -11  625.14   13.42
  -4   0  11  629.73   13.25
  -4   0  10  354.60   13.79
   4   0 -10  381.33   14.78
  -4   0  10  373.53   14.43
  -4   0   9 1183.25   22.87
   4   0  -9 1175.00   22.67
  -4   0   9 1178.99   22.80
  -4   0   8  135.88    6.62
   4   0  -8  126.03    5.49
  -4   0   8  127.80    7.36
  -4   0   7  135.16    8.05
   4   0  -7  144.58    6.06
  -4   0   7  144.14    6.02
  -4   0   6  268.18   10.41
   4   0  -6  249.79    9.82
  -4   0   6  259.08   10.19
   4   0  -5  360.89    9.40
  -4   0   5  397.71   10.42
  -4   0   4  266.17   10.70
   4   0  -4  254.57    9.92
  -4   0   4  243.68    9.73
   4   0  -3  826.19   40.36
   4   0  -3  875.89   10.70
   4   0  -3  865.67   11.03
  -4   0   3  884.77   11.66
   4   0  -2   89.77    2.98
   4   0  -2   89.65    2.89
   4   0  -2   72.40    2.49
  -4   0   2   75.18    2.47
  -4   0   2   94.68    3.34
   4   0  -1  344.53    6.48
   4   0  -1  334.42    6.25
   4   0   0  197.96    5.42
  -4   0   0  193.36    5.23
   4   0   0  209.28    5.94
  -4   0   0  207.77    5.85
   4   0   0  194.72    5.56
   4   0   1  244.93    4.67
  -4   0  -1  240.17    9.77
   4   0   1  253.67    5.14
  -4   0  -1  264.97    5.99
   4   0   1  243.72    4.74
   4   0   2   69.69    3.27
  -4   0  -2   65.94    2.93
   4   0   2   75.10    5.47
  -4   0  -2   66.14    2.94
   4   0   2   67.63    2.99
   4   0   3  426.79   10.79
  -4   0  -3  405.70   10.21
   4   0   3  441.64   11.35
  -4   0  -3  428.20   10.54
   4   0   3  420.45   10.37
   4   0   4  576.61   17.09
   4   0   4  590.43   17.63
  -4   0  -4  573.33   16.61
   4   0   4  576.20   16.71
   4   0   5  357.53   10.97
   4   0   5  370.37   11.38
  -4   0  -5  341.83    9.87
   4   0   5  360.21   10.41
   4   0   6  482.24    9.42
   4   0   6  507.61    9.87
   4   0   7  977.29   18.96
   4   0   7 1007.33   19.60
   4   0   8   16.84    2.21
   4   0   8   23.83    2.85
   4   0   9  143.94    7.41
   4   0   9  127.29    8.07
   4   0  10  225.19   11.38
   4   0  11  297.38    9.80
   4   0  12  186.43    7.62
  -4   0 -12  167.54    7.48
   4   0  13   80.70    6.26
  -4   0 -13   75.04    5.66
   4   0  14  115.75    5.94
  -4   0 -14  131.84    6.12
   4   0  15   20.69    4.09
  -4   0 -15   14.80    3.10
  -4  -1  17   96.15   12.63
   4   1 -17   95.06    9.23
  -4  -1  17   87.02    8.29
  -4  -1  16   21.50    3.95
   4   1 -16   18.21    3.66
  -4  -1  16   17.24    2.99
  -4  -1  15  131.96   13.91
   4   1 -15  134.37    5.23
  -4  -1  15  134.33    5.53
  -4  -1  14  111.61   10.46
   4   1 -14  110.80    9.02
  -4  -1  14  101.07    6.61
  -4  -1  13  171.68   13.29
   4   1 -13  156.08    6.31
  -4  -1  13  156.89    6.09
  -4  -1  12  461.58   15.62
   4   1 -12  467.53   14.34
  -4  -1  12  457.02   14.64
  -4  -1  11 1084.14   22.37
   4   1 -11 1094.16   22.28
  -4  -1  11 1055.67   21.32
  -4  -1  10  102.29    7.02
   4   1 -10  106.60    6.13
  -4  -1  10  101.16    6.11
  -4  -1   9  743.35   14.70
   4   1  -9  733.38   14.66
  -4  -1   9  715.25   14.41
  -4  -1   8  155.90    6.49
   4   1  -8  153.40    6.42
  -4  -1   8  157.38    6.61
  -4  -1   7  633.15   19.45
   4   1  -7  613.00   18.73
  -4  -1   7  655.46    9.03
  -4  -1   6   70.91    4.05
   4   1  -6   65.55    3.52
   4   1  -6   65.30    3.86
  -4  -1   5  742.64   18.30
   4   1  -5  713.45   17.55
  -4  -1   4 1135.31   13.84
   4   1  -4 1116.52   13.49
  -4  -1   4 1152.91   14.62
  -4  -1   3  744.10   18.32
   4   1  -3  722.23   17.59
  -4  -1   3  736.13   18.37
   4   1  -2  918.14    8.87
   4   1  -2  953.40    9.37
  -4  -1   2  948.93   10.18
   4   1  -1 1043.83    9.94
   4   1  -1 1022.64    9.78
  -4  -1   1  997.36   10.26
   4   1  -1  988.11   10.26
   4   1   0   12.91    0.73
  -4  -1   0   14.48    0.75
   4   1   0   15.13    1.39
  -4  -1   0   12.31    0.84
  -4  -1   0   16.97    1.92
   4   1   0   13.40    1.00
   4   1   1 2386.59   27.84
  -4  -1  -1 2298.57   26.79
  -4  -1  -1 2366.08   27.88
   4   1   1 2271.08   26.72
   4   1   2   15.27    1.10
  -4  -1  -2   15.61    1.02
   4   1   2   18.71    2.35
  -4  -1  -2   15.31    1.03
   4   1   2   15.41    1.10
   4   1   3   56.21    2.70
  -4  -1  -3   57.89    2.71
  -4  -1  -3   55.45    2.42
   4   1   3   52.10    2.31
   4   1   4 1232.05   14.54
   4   1   4 1214.61   15.12
  -4  -1  -4 1181.92   13.16
   4   1   4 1156.62   12.85
   4   1   5 1158.32   13.93
   4   1   5 1134.08   13.99
   4   1   6  229.14   15.98
   4   1   6  234.20    7.50
   4   1   7  469.17   15.89
   4   1   7  459.70   15.81
   4   1   8  210.32    8.72
   4   1   8  174.61    7.35
   4   1   9    9.03    1.89
   4   1   9   13.99    3.09
   4   1  10  353.43   11.25
  -4  -1 -10  326.32   10.44
   4   1  11  305.23   10.04
  -4  -1 -11  295.30    9.52
   4   1  12  149.66    7.19
  -4  -1 -12  155.96    6.96
   4   1  13  108.51    6.57
  -4  -1 -13  101.07    6.08
   4   1  14  132.16   14.16
  -4  -1 -14  139.45    6.66
   4   1  15   46.15    7.14
  -4  -1 -15   59.83    7.13
  -4  -2  17   71.86   10.97
   4   2 -17   68.95    8.80
  -4  -2  17   69.86    8.12
  -4  -2  16   62.54    7.63
   4   2 -16   45.82    4.98
  -4  -2  16   37.29    6.08
  -4  -2  15   95.87    8.82
   4   2 -15   95.12    6.10
  -4  -2  15   86.61    5.35
  -4  -2  14   25.09    3.75
   4   2 -14   28.82    2.84
  -4  -2  14   23.58    3.29
  -4  -2  13  139.42   10.04
   4   2 -13  141.83    6.58
  -4  -2  13  132.42    6.16
  -4  -2  12  387.49   13.84
   4   2 -12  395.08   11.49
  -4  -2  12  393.14   11.39
  -4  -2  11  166.53   11.08
   4   2 -11  174.49    8.83
  -4  -2  11  175.00    8.93
  -4  -2  10  200.71    7.99
   4   2 -10  192.27    7.77
  -4  -2  10  193.41    8.57
  -4  -2   9  242.54   13.41
   4   2  -9  232.03   10.17
  -4  -2   9  232.50   10.28
  -4  -2   8  337.68   12.87
   4   2  -8  334.34   11.53
  -4  -2   8  346.16   15.03
  -4  -2   7  306.64    9.46
   4   2  -7  319.10    9.67
  -4  -2   7  302.64   11.76
  -4  -2   6  585.96   17.44
   4   2  -6  523.65   15.44
   4   2  -6  571.63   17.02
  -4  -2   5 1315.79   16.14
   4   2  -5 1287.22   15.55
   4   2  -5 1312.63   17.69
  -4  -2   4 1109.57   13.36
   4   2  -4 1089.46   13.10
   4   2  -4 1083.56   13.55
  -4  -2   4 1139.70   14.83
  -4  -2   3  406.50    9.96
   4   2  -3  403.04    9.88
   4   2  -3  415.05   10.58
  -4  -2   3  419.71   10.89
   4   2  -2 1264.59   14.66
   4   2  -2 1342.86   15.56
   4   2  -2 1350.91   16.56
  -4  -2   2 1337.99   16.89
  -4  -2   1 1678.96   20.40
   4   2  -1 1597.29   19.28
   4   2   0  280.36   10.63
  -4  -2   0  269.01   10.20
  -4  -2   0  283.22   11.08
   4   2   0  262.51   10.24
   4   2   1   25.84    1.29
  -4  -2  -1   26.34    1.28
  -4  -2  -1   28.64    1.73
   4   2   1   25.43    1.45
   4   2   2  227.32    8.80
  -4  -2  -2  225.76    8.72
  -4  -2  -2  232.58    9.15
   4   2   2  222.07    8.63
   4   2   3   21.63    1.54
  -4  -2  -3   26.46    1.63
   4   2   3   33.13    3.27
  -4  -2  -3   25.81    1.55
   4   2   4 1536.79   17.77
  -4  -2  -4 1446.78   16.69
  -4  -2  -4 1496.54   16.71
   4   2   5  467.45    8.91
  -4  -2  -5  442.95   30.28
  -4  -2  -5  430.67   12.14
   4   2   6   43.64    3.39
   4   2   7   96.98    5.29
   4   2   8   63.60    5.05
   4   2   9    4.29    2.35
   4   2  10  145.75    7.03
  -4  -2 -10  159.99    7.68
   4   2  11  149.82   14.22
  -4  -2 -11  149.79    6.88
   4   2  12  171.24    7.59
  -4  -2 -12  157.13    7.25
   4   2  13   81.68   11.74
  -4  -2 -13  102.53    6.57
   4   2  14   73.60    9.92
  -4  -2 -14   77.11    6.63
   4   2  15    6.27    2.66
  -4  -2 -15    6.09    2.73
   4   3 -17    8.65    2.82
  -4  -3  17    5.31    1.86
  -4  -3  16   97.23    7.97
   4   3 -16   99.79    5.00
  -4  -3  16   90.20   18.08
  -4  -3  15   81.89    9.24
   4   3 -15   74.47    5.55
  -4  -3  15   75.36    7.22
  -4  -3  14   46.34    5.63
   4   3 -14   41.03    4.15
  -4  -3  14   43.17    4.29
  -4  -3  13   26.06    4.14
   4   3 -13   23.91    3.50
  -4  -3  13   22.29    4.11
  -4  -3  12   49.38    5.28
   4   3 -12   46.99    3.67
  -4  -3  12   50.90    4.13
  -4  -3  11   32.87    4.24
   4   3 -11   30.77    3.13
  -4  -3  11   22.21    2.60
  -4  -3  10   66.19    7.93
   4   3 -10   57.76    4.74
  -4  -3  10   61.84    5.12
  -4  -3   9  210.61    9.47
   4   3  -9  222.48    9.17
  -4  -3   9  218.75    9.16
  -4  -3   8  337.51   11.54
   4   3  -8  325.96   11.30
  -4  -3   8  314.88   11.34
  -4  -3   7  167.98    6.67
   4   3  -7  166.46    6.71
  -4  -3   7  171.73    7.42
  -4  -3   6  873.48   10.59
   4   3  -6  849.47   10.24
   4   3  -6  892.87   11.23
  -4  -3   6  886.72   11.82
  -4  -3   5   46.62    2.60
   4   3  -5   48.64    2.66
   4   3  -5   48.14    5.04
  -4  -3   5   41.48    2.93
  -4  -3   4  966.71   11.14
   4   3  -4  921.71   10.57
   4   3  -4  969.87   11.80
  -4  -3   4  992.98   12.76
  -4  -3   3  216.80    8.29
   4   3  -3  219.12    8.38
   4   3  -3  220.51    8.74
  -4  -3   3  230.52    9.52
   4   3   0   52.73    2.72
  -4  -3   0   46.60    2.46
   4   3   0   46.63    2.43
   4   3   1  182.34    7.03
  -4  -3  -1  184.98    7.10
   4   3   1  191.21    7.70
  -4  -3  -1  196.28    7.85
   4   3   1  176.91    7.01
   4   3   2 1651.88   18.51
  -4  -3  -2 1583.40   17.74
   4   3   2 1671.33   19.65
  -4  -3  -2 1640.47   18.79
   4   3   3  557.08   16.35
  -4  -3  -3  547.00   16.04
   4   3   3  566.66   17.35
  -4  -3  -3  512.59   14.97
  -4  -3  -3  574.29   16.88
   4   3   4  498.36    9.98
  -4  -3  -4  467.92    8.59
   4   3   4  503.03    9.71
  -4  -3  -4  438.95   12.57
  -4  -3  -4  482.69    8.69
   4   3   5  281.26    8.76
   4   3   5  265.53    8.24
  -4  -3  -5  247.52    7.16
  -4  -3  -5  251.49    7.38
   4   3   6   91.44    4.82
   4   3   6   93.77    7.91
  -4  -3  -6   87.31    6.02
  -4  -3  -6   78.08    5.47
   4   3   7   43.09    5.76
   4   3   7   40.02    5.99
   4   3   8   12.89    2.71
   4   3   8   11.35    2.06
   4   3   9    4.37    1.58
   4   3  10   27.62    3.12
  -4  -3 -10   21.97    2.31
   4   3  11   77.44    7.17
  -4  -3 -11   73.59    4.25
   4   3  12  152.62   10.82
  -4  -3 -12  149.92   17.96
   4   3  13   18.28    3.24
  -4  -3 -13   12.87    2.29
   4   3  14   14.14    3.56
  -4  -3 -14   17.60    3.10
   4   3  15   11.69    2.25
  -4  -3 -15   23.28    4.90
  -4  -4  17    2.60    1.45
   4   4 -17   13.47    3.12
  -4  -4  17    6.13    2.32
  -4  -4  16   83.54   11.75
   4   4 -16   75.73    7.11
  -4  -4  16   81.72    7.57
  -4  -4  15  196.73   13.24
   4   4 -15  207.28    8.99
  -4  -4  15  225.24    9.96
  -4  -4  14   37.36    5.93
   4   4 -14   27.22    3.20
  -4  -4  14   32.94    4.56
  -4  -4  13    3.45    1.36
   4   4 -13    3.43    1.72
  -4  -4  13    0.23    1.48
  -4  -4  12    2.22    1.75
   4   4 -12    2.42    1.75
  -4  -4  12    4.18    1.84
  -4  -4  11   83.22    3.73
   4   4 -11   88.66    4.22
  -4  -4  11   82.94    4.64
  -4  -4  10   63.18    5.52
   4   4 -10   44.56    4.10
  -4  -4  10   58.42    5.63
  -4  -4   9  264.25   10.05
   4   4  -9  260.17    9.97
  -4  -4   9  260.05   10.25
  -4  -4   8   74.18    4.18
   4   4  -8   68.34    8.84
  -4  -4   8   69.70    9.66
  -4  -4   7   41.66    3.24
   4   4  -7   45.05    4.41
  -4  -4   7   32.88    3.05
  -4  -4   6  475.62    8.80
   4   4  -6  437.45   12.65
   4   4  -6  476.99    9.15
  -4  -4   6  469.00    9.70
  -4  -4   5   36.86    2.38
   4   4  -5   36.44    2.35
   4   4  -5   44.47    2.99
  -4  -4   5   35.84    3.09
  -4  -4   4  269.24   10.18
   4   4  -4  268.19   10.13
   4   4  -4  270.05   10.45
  -4  -4   4  277.09   11.06
  -4  -4   3  812.86    9.20
   4   4  -3  800.51    9.04
   4   4  -3  848.57   10.58
  -4  -4   2  323.16    9.32
  -4  -4   2  307.33   17.20
   4   4  -2  319.95    9.66
   4   4  -1  466.17   13.85
  -4  -4   1  474.57   14.32
  -4  -4   0  824.96    9.11
  -4  -4   0  823.05    9.08
   4   4   0  864.35   10.57
  -4  -4   0  848.76   10.68
  -4  -4  -1 1123.07   12.57
   4   4   1 1135.92   15.22
  -4  -4  -1 1115.78   13.50
   4   4   2  480.03   14.12
  -4  -4  -2  445.31   13.04
   4   4   2  419.24   13.21
  -4  -4  -2  418.58   12.39
  -4  -4  -2  470.35   14.46
   4   4   3  646.09   11.54
  -4  -4  -3  578.00   10.32
   4   4   3  627.02   12.27
  -4  -4  -3  572.27   10.32
  -4  -4  -3  639.94   11.92
   4   4   4  464.53    8.62
   4   4   4  446.15   30.82
  -4  -4  -4  428.55   12.31
  -4  -4  -4  452.41   31.07
   4   4   5  211.13    9.19
  -4  -4  -5  209.77    8.86
  -4  -4  -5  222.23    9.39
   4   4   6   77.94    4.45
   4   4   6   77.63    5.56
  -4  -4  -6   73.71    3.72
  -4  -4  -6   71.67    3.68
   4   4   7   85.53    6.67
   4   4   7  103.62    8.07
  -4  -4  -7   87.62    6.37
  -4  -4  -7   85.79    6.26
   4   4   8   78.37    8.32
   4   4   8   86.80   10.25
   4   4   9   47.72    4.34
   4   4  10  146.15    8.77
  -4  -4 -10  125.10    7.66
   4   4  11   75.95   12.13
  -4  -4 -11   87.07    6.23
   4   4  12   29.71    4.32
  -4  -4 -12   29.31    3.65
   4   4  13   60.41   10.92
  -4  -4 -13  108.66    5.88
   4   4  14    1.52    1.55
  -4  -4 -14    5.66    2.49
  -4  -5  16   91.47   12.71
   4   5 -16  103.58    9.92
  -4  -5  16   86.68   11.74
  -4  -5  15   62.60    7.95
   4   5 -15   67.65    5.84
  -4  -5  15   70.74    6.36
  -4  -5  14    5.26    1.89
   4   5 -14    1.91    1.44
  -4  -5  14    1.75    1.63
  -4  -5  13  162.62    7.33
   4   5 -13  166.31    7.23
  -4  -5  13  167.05    7.67
  -4  -5  12  282.37   12.18
   4   5 -12  292.51   12.52
  -4  -5  12  290.98   12.87
  -4  -5  11   86.33    4.68
   4   5 -11   83.19    4.21
  -4  -5  11   85.92    5.12
  -4  -5  10  350.45   10.80
   4   5 -10  338.97   10.54
  -4  -5  10  323.07   10.50
  -4  -5   9  240.38    9.97
   4   5  -9  225.30    9.47
  -4  -5   9  233.32   14.27
  -4  -5   8  131.19    7.40
   4   5  -8  138.67   11.08
  -4  -5   8  128.98    7.66
  -4  -5   7   48.13    4.00
   4   5  -7   48.47    5.10
  -4  -5   6  341.14   11.47
   4   5  -6  305.61   10.25
   4   5  -6  334.52   11.51
  -4  -5   6  356.56   12.57
  -4  -5   5 1577.31   27.30
   4   5  -5 1561.98   26.99
   4   5  -5 1683.04   30.23
  -4  -5   5 1621.90   29.00
  -4  -5   4   35.62    2.26
   4   5  -4   34.40    2.18
   4   5  -4   32.36    2.25
  -4  -5   4   35.52    3.33
  -4  -5   3   40.49    2.42
   4   5  -3   39.71    2.40
   4   5  -3   43.26    2.78
  -4  -5   3   39.83    3.28
  -4  -5   2  199.80    7.47
  -4  -5   2  200.68    7.53
   4   5  -2  214.50    8.32
  -4  -5   2  209.22    8.70
  -4  -5   1  781.34   13.43
  -4  -5   1  790.58   13.58
   4   5  -1  828.81   15.10
  -4  -5   1  848.83   15.81
  -4  -5   0  519.72    9.06
   4   5   0  544.65   10.10
  -4  -5   0  550.86   10.66
  -4  -5  -1   84.11    4.84
  -4  -5  -1   82.22    4.77
   4   5   1   84.67    5.84
  -4  -5  -1   82.04    5.07
  -4  -5  -2  287.87    8.35
  -4  -5  -2  292.33    8.70
   4   5   2  300.03    9.26
  -4  -5  -2  305.28    9.27
   4   5   3  500.35    9.90
  -4  -5  -3  461.33   15.22
   4   5   3  488.64   37.90
  -4  -5  -3  485.82   16.20
   4   5   4  286.63   10.23
  -4  -5  -4  250.41   10.59
   4   5   4  293.15   10.54
  -4  -5  -4  248.31   10.43
  -4  -5  -4  294.97   10.05
   4   5   5  241.72    9.88
   4   5   5  233.73   10.95
  -4  -5  -5  201.49    7.85
  -4  -5  -5  238.73    9.38
   4   5   6   49.82    6.56
   4   5   6   49.25    5.43
  -4  -5  -6   37.37    5.29
  -4  -5  -6   40.28    3.22
   4   5   7  128.27   15.96
   4   5   7  139.97    9.47
  -4  -5  -7  121.86    6.34
   4   5   8  134.65   11.12
   4   5   9  400.41   12.98
  -4  -5  -9  409.94   12.68
   4   5  10  338.41   12.68
  -4  -5 -10  353.60   13.29
   4   5  11  122.98   10.02
  -4  -5 -11  122.37    4.19
   4   5  12   20.75    4.09
  -4  -5 -12   24.48    3.50
   4   5  13  113.16   12.90
  -4  -5 -13  111.81    9.70
   4   5  14   16.14    4.06
  -4  -5 -14   23.87    4.60
  -4  -6  16   21.19    4.48
   4   6 -16   22.12    5.45
  -4  -6  16   23.27    5.95
  -4  -6  15   22.00    3.95
   4   6 -15   13.68    2.22
  -4  -6  15   15.03    2.81
  -4  -6  14   41.29    3.87
   4   6 -14   49.56    4.75
  -4  -6  14   32.77    4.95
  -4  -6  13  177.62    5.64
   4   6 -13  186.74    5.70
  -4  -6  13  185.54    6.50
  -4  -6  12  439.12   15.77
   4   6 -12  442.34   15.76
  -4  -6  12  431.45   16.06
  -4  -6  11  132.84    6.03
   4   6 -11  135.40    6.13
  -4  -6  11  130.31    6.35
  -4  -6  10  411.64   11.29
   4   6 -10  415.97   11.65
  -4  -6  10  421.56   12.22
  -4  -6   9  309.01    9.50
   4   6  -9  307.83    9.57
  -4  -6   9  314.27   10.53
  -4  -6   8  183.01    8.76
   4   6  -8  188.96    9.15
  -4  -6   8  183.18    9.44
  -4  -6   7   48.29    3.93
   4   6  -7   48.58    5.04
  -4  -6   7   40.74    3.89
  -4  -6   6  286.54   10.91
   4   6  -6  238.15    9.32
   4   6  -6  287.58   11.01
  -4  -6   6  290.76   11.74
  -4  -6   5  695.38   15.80
   4   6  -5  684.15   15.48
  -4  -6   5  723.25   17.34
  -4  -6   4  412.73   13.64
   4   6  -4  387.27   12.77
  -4  -6   4  443.94   15.40
  -4  -6   3  327.01   10.82
   4   6  -3  321.68   10.61
  -4  -6   3  324.10   12.08
  -4  -6   2  768.29   14.21
  -4  -6   2  824.33   15.28
  -4  -6   2  908.64   17.89
  -4  -6   1  178.73    7.62
  -4  -6   1  189.23    7.93
   4   6  -1  194.99    8.39
  -4  -6   1  194.82    8.83
  -4  -6   0   62.87    4.45
  -4  -6   0   68.74    4.86
   4   6   0   70.87    5.13
  -4  -6   0   73.42    5.70
  -4  -6  -1  175.60    7.42
  -4  -6  -1  192.78    8.13
   4   6   1  179.85    8.51
  -4  -6  -1  195.93    8.68
  -4  -6  -2  203.78    8.60
  -4  -6  -2  232.40    9.84
   4   6   2  228.40   10.51
  -4  -6  -2  223.34    9.74
  -4  -6  -3  242.33    9.44
  -4  -6  -3  258.54   10.14
   4   6   3  251.72   10.24
  -4  -6  -3  258.87   10.44
   4   6   4  835.40   17.22
   4   6   4  834.57   17.74
  -4  -6  -4  792.50   16.51
   4   6   5  660.96   14.64
   4   6   5  636.18   13.08
  -4  -6  -5  651.94   13.08
   4   6   6   38.77    5.58
   4   6   6   47.63    5.53
  -4  -6  -6   33.93    3.11
   4   6   7   97.60    7.83
   4   6   7   77.19    7.03
  -4  -6  -7   76.64    3.56
   4   6   8  178.98    7.21
  -4  -6  -8  194.18    7.63
   4   6   9  267.09   11.58
  -4  -6  -9  262.89   11.50
   4   6  10  343.16   10.63
  -4  -6 -10  307.72    8.70
   4   6  11  151.38    7.44
  -4  -6 -11  160.12    7.40
   4   6  12   46.30    8.12
  -4  -6 -12   43.60    5.02
   4   6  13   25.88    5.88
  -4  -6 -13   40.48    4.22
  -4  -7  15   45.41    4.41
   4   7 -15   48.41    4.49
  -4  -7  15   52.49    7.18
  -4  -7  14   87.02    7.37
   4   7 -14   85.63    7.13
  -4  -7  14   81.75    7.34
  -4  -7  13   69.43    5.90
   4   7 -13   69.92    7.88
  -4  -7  13   67.42    5.72
  -4  -7  12  182.26    5.66
   4   7 -12  181.91    6.36
  -4  -7  12  177.00    6.53
  -4  -7  11  134.72    6.04
   4   7 -11  138.39    6.08
  -4  -7  11  144.72    6.99
  -4  -7  10  272.76    8.48
   4   7 -10  265.13    9.53
  -4  -7  10  285.26    9.65
  -4  -7   9  495.97   13.30
   4   7  -9  485.80   13.59
  -4  -7   9  468.06   13.32
  -4  -7   8   58.59    2.37
   4   7  -8   62.83    5.15
  -4  -7   8   59.03    3.24
  -4  -7   7    8.38    1.55
   4   7  -7    8.46    1.66
  -4  -7   7    9.01    2.44
  -4  -7   6   16.53    2.34
   4   7  -6   15.64    2.26
  -4  -7   6    8.77    2.18
  -4  -7   5  162.74    8.87
   4   7  -5  141.20    7.67
   4   7  -5  155.76    8.51
  -4  -7   5  160.02    9.54
  -4  -7   4  549.53   12.61
   4   7  -4  510.47   11.77
   4   7  -4  548.78   12.68
  -4  -7   4  569.80   14.68
  -4  -7   3  253.11    9.80
   4   7  -3  233.16    9.84
   4   7  -3  255.66    9.98
  -4  -7   3  269.69   10.97
  -4  -7   2  330.21   12.29
  -4  -7   2  351.98   13.14
   4   7  -2  371.04   13.95
  -4  -7   2  366.54   14.33
  -4  -7   1  247.36    9.51
  -4  -7   1  287.54   10.79
   4   7  -1  289.98   11.28
  -4  -7   1  274.18   10.92
  -4  -7   0   59.28    5.53
  -4  -7   0   65.88    5.24
   4   7   0   62.93    5.11
  -4  -7   0   62.01    5.45
  -4  -7  -1   59.32    5.69
  -4  -7  -1   65.22    5.23
   4   7   1   69.49    8.49
  -4  -7  -1   64.32    5.52
  -4  -7  -2   13.66    1.95
  -4  -7  -2   15.87    2.38
   4   7   2   20.41    3.27
  -4  -7  -2   16.49    2.52
  -4  -7  -3  324.77    7.17
   4   7   3  311.23   43.61
  -4  -7  -3  324.11    7.66
   4   7   4  856.09   19.44
  -4  -7  -4  898.32   17.87
   4   7   5  773.79   24.47
  -4  -7  -5  785.61   22.78
   4   7   6  118.63    6.18
   4   7   6  126.99    6.48
  -4  -7  -6  121.46    5.80
   4   7   7    0.68    0.78
  -4  -7  -7    4.67    1.53
   4   7   8  109.77    7.21
  -4  -7  -8  112.63    7.30
   4   7   9  131.57    9.30
  -4  -7  -9  132.17    4.43
   4   7  10  146.26    6.90
  -4  -7 -10  149.54    6.92
   4   7  11   82.00    9.14
  -4  -7 -11   96.10    4.89
   4   7  12   38.35    5.46
  -4  -7 -12   54.83    6.64
  -4  -8  15  128.59    9.34
  -4  -8  14   93.79    8.92
   4   8 -14   92.56    8.79
  -4  -8  14   97.73    9.77
  -4  -8  13  163.28    7.33
   4   8 -13  169.76    7.22
  -4  -8  13  190.31    8.82
  -4  -8  12  112.52    7.86
   4   8 -12  109.70   10.34
  -4  -8  12  118.25    8.81
  -4  -8  11   49.36    4.03
   4   8 -11   47.63    3.84
  -4  -8  11   48.61    4.73
  -4  -8  10  155.69    6.75
   4   8 -10  142.65    6.03
  -4  -8  10  157.04    7.44
  -4  -8   9  394.42   16.42
   4   8  -9  405.06   16.68
  -4  -8   9  398.90   17.08
  -4  -8   8  101.60    4.63
   4   8  -8  101.87    5.00
  -4  -8   7   11.56    1.75
   4   8  -7   14.33    2.03
  -4  -8   7    9.12    2.16
  -4  -8   6   34.17    1.72
   4   8  -6   30.14    1.32
  -4  -8   6   34.40    3.68
  -4  -8   5  219.03    8.95
   4   8  -5  221.41    8.99
  -4  -8   5  231.39   10.98
  -4  -8   4   37.93    3.38
   4   8  -4   40.11    3.48
  -4  -8   4   42.35    4.76
  -4  -8   3  157.23    7.46
   4   8  -3  129.62   15.87
   4   8  -3  160.87    8.11
  -4  -8   3  161.53    8.39
  -4  -8   2  581.66   11.38
  -4  -8   2  670.72   13.12
   4   8  -2  655.40   13.60
  -4  -8   2  690.39   14.78
  -4  -8   1  125.66    7.34
  -4  -8   1  137.84    6.65
   4   8  -1  146.53    7.12
  -4  -8   1  152.80    8.18
  -4  -8   0   62.18    6.63
  -4  -8   0   80.36    4.41
   4   8   0   77.11    4.17
  -4  -8   0   83.13    5.36
  -4  -8  -1   16.69    2.95
  -4  -8  -1   27.52    2.62
   4   8   1   29.29    3.91
  -4  -8  -1   25.30    2.94
  -4  -8  -2  230.81   11.12
   4   8   2  234.14   11.37
  -4  -8  -2  255.87   12.81
  -4  -8  -3  197.66   23.23
   4   8   3  193.35    7.97
  -4  -8  -3  199.14   23.56
  -4  -8  -4  237.96    8.18
   4   8   4  232.13    9.96
  -4  -8  -4  246.19    8.74
  -4  -8  -5  336.24   10.19
   4   8   5  295.93   10.07
  -4  -8  -5  322.73    9.84
  -4  -8  -6  118.67    9.69
  -4  -8  -6  118.14    7.06
  -4  -8  -7   29.90    2.06
  -4  -8  -7   33.69    1.81
   4   8   8   74.69    6.12
  -4  -8  -8   82.59    4.59
   4   8   9  156.39    7.38
  -4  -8  -9  158.39    7.22
   4   8  10   69.68    8.59
  -4  -8 -10   80.93    6.98
   4   8  11   31.23    6.34
  -4  -8 -11   46.43    4.57
  -4  -9  14   73.97    5.77
  -4  -9  14   78.09    6.59
  -4  -9  13  200.73   18.45
  -4  -9  13  200.20   18.63
  -4  -9  12   51.29    5.53
  -4  -9  12   56.14    6.49
  -4  -9  11   53.14    4.82
  -4  -9  11   41.43    4.25
  -4  -9  10   92.49    5.43
  -4  -9  10   99.39    6.41
  -4  -9   9  182.24    5.36
   4   9  -9  177.86    6.60
  -4  -9   9  181.82    6.47
  -4  -9   8  110.52    6.98
   4   9  -8  109.70    6.89
  -4  -9   7  196.40    7.82
   4   9  -7  145.21    8.20
  -4  -9   7  199.97    8.84
  -4  -9   6    4.87    1.65
   4   9  -6    3.02    1.02
  -4  -9   6    1.64    2.72
  -4  -9   5   68.48    3.44
   4   9  -5   73.01    3.36
  -4  -9   5   74.84    4.93
  -4  -9   4  619.57   15.97
   4   9  -4  641.91   16.37
  -4  -9   4  690.05   18.85
  -4  -9   3  295.29    7.94
   4   9  -3  299.60    8.03
  -4  -9   3  315.94    9.55
  -4  -9   2   11.49    1.67
   4   9  -2   10.92    1.84
  -4  -9   2   12.36    2.34
  -4  -9   1   28.90    2.08
   4   9  -1   25.39    3.03
  -4  -9   1   25.42    3.17
  -4  -9   0    2.91    1.25
   4   9   0    2.36    0.84
  -4  -9   0    1.29    1.69
  -4  -9  -1  343.95    9.15
   4   9   1  335.96   11.32
  -4  -9  -1  351.64   10.17
  -4  -9  -2  289.10   44.98
   4   9   2  305.24    8.68
  -4  -9  -2  291.09   45.43
  -4  -9  -3    5.50    1.27
   4   9   3    5.56    1.24
  -4  -9  -4   23.49    3.70
  -4  -9  -4   19.53    2.95
  -4  -9  -5   92.74    8.14
  -4  -9  -5   98.98    6.33
  -4  -9  -5   91.80    6.05
  -4  -9  -6   70.32    5.32
  -4  -9  -6   72.36    3.83
  -4  -9  -6   70.14    3.96
  -4  -9  -7   34.52    6.28
  -4  -9  -7   52.60    4.36
  -4  -9  -8   60.37    6.85
  -4  -9  -8   74.26    5.46
  -4  -9  -9  113.59    9.61
  -4  -9  -9  122.08   10.34
  -4  -9 -10   30.49    4.13
  -4 -10  13   75.61    6.48
  -4 -10  12   98.15   10.01
  -4 -10  11   19.65    3.76
  -4 -10  10   69.71    5.83
  -4 -10  10   78.82    7.40
  -4 -10   9  120.10    5.38
  -4 -10   9  129.26    7.19
  -4 -10   8   21.41    2.31
  -4 -10   8   13.53    2.38
  -4 -10   7   38.51    3.72
  -4 -10   7   40.01    4.34
  -4 -10   6  423.76   14.90
  -4 -10   6  418.78   16.01
  -4 -10   5  252.59   10.61
  -4 -10   5  268.41   12.24
  -4 -10   4  613.25   24.91
  -4 -10   4  652.94   64.19
  -4 -10   3   17.25    2.57
  -4 -10   3   15.41    3.80
  -4 -10   2    3.14    1.18
  -4 -10   2   10.64    2.96
  -4 -10   1   32.63    2.72
  -4 -10   1   32.39    3.44
  -4 -10   0   92.60    4.39
  -4 -10   0   91.29    5.15
  -4 -10  -1  216.72    8.44
   4  10   1  197.34    8.01
  -4 -10  -1  221.64   22.10
  -4 -10  -2  184.61    6.83
   4  10   2  170.83    6.94
  -4 -10  -2  185.06    7.48
  -4 -10  -3   21.43    1.50
  -4 -10  -3   19.23    2.43
  -4 -10  -4   32.74    3.23
  -4 -10  -4   27.42    2.87
  -4 -10  -5   24.98    2.93
  -4 -10  -5   19.98    2.57
  -4 -10  -6   35.13    3.68
  -4 -10  -6   36.29    3.87
  -4 -10  -7    3.41    1.33
  -4 -10  -8   35.36    3.65
  -4 -10  -9   36.77    5.31
  -4 -11  11   19.68    4.02
  -4 -11  10   59.06    7.79
  -4 -11   9   14.54    2.85
  -4 -11   8   31.16    4.82
  -4 -11   7   75.66    6.42
  -4 -11   6  388.10   12.36
  -4 -11   5  141.37    5.89
  -4 -11   4   36.21    4.09
  -4 -11   3  158.27    5.68
  -4 -11   2  202.23    6.81
  -4 -11   1   56.65    5.14
  -4 -11   0   43.96    4.24
  -4 -11  -1  215.85    7.43
  -4 -11  -2  250.91    8.44
  -4 -11  -3  117.78    8.51
  -4 -11  -4   67.71    5.59
  -4 -11  -5   16.98    2.98
  -4 -12   9   25.91    4.58
  -4 -12   8   66.67    8.21
  -4 -12   7  106.27    9.80
  -4 -12   6   18.43    3.76
  -4 -12   5   75.36    6.95
  -4 -12   4   92.05   18.57
  -4 -12   3  191.48    8.60
  -4 -12   2  101.34    7.72
  -4 -12   1   64.33    5.90
  -4 -12   0   60.83    6.74
  -4 -12  -1  215.56    9.29
  -4 -12  -2  110.61    5.77
  -4 -12  -3   26.51    4.47
  -4 -12  -4   71.80    8.37
  -4 -12  -5   64.22    8.66
  -4 -13   6   50.05    7.27
  -4 -13   5   45.05    5.09
  -4 -13   4   53.05    6.83
  -4 -13   3   38.95    4.51
  -4 -13   2   65.47    7.93
  -4 -13   1   63.93    7.85
  -4 -13   0    4.79    2.62
  -4 -13  -1   49.90    5.13
  -4 -13  -2   80.83    6.48
   5 -13  -5    9.27    2.38
  -5  13   5   14.43    3.31
   5 -13  -4    6.14    2.67
   5 -13  -3   19.21    5.61
  -5  13   3   18.48    4.98
   5 -13  -2   33.17    4.85
  -5  13   2   28.27    7.90
   5 -13  -1   46.88    5.06
  -5  13   1   48.05    9.16
   5 -13   0   39.63    5.13
  -5  13   0   44.25    9.11
   5 -13   1    5.89    2.88
  -5  13  -1    3.78    1.72
   5 -13   2   13.30    3.88
  -5  13  -2    6.82    2.44
   5 -13   3   63.75    8.07
  -5  13  -3   39.85    7.57
   5 -13   4  101.28    8.34
  -5  13  -4   66.93   13.18
   5 -13   5   16.24    4.04
  -5  13  -5   15.46    2.07
   5 -12  -8    8.40    2.70
  -5  12   8    5.27    2.33
   5 -12  -7   71.93    8.69
  -5  12   7   51.27    9.36
   5 -12  -6   24.96    4.30
  -5  12   6   20.42    4.76
   5 -12  -5    8.04    2.20
  -5  12   5   18.07    3.33
   5 -12  -4   22.11    4.02
  -5  12   4   26.12    4.20
   5 -12  -3   62.57    7.31
   5 -12  -2  102.85    7.64
  -5  12   2  120.49    9.02
   5 -12  -1   11.92    3.02
  -5  12   1   11.35    2.56
   5 -12   0   19.28    3.45
  -5  12   0   18.52    3.52
   5 -12   1   21.00    3.55
  -5  12  -1   21.48    4.02
   5 -12   2   18.99    3.29
  -5  12  -2   12.25    2.20
   5 -12   3   37.17    4.76
  -5  12  -3   32.96    5.36
   5 -12   4   31.61    5.26
  -5  12  -4   24.48    4.61
   5 -12   5   34.91    4.69
  -5  12  -5   33.61    6.29
   5 -12   6   14.85    4.06
   5 -12   7   12.94    3.90
   5 -11 -10   17.94    3.84
  -5  11  10   11.73    2.51
   5 -11  -9   99.81   10.23
  -5  11   9   71.48   10.10
   5 -11  -8   34.68    3.99
  -5  11   8   35.18    6.54
   5 -11  -7   25.34    4.11
  -5  11   7   21.79    4.43
   5 -11  -6   31.97    3.96
  -5  11   6   36.62    5.53
   5 -11  -5   49.96    4.55
  -5  11   5   53.81    6.84
   5 -11  -4   30.94    4.12
  -5  11   4   32.69    5.92
   5 -11  -3   37.52    4.60
   5 -11  -2   13.15    2.63
  -5  11   2   14.56    3.78
   5 -11  -1   63.33    5.05
  -5  11   1   64.69    9.23
   5 -11   0   74.33    5.11
  -5  11   0   76.13    9.66
   5 -11   1   18.61    2.98
  -5  11  -1   19.91    2.96
  -5  11  -2    2.86    0.90
   5 -11   3   64.92    5.27
  -5  11  -3   62.17    6.00
   5 -11   4   44.59    4.72
  -5  11  -4   40.31    7.66
   5 -11   5   12.21    3.48
  -5  11  -5   14.20    2.67
   5 -11   6   17.83    4.04
  -5  11  -6   14.48    3.46
   5 -11   7   15.07    3.57
   5 -11   8   24.43    4.19
   5 -11   9   27.06    4.81
   5 -10 -11   20.88    3.97
   5 -10 -11   21.85    3.85
  -5  10  11   21.70    4.97
   5 -10 -10   32.91    4.03
   5 -10 -10   35.88    3.63
  -5  10  10   29.34    6.05
   5 -10  -9   44.51    5.24
   5 -10  -9   42.17    5.22
  -5  10   9   41.10    6.00
   5 -10  -8   71.48   13.74
   5 -10  -8   63.53    7.13
  -5  10   8   66.12   10.36
   5 -10  -7   41.83    5.54
   5 -10  -7   38.63    4.94
  -5  10   7   40.49    6.02
   5 -10  -6   18.89    2.75
   5 -10  -6   16.51    1.90
  -5  10   6   17.94    3.60
   5 -10  -5    1.24    1.79
  -5  10   5    4.66    1.49
   5 -10  -4    6.41    1.99
  -5  10   4    8.37    1.88
   5 -10  -3   35.24    3.75
  -5  10   3   39.47    4.57
   5 -10  -2   30.38    3.75
  -5  10   2   29.22    4.69
   5 -10  -1   19.71    3.65
  -5  10   1   14.44    2.68
   5 -10   0   47.71    4.97
  -5  10   0   56.64    8.75
   5 -10   1   48.25    4.42
  -5  10  -1   46.92    7.25
   5 -10   2   64.55    7.13
  -5  10  -2   64.36    8.04
   5 -10   3    9.00    3.72
  -5  10  -3    1.09    1.15
   5 -10   4   37.35    3.84
  -5  10  -4   27.42    5.98
   5 -10   5   20.48    3.43
  -5  10  -5   12.52    3.03
   5 -10   6   83.94    5.50
  -5  10  -6   82.64    7.98
   5 -10   7   43.59    4.53
   5 -10   8   15.68    3.17
   5 -10   9  112.56   10.15
   5 -10  10   15.92    3.92
   5  -9 -12   16.60    3.68
   5  -9 -12   20.53    3.84
  -5   9  12   15.69    3.54
   5  -9 -11   46.69    5.49
   5  -9 -11   47.06    5.23
  -5   9  11   41.49    5.25
   5  -9 -10   90.06    6.92
   5  -9 -10   86.03    6.20
  -5   9  10   81.06    9.02
   5  -9  -9   85.00    5.58
   5  -9  -9   78.74    5.50
  -5   9   9   88.47    9.90
   5  -9  -8   65.63    4.73
   5  -9  -8   57.99    4.69
  -5   9   8   60.39    6.95
   5  -9  -7   24.18    2.32
   5  -9  -7   22.95    1.63
  -5   9   7   17.17    2.50
   5  -9  -6   21.25    3.41
   5  -9  -6   26.51    4.05
  -5   9   6   33.75    4.77
   5  -9  -5    5.48    2.58
   5  -9  -5    3.84    1.25
  -5   9   5    4.70    1.72
   5  -9  -4  264.42    9.89
   5  -9  -4  251.34    8.59
   5  -9  -3   18.03    3.20
   5  -9  -3   16.15    2.11
  -5   9   3   22.22    2.55
   5  -9  -2   32.83    3.86
   5  -9  -2   33.48    2.19
  -5   9   2   39.98    4.92
   5  -9  -1    9.20    1.87
   5  -9  -1    9.70    1.37
  -5   9   1    9.44    2.15
   5  -9   0  224.53    8.72
   5  -9   0  217.81    9.02
  -5   9   0  211.99   10.36
   5  -9   1   88.72    5.20
   5  -9   1   77.71    3.54
  -5   9  -1   80.88    4.99
   5  -9   2    8.14    2.76
   5  -9   2    4.51    0.75
  -5   9  -2    1.98    0.80
   5  -9   3   17.77    3.40
   5  -9   3   13.18    2.54
  -5   9  -3   18.82    3.86
   5  -9   4   34.18    4.69
   5  -9   4   22.40    3.82
  -5   9  -4   32.66    5.59
   5  -9   5  220.37   22.07
  -5   9  -5  197.17   11.04
   5  -9   6   57.98    5.25
  -5   9  -6   45.89    7.23
   5  -9   7    8.18    3.02
  -5   9  -7    7.84    1.82
   5  -9   8   27.37    3.95
   5  -9  10   78.08    7.23
   5  -9  10   86.03    7.30
   5  -9  11   42.09    4.99
   5  -9  12   36.04    5.46
   5  -8 -13   51.75    7.92
   5  -8 -13   50.77    6.25
  -5   8  13   46.72    5.89
   5  -8 -12   70.10    6.25
   5  -8 -12   59.66    6.24
   5  -8 -11   41.19    9.67
   5  -8 -11   45.89    4.30
  -5   8  11   45.54    7.24
   5  -8 -10  113.53   10.95
   5  -8 -10  116.64    4.05
  -5   8  10  106.15    8.05
   5  -8  -9   64.82    5.05
   5  -8  -9   70.81    5.11
  -5   8   9   69.19    9.79
   5  -8  -8   87.38    5.16
   5  -8  -8   81.40    4.14
  -5   8   8   95.27    7.44
   5  -8  -7   54.42    3.83
   5  -8  -7   49.44    6.45
  -5   8   7   51.21    5.94
   5  -8  -6  103.86    5.72
   5  -8  -6   95.93    7.34
  -5   8   6  102.77   11.58
   5  -8  -5   18.91    3.19
   5  -8  -5   25.76    2.07
  -5   8   5   28.55    3.98
   5  -8  -4  360.75   11.63
   5  -8  -4  385.05   11.50
   5  -8  -3  364.12    9.13
  -5   8   3  361.91   13.71
   5  -8  -2  102.64    6.47
   5  -8  -2   95.20    5.05
  -5   8   2   99.57    6.96
   5  -8  -1  551.17   12.31
   5  -8  -1  543.47   10.86
  -5   8   1  545.13   12.26
   5  -8   0  128.37   16.22
   5  -8   0  117.94    6.19
  -5   8   0   92.97    5.45
  -5   8   0  133.26   19.51
   5  -8   1   30.55    3.86
   5  -8   1   28.63    3.21
  -5   8  -1   22.79    2.02
  -5   8  -1   34.41    4.31
   5  -8   2    5.33    2.44
   5  -8   2    0.74    0.67
  -5   8  -2    2.61    2.01
   5  -8   3  388.83   12.76
   5  -8   3  398.00   11.89
  -5   8  -3  440.83   14.80
   5  -8   4  156.09    7.48
   5  -8   4  157.43    6.11
  -5   8  -4  172.95    7.31
   5  -8   5  213.26    8.52
   5  -8   5  205.27    7.71
  -5   8  -5  268.70   14.96
   5  -8   6   18.05    3.24
   5  -8   6   16.91    3.19
  -5   8  -6   24.03    4.41
   5  -8   7    8.00    1.75
  -5   8  -7    9.79    1.53
  -5   8  -7   11.51    2.88
   5  -8   8   13.79    2.30
  -5   8  -8   16.30    2.13
   5  -8   9   43.03    4.05
  -5   8  -9   48.28    3.85
   5  -8  10  150.55    7.32
  -5   8 -10  134.73    5.96
   5  -8  10  139.16    6.42
   5  -8  11   63.37    7.10
  -5   8 -11   60.77    6.33
   5  -8  12   13.11    3.17
   5  -7 -14   25.88    4.72
   5  -7 -14   20.69    3.81
  -5   7  14   26.19    4.65
   5  -7 -13   29.14    5.26
   5  -7 -13   16.38    2.87
  -5   7  13   24.28    3.23
   5  -7 -12   39.14    4.44
   5  -7 -12   33.82    4.30
  -5   7  12   34.75    3.89
   5  -7 -11   87.98    9.54
   5  -7 -11   86.52    4.82
  -5   7  11   92.51   11.26
   5  -7 -10  118.64    8.50
   5  -7 -10  102.93    9.20
  -5   7  10   92.17    6.20
   5  -7  -9  171.01   15.85
   5  -7  -9  166.52    6.44
  -5   7   9  158.34    6.27
   5  -7  -8  113.37    9.76
   5  -7  -8  100.76    4.94
  -5   7   8  110.96    5.66
   5  -7  -7   93.65    4.67
   5  -7  -7   92.51    5.99
  -5   7   7   94.29    4.46
   5  -7  -6   21.96    2.60
   5  -7  -6   29.00    3.68
  -5   7   6   22.47    2.73
   5  -7  -5    1.32    1.64
   5  -7  -5    4.28    1.60
  -5   7   5    4.38    1.86
   5  -7  -4  248.59   10.10
   5  -7  -4  245.71    9.36
  -5   7   4  235.87   10.34
   5  -7  -3 3231.06  448.56
   5  -7  -3 3139.54   62.49
  -5   7   3 3005.29   61.43
   5  -7  -2  268.52   10.92
   5  -7  -2  267.05   10.21
  -5   7   2  276.31   16.23
   5  -7  -1   27.24    3.06
   5  -7  -1   28.21    2.52
  -5   7   1   26.12    2.77
   5  -7   0    8.00    2.73
   5  -7   0    2.34    0.99
  -5   7   0    2.02    0.80
  -5   7   0    5.01    2.18
   5  -7   1   87.33    5.21
   5  -7   1   86.42    5.24
  -5   7  -1   72.24    3.79
  -5   7  -1  101.51    8.28
   5  -7   2  406.34    9.93
   5  -7   2  386.12    8.71
  -5   7  -2  390.79    9.68
   5  -7   3  720.81   16.03
   5  -7   3  672.45   14.81
  -5   7  -3  684.98   15.66
   5  -7   4  301.59   12.86
   5  -7   4  271.11   11.04
  -5   7  -4  313.09   12.90
   5  -7   5  244.61   10.97
   5  -7   5  249.49   12.46
  -5   7  -5  232.69    9.80
   5  -7   6  127.68    5.69
   5  -7   6  122.78    7.79
  -5   7  -6  141.02    8.14
   5  -7   7  109.15    5.80
   5  -7   7   93.56    7.30
  -5   7  -7  104.00    6.76
   5  -7   8    8.54    3.04
  -5   7  -8    4.02    1.08
  -5   7  -9   46.81    4.84
   5  -7  10   65.36    4.80
  -5   7 -10   48.48    3.99
   5  -7  10   54.50    4.52
   5  -7  11   73.04    5.72
  -5   7 -11   65.18    5.22
   5  -7  12   41.85    5.17
  -5   7 -12   30.96    4.78
   5  -7  13   42.86    4.56
  -5   7 -13   36.82    4.76
  -5   6  15   28.75    6.68
   5  -6 -15   25.10    4.30
  -5   6  15   25.86    4.63
  -5   6  14   41.67    6.81
   5  -6 -14   53.03    6.17
  -5   6  14   38.53    3.87
  -5   6  13   21.96    4.21
   5  -6 -13   28.22    3.59
  -5   6  13   18.22    2.75
  -5   6  12   34.21    6.04
   5  -6 -12   28.50    3.67
  -5   6  12   30.80    3.37
   5  -6 -11  213.17    8.44
  -5   6  11  215.08    8.58
   5  -6 -10   69.20    7.38
   5  -6 -10   62.94    3.99
  -5   6  10   62.56    3.72
   5  -6  -9  227.87    8.40
  -5   6   9  242.33    8.85
   5  -6  -8   70.89    3.63
   5  -6  -8   61.17    2.78
  -5   6   8   66.05    2.97
   5  -6  -7    2.64    1.55
   5  -6  -7    4.60    1.85
  -5   6   7    3.01    1.50
   5  -6  -6   13.56    2.36
  -5   6   6    8.16    1.87
   5  -6  -5  156.76    8.02
   5  -6  -4  620.24   14.51
  -5   6   4  609.36   14.60
   5  -6  -3 1030.12   19.64
  -5   6   3 1099.36   21.40
   5  -6  -2   97.60    4.77
  -5   6   2   92.15    4.74
   5  -6  -1    9.98    1.23
  -5   6   1   10.97    2.04
   5  -6   0  274.32   11.63
  -5   6   0  262.84   12.11
   5  -6   1  244.55   10.40
  -5   6  -1  233.15   10.40
   5  -6   2  189.74    8.48
  -5   6  -2  178.11    9.40
   5  -6   3  403.86   10.73
  -5   6  -3  438.67   10.83
   5  -6   4  227.42   12.36
  -5   6  -4  213.94    8.27
   5  -6   5  103.74    7.80
  -5   6  -5  113.36    8.36
   5  -6   6  187.68    9.33
  -5   6  -6  197.95    9.68
   5  -6   7   81.14    5.41
  -5   6  -7   83.61    3.52
   5  -6   8   20.82    2.93
   5  -6   9   24.94    3.74
  -5   6  -9   29.86    2.69
  -5   6 -10  117.23    5.43
   5  -6  10  100.02    6.48
   5  -6  11   34.59    4.60
  -5   6 -11   45.43    4.09
   5  -6  12   35.72    4.55
  -5   6 -12   28.17    3.66
   5  -6  13   28.24    5.06
  -5   6 -13   26.93    4.34
   5  -6  14   33.99    5.42
  -5   6 -14   27.26    4.26
  -5   5  16  103.53   13.98
   5  -5 -16  132.69    9.95
  -5   5  16  108.00    7.79
  -5   5  15   80.54   10.37
   5  -5 -15   98.26    8.90
  -5   5  15  106.70    9.18
  -5   5  14   18.14    3.63
   5  -5 -14   12.89    3.28
  -5   5  14   29.34    3.94
  -5   5  13   52.88    7.67
   5  -5 -13   54.45    4.93
  -5   5  13   46.40    4.27
  -5   5  12   90.37   10.20
   5  -5 -12   91.94    6.43
  -5   5  12   90.24    6.18
  -5   5  11  164.59   13.33
   5  -5 -11  140.30    6.53
  -5   5  11  150.55   18.72
  -5   5  10   83.78   11.19
   5  -5 -10   80.19    4.46
  -5   5  10   76.34    4.21
   5  -5  -9    5.09    2.45
  -5   5   9    3.67    1.78
   5  -5  -8  112.14    6.67
   5  -5  -8  110.80    6.26
  -5   5   8  119.24    6.76
   5  -5  -7  110.71    6.61
   5  -5  -7  109.79    6.47
  -5   5   7   92.30    7.18
   5  -5  -6  131.08   11.31
   5  -5  -6  115.17    6.08
  -5   5   6  127.18    6.87
   5  -5  -5  232.77   10.27
   5  -5  -5  273.95   11.76
   5  -5  -4  187.81    8.50
   5  -5  -4  187.73    8.20
  -5   5   4  196.17    8.87
   5  -5  -3   44.79    3.49
   5  -5  -3   42.79    3.06
  -5   5   3   43.75    3.10
   5  -5  -2   97.77    6.07
   5  -5  -2   94.26    5.93
  -5   5   2   96.82    5.94
   5  -5  -1   25.79    2.71
   5  -5  -1   20.57    1.67
  -5   5   1   18.93    1.92
   5  -5   0  171.40    7.19
   5  -5   0  169.90    6.71
  -5   5   0  176.45    7.14
   5  -5   1   26.15    2.39
   5  -5   1   29.92    2.11
  -5   5  -1   29.15    3.10
   5  -5   2  511.46   10.92
   5  -5   2  497.29   38.55
  -5   5  -2  503.53   10.53
   5  -5   3  228.49   10.23
   5  -5   3  209.05   11.55
  -5   5  -3  220.64    9.87
   5  -5   4   72.62    5.83
   5  -5   4   79.09    6.80
  -5   5  -4   74.07    6.12
   5  -5   5    9.70    1.84
   5  -5   5   11.16    1.71
  -5   5  -5    9.55    1.86
   5  -5   6   96.64   13.95
   5  -5   6   80.85    7.91
  -5   5  -6   83.12    7.65
   5  -5   7  110.75    6.44
   5  -5   7  109.56    7.54
  -5   5  -7  115.45    6.13
   5  -5   8  301.09   35.50
   5  -5   8  285.32   17.28
   5  -5   9   24.81    3.50
   5  -5   9   15.29    2.09
   5  -5  10  145.11    9.04
  -5   5 -10  127.82    7.84
   5  -5  10  113.02    6.61
   5  -5  11   88.51    5.59
  -5   5 -11   78.37    4.61
   5  -5  12   12.16    3.25
  -5   5 -12   10.60    1.87
   5  -5  13   73.10    7.44
  -5   5 -13   62.74    5.97
  -5   5 -14   53.66    6.35
  -5   4  16   20.19    4.33
   5  -4 -16   23.64    4.47
  -5   4  16   13.66    2.69
  -5   4  15   98.10    8.86
   5  -4 -15  105.25    5.29
  -5   4  15  107.22    5.27
  -5   4  14   24.37    4.35
   5  -4 -14   26.04    3.78
  -5   4  14   28.04    3.35
  -5   4  13   44.90    5.05
   5  -4 -13   39.33    4.13
  -5   4  13   45.48    3.99
  -5   4  12   72.36    7.34
   5  -4 -12   60.72    5.06
  -5   4  12   62.46    4.89
  -5   4  11  102.10    9.04
   5  -4 -11   93.27    5.12
  -5   4  11   92.29    4.93
  -5   4  10  130.20    7.82
   5  -4 -10  117.13    5.17
  -5   4  10  107.14    4.80
  -5   4   9    6.36    2.47
   5  -4  -9    7.46    2.64
  -5   4   9    1.43    1.36
  -5   4   8   20.83    3.80
   5  -4  -8   14.49    2.57
  -5   4   8   19.08    2.79
   5  -4  -7  394.46   47.27
   5  -4  -7  381.08   14.68
  -5   4   7  372.04   14.45
   5  -4  -6  196.06    8.80
   5  -4  -6  189.58    9.40
  -5   4   6  185.76    8.34
   5  -4  -5   99.87    7.36
   5  -4  -5  107.67    5.69
  -5   4   5  105.34    4.67
   5  -4  -4   81.64    5.12
   5  -4  -4   89.77    5.56
  -5   4   4   95.25    6.05
   5  -4  -3  386.38   12.28
   5  -4  -3  375.41   11.40
  -5   4   3  410.49   12.64
   5  -4  -2  118.31    6.39
   5  -4  -2  114.94    6.06
  -5   4   2  115.94    6.17
   5  -4  -1    4.11    1.65
   5  -4  -1    4.51    0.81
  -5   4   1    4.87    1.03
   5  -4   0  516.20   15.62
   5  -4   0  497.15   14.80
  -5   4   0  509.93   15.37
   5  -4   1  226.58    9.10
   5  -4   1  222.04    8.67
  -5   4  -1  220.45    8.81
   5  -4   2  925.14   17.02
   5  -4   2  918.26   16.52
  -5   4  -2  818.16   15.63
   5  -4   3  250.58    8.12
   5  -4   3  255.92    8.09
  -5   4  -3  248.34    7.77
   5  -4   4   44.03    3.84
   5  -4   4   57.67    5.17
  -5   4  -4   57.24    5.23
   5  -4   5   75.74    6.00
   5  -4   5   77.55    6.90
  -5   4  -5   72.67    5.79
   5  -4   6  104.16    6.07
   5  -4   6  117.03   10.32
  -5   4  -6  108.82    5.60
   5  -4   7  197.98    8.29
   5  -4   7  192.96    7.71
  -5   4  -7  191.87    7.43
   5  -4   8  194.50    7.98
   5  -4   8  219.83   13.46
   5  -4   9  117.09    6.28
   5  -4   9  112.40   10.39
   5  -4   9  119.79    5.44
   5  -4  10   11.55    2.55
  -5   4 -10   11.24    2.32
   5  -4  11  402.72   14.98
  -5   4 -11  381.20   13.91
   5  -4  12   78.54    6.09
  -5   4 -12   84.20    5.34
   5  -4  13   42.78    4.98
  -5   4 -13   48.52    9.87
   5  -4  14    4.73    1.88
  -5   4 -14    7.25    2.51
  -5   3  16   59.77    9.23
   5  -3 -16   71.71    8.41
  -5   3  16   62.63    7.32
  -5   3  15   42.75    5.27
   5  -3 -15   37.21    4.71
  -5   3  15   33.32    4.32
  -5   3  14   23.18    3.82
   5  -3 -14   16.60    2.74
  -5   3  14   17.47    3.29
  -5   3  13   26.72    4.23
   5  -3 -13   25.50    2.52
  -5   3  13   21.36    2.07
  -5   3  12  109.32    8.84
   5  -3 -12  105.95    5.25
  -5   3  12  101.47    4.91
  -5   3  11  417.48   14.41
   5  -3 -11  435.75   12.37
  -5   3  11  424.12   11.91
  -5   3  10  104.06    8.67
   5  -3 -10   88.93    5.53
  -5   3  10   89.98    5.37
  -5   3   9  237.73   10.01
   5  -3  -9  226.19    8.92
  -5   3   9  229.00    9.05
  -5   3   8   27.39    3.88
   5  -3  -8   17.87    2.06
  -5   3   8   20.17    2.33
  -5   3   7  137.88    6.77
   5  -3  -7  133.23    6.58
  -5   3   7  144.21    7.06
   5  -3  -6  371.79   11.21
   5  -3  -6  354.31   10.80
  -5   3   6  365.74   11.25
   5  -3  -5  495.89    9.56
   5  -3  -5  502.85   10.16
  -5   3   5  494.05    9.83
   5  -3  -4  255.36    9.97
   5  -3  -4  258.12   10.09
  -5   3   4  228.58    9.15
   5  -3  -3   13.07    1.39
   5  -3  -3   17.25    1.97
  -5   3   3   11.67    1.24
   5  -3  -2  287.13   11.13
   5  -3  -2  292.20   11.26
   5  -3  -1  810.65   10.31
   5  -3  -1  813.63   10.15
   5  -3   0  962.54   12.05
   5  -3   0  972.64   11.85
  -5   3   0  991.54   12.24
   5  -3   1   52.44    3.36
   5  -3   1   56.11    3.29
  -5   3  -1   59.68    3.44
   5  -3   2  260.20   10.36
   5  -3   2  254.74   10.08
  -5   3  -2  257.48    9.97
   5  -3   3 2019.84   35.41
   5  -3   3 2068.01  141.47
  -5   3  -3 1988.42   35.42
   5  -3   4  153.47    6.43
   5  -3   4  164.19    6.66
  -5   3  -4  155.68    6.42
   5  -3   4  150.22    5.94
   5  -3   5  187.56    8.47
   5  -3   5  193.19   10.87
  -5   3  -5  189.79    8.52
   5  -3   5  174.29    7.53
   5  -3   6  148.98    7.86
   5  -3   6  136.32    8.02
  -5   3  -6  144.19    7.24
   5  -3   6  135.63    6.78
   5  -3   7  145.28    8.40
   5  -3   7  157.99    9.00
   5  -3   7  126.93    8.17
   5  -3   8   47.99    4.74
   5  -3   8   49.35    6.16
   5  -3   8   41.05    3.44
   5  -3   9  244.17   12.33
   5  -3   9  199.82   24.17
   5  -3   9  215.41   10.27
   5  -3  10  203.01    8.11
   5  -3  11  435.00   16.07
  -5   3 -11  447.29   16.14
   5  -3  12   27.45    3.12
  -5   3 -12   27.26    3.05
  -5   3 -13    0.75    1.55
   5  -3  14    9.88    3.17
  -5   3 -14    6.86    2.08
   5  -3  15   39.25    6.01
  -5   3 -15   34.26    5.17
  -5   2  17   69.92    8.28
   5  -2 -17   76.25    6.42
  -5   2  17   80.68    6.16
  -5   2  16   83.65   13.23
   5  -2 -16   76.32    7.32
  -5   2  15   19.94    3.96
   5  -2 -15   27.44    5.92
  -5   2  15   17.13    2.37
   5  -2 -14    9.58    2.75
  -5   2  14    8.12    1.56
  -5   2  13   35.75    4.67
   5  -2 -13   42.66    4.48
  -5   2  13   40.13    3.41
  -5   2  12  317.52   13.13
   5  -2 -12  279.39   43.65
  -5   2  12  310.23    9.21
  -5   2  11  269.80   16.11
   5  -2 -11  240.71   12.05
  -5   2  11  235.68   11.78
  -5   2  10  434.89    9.97
   5  -2 -10  393.49    8.94
  -5   2  10  435.71    9.78
  -5   2   9   55.27    7.13
   5  -2  -9   42.13    4.03
  -5   2   9   45.81    4.03
  -5   2   8  153.80    9.53
   5  -2  -8  151.34    7.42
  -5   2   8  154.85    7.47
  -5   2   7  141.66    7.26
   5  -2  -7  152.07    7.34
  -5   2   7  144.88    7.10
  -5   2   6  148.03    6.25
   5  -2  -6  138.86    5.82
   5  -2  -5    4.98    1.00
   5  -2  -5    5.43    2.11
  -5   2   5    5.09    1.91
   5  -2  -4  832.71   10.44
   5  -2  -4  835.34   10.71
  -5   2   4  869.38   11.32
   5  -2  -3  749.81    9.41
   5  -2  -3  733.52   11.08
  -5   2   3  755.29   10.08
   5  -2  -2 1547.00   18.81
  -5   2   2 1617.60   20.10
   5  -2  -1  305.01   11.95
  -5   2   1  272.76   10.62
   5  -2   0  218.61    8.69
  -5   2   0  199.28    8.03
  -5   2   0  219.04    8.75
   5  -2   1  239.06    9.36
   5  -2   1  226.62    8.76
   5  -2   2  204.04    8.16
   5  -2   2  170.90    7.54
  -5   2  -2  189.76    7.42
   5  -2   2  170.75    6.73
   5  -2   3 1589.19   18.83
   5  -2   3 1680.27   19.90
  -5   2  -3 1686.50   19.30
   5  -2   3 1555.64   17.86
   5  -2   4  407.36   12.20
   5  -2   4  420.14   12.66
  -5   2  -4  381.86   11.35
   5  -2   4  384.97   11.27
   5  -2   5  136.08    6.59
   5  -2   5  146.66   10.03
  -5   2  -5  138.68    6.36
   5  -2   5  129.89    5.97
   5  -2   6  353.73   12.24
   5  -2   6  378.57   13.11
  -5   2  -6  346.74   11.45
   5  -2   6  331.45   11.20
   5  -2   7  360.50   14.01
   5  -2   7  356.74   13.78
   5  -2   7  321.69   12.05
   5  -2   8  234.43   10.08
   5  -2   8  248.77   14.68
   5  -2   8  205.33   25.13
   5  -2   8  219.03    8.65
   5  -2   9  239.83   12.02
   5  -2   9  235.83   13.47
   5  -2  10  477.77   13.48
   5  -2  11   58.87    4.96
  -5   2 -11   69.53    4.38
   5  -2  12   35.83    4.22
  -5   2 -12   31.21    3.33
   5  -2  13  156.66    7.69
  -5   2 -13  126.87    6.37
   5  -2  14  111.88    9.94
  -5   2 -14   97.69    8.77
   5  -2  15    6.52    2.65
  -5   2 -15   10.34    2.75
  -5   1  17   41.14    7.79
   5  -1 -17   46.16    6.74
  -5   1  17   47.49    6.87
  -5   1  16   53.34    7.81
   5  -1 -16   69.89    7.13
  -5   1  16   53.81    5.92
  -5   1  15   13.67    3.09
   5  -1 -15   17.46    4.02
  -5   1  15   10.44    1.78
  -5   1  14   44.80    4.95
   5  -1 -14   46.85    4.61
  -5   1  14   48.54    4.28
  -5   1  13  179.00   11.21
   5  -1 -13  143.02    8.75
  -5   1  13  171.96    7.37
  -5   1  12  667.93   22.47
   5  -1 -12  670.80   18.12
  -5   1  12  687.67   18.51
  -5   1  11   90.09    8.90
   5  -1 -11   74.37    3.79
  -5   1  11   75.87    3.66
  -5   1  10  820.30   17.87
   5  -1 -10  823.28   17.79
  -5   1  10  832.99   17.96
  -5   1   9  355.27   15.66
   5  -1  -9  327.08   12.78
  -5   1   9  361.34   14.10
  -5   1   8  113.45    8.62
   5  -1  -8   96.40    4.96
  -5   1   8   96.01    5.11
  -5   1   7  111.98    4.83
   5  -1  -7  113.07    5.09
  -5   1   7  109.91    5.07
  -5   1   6  312.45    9.47
   5  -1  -6  324.62    9.86
  -5   1   5  364.36   11.01
   5  -1  -5  355.00   10.92
  -5   1   5  376.00   11.64
   5  -1  -4 1527.46   18.12
  -5   1   4 1546.78   18.51
   5  -1  -3 1394.98   17.16
   5  -1  -3 1489.78   18.07
   5  -1  -3 1485.36   18.42
  -5   1   3 1498.55   19.15
   5  -1  -2    5.73    0.85
   5  -1  -2   10.89    0.97
   5  -1  -2    7.41    1.20
  -5   1   2    7.58    1.04
   5  -1  -1  293.20   11.44
  -5   1   1  298.32   11.54
   5  -1  -1  285.18   11.22
  -5   1   1  299.29   11.74
   5  -1   0  357.18    9.10
  -5   1   0  340.79   16.78
   5  -1   0  365.82    9.48
  -5   1   0  369.20    9.51
   5  -1   0  290.05   11.28
   5  -1   1  246.24    9.75
  -5   1  -1  227.05    8.87
   5  -1   1  254.05   10.10
  -5   1  -1  248.71    9.77
   5  -1   1  220.45    8.99
   5  -1   2  263.49   10.22
  -5   1  -2  242.16    9.31
  -5   1  -2  261.50   10.01
   5  -1   2  254.17    9.86
   5  -1   3   85.12    4.58
   5  -1   3   83.72    4.78
  -5   1  -3   84.25    4.37
   5  -1   3   84.57    4.61
   5  -1   4  402.70   11.99
   5  -1   4  401.16   12.52
  -5   1  -4  401.67   11.52
   5  -1   4  394.90   11.46
   5  -1   5  343.28   10.47
   5  -1   5  352.35   10.65
  -5   1  -5  338.31    9.71
   5  -1   5  326.21    9.54
   5  -1   6  461.56   15.73
   5  -1   6  447.22   15.19
  -5   1  -6  418.44   13.66
   5  -1   6  424.86   13.87
   5  -1   7  408.26   10.19
   5  -1   7  405.37   10.09
   5  -1   8  233.61   10.02
   5  -1   8  253.00   16.86
   5  -1   9  192.24    7.70
   5  -1   9  197.84   23.85
   5  -1  10  146.73    7.14
   5  -1  10  139.72    9.12
   5  -1  11  142.16    8.70
  -5   1 -11  127.53    7.86
   5  -1  12  182.31    6.62
  -5   1 -12  155.82    5.31
   5  -1  13  145.04    7.05
  -5   1 -13  125.00    5.96
   5  -1  14  122.70   10.72
  -5   1 -14  119.79   10.50
   5  -1  15    9.24    2.68
  -5   1 -15    5.07    2.01
  -5   0  17   10.81    3.18
   5   0 -17   15.88    3.41
  -5   0  16   38.54    6.51
   5   0 -16   41.80    4.62
  -5   0  16   42.18    4.55
  -5   0  15   41.28    6.75
   5   0 -15   39.54    4.85
  -5   0  15   41.11    4.78
  -5   0  14   88.53   10.27
  -5   0  14   90.37    5.12
  -5   0  13  240.76   14.39
  -5   0  13  230.53   10.21
  -5   0  12  842.38  131.67
  -5   0  12  835.36   22.17
  -5   0  11  688.42   21.17
   5   0 -11  638.16   13.57
  -5   0  11  635.77   14.89
  -5   0  10  103.99    6.33
   5   0 -10  106.44    6.39
  -5   0  10  132.22   12.01
  -5   0   9 1349.22   31.96
   5   0  -9 1370.87   31.31
  -5   0   9 1363.16   31.24
  -5   0   8   66.60    7.18
   5   0  -8   55.39    4.60
  -5   0   8   54.38    4.65
  -5   0   7  131.64    5.85
   5   0  -7  132.23    5.78
  -5   0   7  125.44    5.47
  -5   0   6 1788.65   21.10
   5   0  -6 1789.29   21.19
  -5   0   6 1844.32   22.39
  -5   0   5 1607.87   18.68
   5   0  -4  541.96   13.63
   5   0  -4  572.25   14.58
   5   0  -4  566.63   16.91
  -5   0   4  587.70   15.11
   5   0  -3  583.46   14.47
   5   0  -3  616.46   15.29
   5   0  -3  505.25   13.37
  -5   0   3  616.81   15.71
   5   0  -2  118.61    4.81
   5   0  -2  117.05    4.77
   5   0  -2  106.98    5.76
   5   0  -1  129.36    5.19
  -5   0   1  136.63    5.41
   5   0  -1  134.31    5.58
  -5   0   1  133.64    5.64
   5   0  -1  122.57    5.07
   5   0   0   19.24    1.33
  -5   0   0   20.44    1.20
   5   0   0   20.96    1.78
  -5   0   0   22.60    1.75
   5   0   0   18.89    1.23
   5   0   1    7.94    1.07
  -5   0  -1    3.32    0.55
   5   0   1    4.15    0.88
  -5   0  -1    7.29    0.94
   5   0   1    1.47    0.64
   5   0   2   47.18    2.81
  -5   0  -2   41.03    2.31
   5   0   2   51.04    4.01
  -5   0  -2   45.10    2.49
   5   0   2   39.15    2.21
   5   0   3  326.62    9.94
  -5   0  -3  301.39   11.49
   5   0   3  333.63   10.32
  -5   0  -3  327.15    9.72
   5   0   3  304.27   11.75
   5   0   4  160.51    6.50
   5   0   4  159.97    7.65
  -5   0  -4  160.91    6.14
   5   0   4  149.69    5.80
   5   0   5   31.93    2.42
   5   0   5   36.75    4.30
  -5   0  -5   31.26    1.89
   5   0   5   29.55    1.79
   5   0   6   61.99    4.81
   5   0   6   76.59    8.15
   5   0   7  170.09    7.21
   5   0   7  200.11   13.89
   5   0   8    7.86    2.68
   5   0   8    5.13    1.41
   5   0   9   20.16    3.09
   5   0   9   28.09    3.15
   5   0  10  211.76    8.02
   5   0  10  215.57   12.61
   5   0  11  154.93    6.89
  -5   0 -11  158.08    6.97
   5   0  12   74.82    4.88
  -5   0 -12   63.93    4.48
   5   0  13  112.16    8.12
  -5   0 -13  103.64    7.44
   5   0  14  113.37    9.96
  -5   0 -14  109.46    9.50
   5   0  15   13.32    3.11
  -5   0 -15   11.34    2.82
  -5  -1  17   78.57   21.51
   5   1 -17  100.20    9.69
  -5  -1  17   77.97    9.00
  -5  -1  16   16.28    3.15
   5   1 -16   21.72    4.30
  -5  -1  16   19.54    3.24
  -5  -1  15   60.16    7.80
   5   1 -15   59.86    6.42
  -5  -1  15   53.64    4.68
  -5  -1  14   59.15    6.95
   5   1 -14   59.04    5.06
  -5  -1  14   57.99    4.92
  -5  -1  13  149.32    9.96
   5   1 -13  144.94    8.88
  -5  -1  13  135.04    8.25
  -5  -1  12  306.66   12.03
   5   1 -12  287.66   44.91
  -5  -1  12  282.88   44.17
  -5  -1  11  580.80   15.15
   5   1 -11  577.36   12.53
  -5  -1  11  581.00   12.59
  -5  -1  10   52.23    6.17
   5   1 -10   45.21    3.95
  -5  -1  10   52.31    4.59
  -5  -1   9  173.27    7.21
   5   1  -9  182.89    7.95
  -5  -1   9  162.96    8.81
  -5  -1   8  139.80    8.46
   5   1  -8  139.10    6.73
  -5  -1   8  135.19    6.68
  -5  -1   7  415.49   13.01
   5   1  -7  403.46   12.08
  -5  -1   6  844.27   15.29
   5   1  -6  750.63   13.43
  -5  -1   6  868.14   17.81
  -5  -1   5  579.72   17.25
   5   1  -5  547.99   16.12
  -5  -1   5  585.36   17.77
  -5  -1   4  646.55    7.92
   5   1  -4  623.64   18.32
  -5  -1   4  663.08    9.02
   5   1  -3 1166.32   13.91
   5   1  -3 1230.11   14.69
  -5  -1   3 1225.34   15.62
   5   1  -2  564.80   13.78
   5   1  -2  568.98   13.91
   5   1  -1  231.77    8.92
  -5  -1   1  233.27    9.32
   5   1   0  105.26    5.31
  -5  -1   0   96.67    4.05
   5   1   0   84.07    3.83
   5   1   0   88.39    3.96
   5   1   1  119.30    4.78
  -5  -1  -1  113.45    4.52
   5   1   1  122.24    5.24
  -5  -1  -1  123.25    5.19
   5   1   1  112.08    4.60
   5   1   2  295.39   11.24
  -5  -1  -2  290.70   11.02
   5   1   2  306.42   11.87
  -5  -1  -2  318.78    9.77
   5   1   2  280.85   10.68
   5   1   3  408.85   12.19
  -5  -1  -3  392.39   11.68
   5   1   3  408.54   13.03
  -5  -1  -3  392.28   11.58
   5   1   3  388.11   11.45
   5   1   4  359.56   10.64
   5   1   4  361.79   11.32
  -5  -1  -4  344.96   10.02
   5   1   4  339.80    9.75
   5   1   5   54.57    4.10
   5   1   5   65.49    7.88
  -5  -1  -5   53.28    3.70
   5   1   6   48.46    3.96
   5   1   6   44.08    4.70
   5   1   7   11.01    1.75
   5   1   7   11.57    1.96
   5   1   8   10.40    2.38
   5   1   8    4.34    1.11
   5   1   9    3.24    1.02
   5   1   9    3.69    1.24
   5   1  10  201.57    7.77
   5   1  10  194.76   12.97
   5   1  11   97.37    6.47
  -5  -1 -11  104.25    7.03
   5   1  12  118.80    4.29
  -5  -1 -12  121.61    4.35
   5   1  13   86.59    9.80
  -5  -1 -13   91.04    6.73
   5   1  14    3.78    2.07
  -5  -1 -14    1.93    1.79
  -5  -2  17  101.93   10.28
   5   2 -17  114.20    8.48
  -5  -2  17  117.41    8.54
  -5  -2  16   95.14   18.50
   5   2 -16   87.73    8.12
  -5  -2  16   94.79   17.80
  -5  -2  15   46.67    5.99
   5   2 -15   55.21    5.04
  -5  -2  15   42.87    5.08
  -5  -2  14   52.19    5.75
   5   2 -14   39.14    3.98
  -5  -2  14   49.30    4.26
  -5  -2  13  104.70    6.52
   5   2 -13  109.13    7.06
  -5  -2  13  111.05    6.98
  -5  -2  12   67.06    5.79
   5   2 -12   82.61    4.68
  -5  -2  12   83.72    4.76
  -5  -2  11   16.39    3.11
   5   2 -11   16.00    2.69
  -5  -2  11   17.18    2.70
  -5  -2  10   63.42    5.72
   5   2 -10   63.73    5.31
  -5  -2  10   65.80    5.49
  -5  -2   9   16.11    2.53
   5   2  -9   12.73    2.27
  -5  -2   9   13.33    2.24
  -5  -2   8  116.68    7.71
   5   2  -8   97.20    5.16
  -5  -2   8  106.86    5.50
  -5  -2   7  210.32    9.60
   5   2  -7  209.81    9.16
  -5  -2   6  525.34    9.82
   5   2  -6  510.09    9.34
   5   2  -6  515.52   11.44
  -5  -2   6  526.02   10.88
  -5  -2   5  269.93   10.64
   5   2  -5  252.62    9.62
   5   2  -5  258.75   10.13
  -5  -2   5  278.20   11.21
  -5  -2   4   43.13    2.47
   5   2  -4   42.38    2.29
   5   2  -4   42.85    2.71
  -5  -2   4   38.53    2.65
   5   2  -3  911.31   10.29
   5   2  -3  948.77   10.91
  -5  -2   3  945.03   12.61
   5   2  -2  966.02   10.70
   5   2  -2  987.85   10.94
  -5  -2   2 1019.82   13.23
   5   2  -1  593.00   14.29
   5   2  -1  598.63   14.43
  -5  -2   1  598.38   16.00
   5   2   0  480.00   13.90
  -5  -2   0  477.57   13.83
  -5  -2   0  493.75   14.77
   5   2   0  429.48   12.97
   5   2   1  221.18    8.36
  -5  -2  -1  212.92    8.03
   5   2   1  216.37    8.54
  -5  -2  -1  227.09    8.94
   5   2   1  205.34    7.97
   5   2   2 3234.01  180.87
  -5  -2  -2 3233.29  180.83
   5   2   2 3269.49  183.06
  -5  -2  -2 3134.08   34.96
   5   2   2 3185.13   35.39
   5   2   3   40.23    2.63
  -5  -2  -3   38.78    2.49
   5   2   3   44.48    3.53
  -5  -2  -3   42.47    2.71
   5   2   3   41.77    2.63
   5   2   4 1063.01   18.78
  -5  -2  -4 1036.71   17.98
   5   2   5  448.25   15.01
  -5  -2  -5  407.90   13.27
  -5  -2  -5  420.66   13.72
   5   2   6  167.19    8.55
   5   2   7   91.75    7.01
   5   2   8  156.41    7.86
   5   2   9   28.28    2.43
   5   2   9   27.70    3.39
   5   2  10  231.97    8.44
   5   2  11  221.72    8.67
  -5  -2 -11  204.50    8.14
   5   2  12   36.74    5.61
  -5  -2 -12   30.54    4.27
   5   2  13    8.06    2.34
  -5  -2 -13    7.63    2.57
   5   2  14   13.70    3.00
  -5  -2 -14    8.23    2.10
  -5  -3  17   14.20    3.47
   5   3 -17   13.62    2.91
  -5  -3  17   12.60    2.72
  -5  -3  16  185.34   17.48
   5   3 -16  209.83   17.56
  -5  -3  16  211.34   17.57
  -5  -3  15   50.54    6.17
   5   3 -15   59.58    5.37
  -5  -3  15   60.43    5.43
  -5  -3  14   66.96    5.43
   5   3 -14   64.57    4.20
  -5  -3  14   66.61    4.44
  -5  -3  13  121.28    9.42
   5   3 -13  113.34    7.03
  -5  -3  13  112.81    9.79
  -5  -3  12   39.43    5.64
   5   3 -12   40.53    4.76
  -5  -3  12   38.68    4.72
  -5  -3  11   15.19    2.45
   5   3 -11   11.76    2.50
  -5  -3  11    8.56    1.85
  -5  -3  10    1.59    0.97
   5   3 -10    3.57    1.55
  -5  -3  10    4.92    2.39
  -5  -3   9  136.80    8.37
   5   3  -9  139.88    8.08
  -5  -3   9  154.39    9.02
  -5  -3   8   51.03    4.32
   5   3  -8   67.48    9.72
  -5  -3   8   62.36    5.67
  -5  -3   7   96.28    4.80
   5   3  -7  103.26    5.11
  -5  -3   7   95.89    5.14
  -5  -3   6  774.09   14.25
   5   3  -6  748.20   13.31
   5   3  -6  798.16   14.70
  -5  -3   6  813.78   15.64
  -5  -3   5   24.67    2.56
   5   3  -5   21.04    1.46
   5   3  -5   25.02    2.41
  -5  -3   5   19.40    2.25
  -5  -3   4  123.12    6.19
   5   3  -4  125.81    6.26
   5   3  -4  127.61    6.67
  -5  -3   4  140.01    8.44
   5   3  -3   33.03    1.69
   5   3  -3   37.40    2.39
   5   3  -3   34.94    2.47
  -5  -3   3   41.93    4.10
   5   3  -2   24.74    1.93
  -5  -3   2   25.36    2.21
   5   3  -1  290.67   11.23
  -5  -3   1  298.82   11.64
   5   3   0 2086.31   24.09
  -5  -3   0 2049.17   23.64
   5   3   1   65.51    3.36
  -5  -3  -1   64.19    3.24
   5   3   1   72.14    4.39
  -5  -3  -1   66.78    3.87
   5   3   1   62.48    3.44
   5   3   2 1338.10   23.07
  -5  -3  -2 1344.61   23.16
   5   3   2 1360.95   25.12
  -5  -3  -2 1381.53   24.23
   5   3   3 1170.37   20.48
  -5  -3  -3 1146.00   19.96
   5   3   3 1151.22   20.65
  -5  -3  -3 1155.46   20.27
   5   3   4  166.57    7.39
  -5  -3  -4  159.67    7.25
   5   3   4  179.27    7.97
  -5  -3  -4  152.79    6.88
  -5  -3  -4  165.58    7.29
   5   3   5  337.14   13.37
   5   3   5  364.45   14.09
  -5  -3  -5  317.71   11.88
  -5  -3  -5  353.16   13.12
   5   3   6  178.58   10.46
   5   3   6  187.08   26.51
  -5  -3  -6  185.29   25.74
  -5  -3  -6  167.81    8.90
   5   3   7  200.35   24.81
   5   3   7  214.98   10.81
   5   3   8  314.33    9.84
   5   3   8  301.27   36.62
   5   3   9  513.05   14.15
   5   3   9  502.95   14.07
   5   3  10  161.68   12.32
   5   3  11   42.25    5.69
  -5  -3 -11   42.02    5.46
   5   3  12   15.23    5.39
  -5  -3 -12   11.58    2.02
  -5  -3 -13   45.57    5.18
   5   3  14   25.04    5.21
  -5  -3 -14   20.76    3.96
  -5  -4  16   16.88    3.50
   5   4 -16   15.61    3.25
  -5  -4  16   16.87    3.51
  -5  -4  15   39.39    5.55
   5   4 -15   58.52    6.31
  -5  -4  15   38.62    4.54
  -5  -4  14  100.05    8.14
   5   4 -14   94.11    5.74
  -5  -4  14   95.93    9.37
  -5  -4  13  170.38   11.68
   5   4 -13  168.77    7.38
  -5  -4  13  175.30   17.13
  -5  -4  12   74.38    6.21
   5   4 -12   81.60    4.81
  -5  -4  12   76.19    4.36
  -5  -4  11  106.03   18.66
   5   4 -11  109.87    5.55
  -5  -4  11   99.18    5.62
  -5  -4  10  188.67   10.30
   5   4 -10  178.32    7.09
  -5  -4  10  175.22    7.53
  -5  -4   9   81.11    8.76
   5   4  -9   89.93    7.13
  -5  -4   9   93.11    5.80
  -5  -4   8   18.51    3.19
   5   4  -8   20.08    2.87
  -5  -4   8   13.74    2.54
  -5  -4   7  221.75    9.27
   5   4  -7  215.91    9.28
  -5  -4   7  240.11   15.32
  -5  -4   6 1473.22   27.39
   5   4  -6 1444.97   26.71
   5   4  -6 1524.33   28.66
  -5  -4   6 1391.21   26.95
  -5  -4   5  479.23    8.71
   5   4  -5  476.01    8.56
   5   4  -5  491.48    9.46
  -5  -4   5  488.38   10.07
  -5  -4   4    2.51    0.42
   5   4  -4    4.29    0.82
   5   4  -4    0.68    1.11
  -5  -4   4    4.44    1.24
   5   4  -3   75.08    4.60
  -5  -4   3   80.03    5.40
   5   4  -2  647.41   11.96
  -5  -4   2  650.86   12.45
   5   4  -1  556.08   10.41
  -5  -4   1  555.38   10.78
   5   4   0  404.93   11.99
  -5  -4   0  385.78   11.59
  -5  -4  -1 1039.12   17.78
  -5  -4  -1 1085.33   18.56
   5   4   1 1099.86   19.79
  -5  -4  -1 1084.02   19.40
   5   4   2  241.35    7.33
  -5  -4  -2  233.97    6.79
   5   4   2  240.63    7.62
  -5  -4  -2  241.43    7.43
   5   4   3 1534.55   28.49
  -5  -4  -3 1496.14   27.58
   5   4   3 1595.84   30.24
  -5  -4  -3 1502.22   27.97
   5   4   4  208.39    8.33
   5   4   4  207.72    8.52
  -5  -4  -4  186.10    7.24
  -5  -4  -4  207.48    8.33
   5   4   5  133.21    7.47
   5   4   5  130.18    7.39
  -5  -4  -5  115.80    6.29
  -5  -4  -5  123.49    6.97
   5   4   6    1.34    0.92
   5   4   6    2.30    1.00
  -5  -4  -6    0.61    0.59
  -5  -4  -6    3.13    1.01
   5   4   7  220.48   10.90
   5   4   7  200.27   23.68
   5   4   8  402.80   12.37
   5   4   8  403.91   11.88
   5   4   9  373.02   11.65
   5   4   9  352.28   11.02
   5   4  10   73.36    9.53
   5   4  11   34.29    4.72
  -5  -4 -11   35.03    4.16
   5   4  12   23.63    4.51
  -5  -4 -12   23.73    3.95
   5   4  13   68.81   10.70
  -5  -4 -13   85.95    7.97
  -5  -5  16    9.85    2.36
   5   5 -16   11.25    2.53
  -5  -5  16    7.17    2.34
  -5  -5  15   43.75    5.84
   5   5 -15   46.85    5.24
  -5  -5  15   39.08    8.68
  -5  -5  14   53.52   11.36
   5   5 -14   49.27    4.66
  -5  -5  14   48.15    5.28
  -5  -5  13  185.98    8.11
   5   5 -13  188.41    6.05
  -5  -5  13  205.57    6.83
  -5  -5  12  172.73   13.90
   5   5 -12  196.00    8.18
  -5  -5  12  192.95    8.51
  -5  -5  11   48.00    3.72
   5   5 -11   43.23    6.13
  -5  -5  11   46.41    3.73
  -5  -5  10  574.37   15.20
   5   5 -10  574.17   15.39
  -5  -5  10  592.98   16.53
  -5  -5   9  183.86   11.28
   5   5  -9  167.61    8.44
  -5  -5   9  154.58    9.20
  -5  -5   8   52.68    4.19
   5   5  -8   47.88    4.01
  -5  -5   7  218.21    8.20
   5   5  -7  227.09    8.73
  -5  -5   7  215.91    8.99
  -5  -5   6  427.61    9.89
   5   5  -6  430.86    9.97
   5   5  -6  475.60   11.38
  -5  -5   6  467.73   11.92
  -5  -5   5  427.57   14.06
   5   5  -5  419.77   13.81
   5   5  -5  440.76   14.87
  -5  -5   5  449.27   15.66
  -5  -5   4  138.20    6.25
   5   5  -4  135.03    6.00
   5   5  -4  144.38    6.82
  -5  -5   4  142.01    7.13
   5   5  -3 1562.21   29.17
  -5  -5   3 1593.35   30.34
   5   5  -2  932.73   17.82
  -5  -5   2  926.28   18.22
   5   5  -1  278.65   11.86
  -5  -5   1  290.43   10.27
   5   5   0  133.79    6.42
  -5  -5   0  130.39    6.43
  -5  -5  -1  240.02    9.93
  -5  -5  -1  240.33    9.95
   5   5   1  242.15   10.47
  -5  -5  -1  255.01   11.17
  -5  -5  -2  280.98   11.68
   5   5   2  295.28   10.31
  -5  -5  -2  275.07   11.88
   5   5   3  437.42   10.49
  -5  -5  -3  439.98   10.12
   5   5   3  468.23   13.72
  -5  -5  -3  469.95   11.22
   5   5   4  418.14    9.40
   5   5   4  408.44    9.64
  -5  -5  -4  428.67    9.31
   5   5   5   70.06    8.92
   5   5   5   79.26    6.82
  -5  -5  -5   56.41    4.93
  -5  -5  -5   78.29    4.31
   5   5   6    1.18    1.00
   5   5   6    2.85    0.90
   5   5   7   92.44    4.89
   5   5   7   95.07    7.54
   5   5   8  139.12    8.79
   5   5   8  148.62   19.98
   5   5   9  117.72    8.86
   5   5  10  135.79    4.87
  -5  -5 -10  153.64    5.42
   5   5  11   28.16    4.55
  -5  -5 -11   34.32    3.89
   5   5  12   12.52    3.33
  -5  -5 -12    9.99    2.70
   5   5  13   41.95    8.07
  -5  -5 -13   65.04    9.15
  -5  -6  16  119.94   10.20
   5   6 -16  141.83    9.97
  -5  -6  16  134.61   12.94
  -5  -6  15  120.77   15.64
   5   6 -15  135.61   11.48
  -5  -6  15  125.16   11.00
  -5  -6  14   82.28   10.45
   5   6 -14   97.23    4.65
  -5  -6  14  101.09    5.49
  -5  -6  13   72.68    6.10
   5   6 -13   78.14    8.18
  -5  -6  13   78.78    6.45
  -5  -6  12  174.59    7.44
  -5  -6  12  175.51    6.03
  -5  -6  11  115.36    6.99
   5   6 -11  106.81   12.05
  -5  -6  11  110.62    7.39
  -5  -6  10  495.12   14.55
   5   6 -10  522.92   15.45
  -5  -6  10  496.94   15.40
  -5  -6   9  846.01  131.39
   5   6  -9  806.01   22.02
  -5  -6   9  788.70   22.07
   5   6  -8   96.50    3.98
  -5  -6   7    7.23    1.70
   5   6  -7    2.88    1.25
  -5  -6   7    3.56    2.05
  -5  -6   6   59.32    4.49
   5   6  -6   59.46    4.51
   5   6  -6   70.41    5.54
  -5  -6   6   70.34    6.16
  -5  -6   5  369.35    7.72
   5   6  -5  355.17    7.40
   5   6  -5  395.17    8.74
  -5  -6   5  377.77    9.33
  -5  -6   4  820.88   18.27
   5   6  -4  826.59   18.37
   5   6  -4  862.74   19.74
  -5  -6   4  901.66   21.32
  -5  -6   3  487.49   10.82
  -5  -6   3  484.75   10.76
   5   6  -3  557.23   13.09
  -5  -6   3  541.85   13.39
   5   6  -2  359.35   13.69
  -5  -6   2  314.91   12.41
   5   6  -1   97.30    5.17
  -5  -6   1   96.57    5.40
  -5  -6   0  100.70    4.89
  -5  -6   0  102.39    4.98
   5   6   0  107.85    5.67
  -5  -6   0  114.51    6.32
  -5  -6  -1   31.64    2.51
  -5  -6  -1   36.21    2.93
   5   6   1   48.19    5.49
  -5  -6  -1   36.08    3.43
  -5  -6  -2   83.52    6.13
  -5  -6  -2   97.35   14.07
   5   6   2   93.67    7.88
  -5  -6  -2   82.89    6.53
  -5  -6  -3  125.95    6.84
  -5  -6  -3  154.79    8.49
   5   6   3  145.03    9.30
  -5  -6  -3  141.56    8.91
   5   6   4  424.65    9.11
   5   6   4  415.53   10.71
  -5  -6  -4  396.08    8.42
   5   6   5  371.55   11.40
   5   6   5  405.56   12.37
  -5  -6  -5  399.18   11.85
   5   6   6   66.00    5.06
   5   6   6   64.76    7.86
  -5  -6  -6   63.55    3.20
   5   6   7   26.42    4.00
   5   6   7   32.01    4.88
   5   6   8  214.43    9.10
   5   6   8  200.38   10.48
   5   6   9   44.93    5.68
  -5  -6  -9   46.40    4.01
   5   6  10   52.94    9.39
  -5  -6 -10   60.21    5.38
   5   6  11   41.56    6.60
  -5  -6 -11   53.75    6.06
   5   6  12   19.72    4.61
  -5  -6 -12   27.89    4.91
  -5  -7  15  116.24   15.67
   5   7 -15  177.35   12.15
  -5  -7  15  171.83   12.12
  -5  -7  14  188.45   15.72
   5   7 -14  141.09   17.65
  -5  -7  14  186.30   15.78
  -5  -7  13   60.66    5.14
   5   7 -13   70.80    6.88
  -5  -7  13   63.87    6.15
   5   7 -12   85.09    5.85
  -5  -7  12   74.82    6.16
  -5  -7  11  176.32   16.99
   5   7 -11  183.02   13.60
  -5  -7  11  185.99    8.78
  -5  -7  10  349.94   14.64
   5   7 -10  356.95   14.91
  -5  -7  10  360.34   15.73
  -5  -7   9  513.02   14.93
   5   7  -9  518.46   15.16
  -5  -7   9  518.91   15.87
  -5  -7   8   22.64    1.84
   5   7  -8   22.84    2.31
  -5  -7   8   15.61    2.64
  -5  -7   7   15.33    2.15
   5   7  -7   21.05    2.98
  -5  -7   7   18.86    3.60
   5   7  -6  176.59    8.48
  -5  -7   6  191.10    9.77
  -5  -7   5  143.28    6.75
   5   7  -5  126.39    6.46
   5   7  -5  144.07    6.97
  -5  -7   5  163.70    8.89
  -5  -7   4   98.59    5.07
   5   7  -4  101.02    5.41
  -5  -7   4  102.47    6.40
  -5  -7   3  187.38   26.04
  -5  -7   3  197.22    7.16
   5   7  -3  204.18    7.74
  -5  -7   3  236.20   10.00
  -5  -7   2   86.63    6.36
  -5  -7   2   89.58    6.50
   5   7  -2   91.28    6.83
  -5  -7   2   90.81    7.23
  -5  -7   1    1.89    0.59
  -5  -7   1    1.89    0.63
   5   7  -1    2.34    0.79
  -5  -7   1    0.56    1.60
  -5  -7   0   20.11    2.48
  -5  -7   0   21.32    2.66
   5   7   0   27.43    4.18
  -5  -7   0   32.10    4.96
  -5  -7  -1  396.64    7.81
   5   7   1  420.08    9.27
  -5  -7  -1  424.75    9.85
  -5  -7  -2    0.28    0.74
   5   7   2    0.28    0.92
  -5  -7  -2    4.01    2.30
   5   7   3   92.31    3.95
  -5  -7  -3   92.39    4.10
  -5  -7  -4  347.16    9.48
   5   7   4  349.54   12.01
  -5  -7  -4  347.21   10.22
   5   7   5  277.14    9.86
  -5  -7  -5  279.06    9.91
   5   7   6  150.52    6.40
   5   7   6  142.53   10.56
  -5  -7  -6  142.63    8.39
   5   7   7   53.40    6.54
   5   7   7   43.00    6.84
   5   7   8  237.88    6.63
   5   7   9   69.42   10.39
  -5  -7  -9  109.89    7.87
   5   7  10   28.42    5.53
  -5  -7 -10   43.83    4.84
   5   7  11   23.73    4.92
  -5  -7 -11   37.40   10.07
  -5  -8  14   81.24    7.86
   5   8 -14   62.21   11.88
  -5  -8  14   96.18    9.80
  -5  -8  13  143.72   12.18
   5   8 -13  133.49   14.69
  -5  -8  13  155.61   13.38
  -5  -8  12   88.12    6.30
   5   8 -12   80.88    8.43
  -5  -8  12   92.90    7.59
  -5  -8  11   54.35    4.48
   5   8 -11   50.67    4.09
  -5  -8  11   61.32    5.47
  -5  -8  10   93.90   11.33
   5   8 -10   92.80   11.13
  -5  -8  10   96.79    4.30
  -5  -8   9  132.65    5.59
   5   8  -9  145.80    6.30
  -5  -8   9  137.70    6.97
  -5  -8   8   64.84    6.62
   5   8  -8   64.36    6.57
  -5  -8   8   79.38    5.03
  -5  -8   7  126.17    5.30
   5   8  -7  136.42    5.76
  -5  -8   7  145.39   18.38
  -5  -8   6    5.27    1.01
   5   8  -6   10.25    1.65
  -5  -8   6    8.60    2.48
  -5  -8   5  327.59    8.58
   5   8  -5  348.93    9.37
  -5  -8   5  333.25    9.96
  -5  -8   4  115.51    4.11
   5   8  -4  116.94    4.37
  -5  -8   4  121.57    5.72
  -5  -8   3   14.98    1.97
   5   8  -3   14.79    2.35
  -5  -8   3   14.61    2.89
  -5  -8   2   28.26    1.00
   5   8  -2   36.54    3.15
  -5  -8   2   40.53    2.84
  -5  -8   1   10.17    1.41
   5   8  -1   14.83    2.55
  -5  -8   1    8.77    2.23
  -5  -8   0   33.90    1.22
   5   8   0   36.57    3.83
  -5  -8   0   39.75    2.81
  -5  -8  -1  251.91   11.96
   5   8   1  247.76   12.55
  -5  -8  -1  267.60   13.34
  -5  -8  -2   84.99    3.81
   5   8   2  100.30    8.41
  -5  -8  -2   89.41    4.55
  -5  -8  -3    0.74    0.76
   5   8   3    3.02    1.17
  -5  -8  -3    2.67    1.70
  -5  -8  -4  111.96    7.15
   5   8   4  115.43    5.70
  -5  -8  -4  106.99    4.97
  -5  -8  -5   80.33    5.69
   5   8   5   73.00    6.51
  -5  -8  -5   84.16    4.30
  -5  -8  -6   50.64    6.18
   5   8   6   51.56    6.94
  -5  -8  -6   51.01    3.75
  -5  -8  -7   88.52    6.30
   5   8   8  117.14    8.59
  -5  -8  -8  150.81    6.93
  -5  -8  -9   92.14   18.43
  -5  -8 -10   31.69    4.26
  -5  -8 -11   94.91    6.95
  -5  -9  13   95.82    9.76
  -5  -9  12   62.47    6.87
  -5  -9  11   49.27    6.09
  -5  -9  10   51.87    5.56
   5   9  -9   63.69    3.31
   5   9  -8   11.95    1.73
  -5  -9   8   15.65    2.71
   5   9  -7  186.56    6.88
  -5  -9   7  185.14    7.83
   5   9  -6  364.27   14.97
  -5  -9   6  357.81   15.65
   5   9  -5  176.94    6.15
  -5  -9   5  184.47    7.66
   5   9  -4  261.66    7.79
  -5  -9   4  269.37    9.30
   5   9  -3    9.03    1.81
  -5  -9   3   16.41    2.92
   5   9  -2   37.92    4.98
  -5  -9   2   41.12    5.04
   5   9  -1   93.28    6.58
  -5  -9   1   91.57    5.04
   5   9   0  226.67    8.60
  -5  -9   0  241.24    8.98
   5   9   1  118.21    6.24
  -5  -9  -1  109.61    5.46
   5   9   2  190.01    8.50
  -5  -9  -2  191.09    8.09
   5   9   3   10.97    1.85
  -5  -9  -3   12.71    2.25
   5   9   4   91.72    5.93
  -5  -9  -4  106.54    6.83
   5   9   5   61.71    8.75
  -5  -9  -5   52.88    4.28
  -5  -9  -7   56.59    4.64
  -5  -9  -8   18.42    2.87
  -5  -9  -9   42.78    3.95
  -5 -10  12  104.41    8.40
  -5 -10  11   25.08    5.01
  -5 -10  10   25.87    4.69
  -5 -10   9   41.02    8.38
  -5 -10   8   80.23    6.58
  -5 -10   7  211.84    7.87
  -5 -10   6  408.10   11.73
  -5 -10   5    9.49    3.15
  -5 -10   4  301.58   11.94
  -5 -10   3  410.50   15.83
  -5 -10   2  193.30    8.10
  -5 -10   1   75.10    5.88
  -5 -10   0  180.45    7.50
   5  10   1  213.87    6.30
  -5 -10  -1  231.41    7.03
   5  10   2  167.69    4.87
  -5 -10  -2  190.88    6.28
   5  10   3   97.16    5.73
  -5 -10  -3  113.39    6.58
  -5 -10  -4  107.35    7.59
  -5 -10  -5   79.51    5.63
  -5 -10  -5   68.99    5.61
  -5 -10  -6   28.71    3.62
  -5 -10  -7    6.84    1.79
  -5 -10  -8   23.56    4.09
  -5 -11  10   38.33    5.07
  -5 -11   9  182.71   15.75
  -5 -11   8  148.69   13.14
  -5 -11   7    5.91    2.25
  -5 -11   6   37.70    4.93
  -5 -11   5  164.39    9.06
  -5 -11   4  156.21    7.79
  -5 -11   3  284.48    9.48
  -5 -11   2   68.44    5.75
  -5 -11   1   72.85    5.62
  -5 -11   0  172.63    7.94
  -5 -11  -1  241.48   10.41
  -5 -11  -2  118.80   22.39
  -5 -11  -3  103.84    5.03
  -5 -11  -4  120.09   10.34
  -5 -12   8    7.77    2.41
  -5 -12   7   14.95    3.44
  -5 -12   6   67.20    8.16
  -5 -12   5  197.74   16.75
  -5 -12   4   49.26    6.06
  -5 -12   3   60.66    6.04
  -5 -12   2   66.84    6.86
  -5 -12   1   81.88    7.97
  -5 -12   0   67.39    6.74
  -5 -12  -1  101.47    8.99
  -5 -12  -2   46.59    4.53
  -5 -12  -3   35.04    4.60
  -5 -12  -4   36.93    5.36
  -5 -13   4   82.88    6.88
  -5 -13   3   20.53    4.39
  -5 -13   2   19.92    4.19
  -5 -13   1   34.68    5.70
  -5 -13   0   11.96    3.13
   6 -13  -3   18.53    3.86
  -6  13   3   30.20    6.53
   6 -13  -2   18.41    3.98
  -6  13   2   15.74    3.83
   6 -13  -1    3.75    2.29
  -6  13   1    0.89    1.68
   6 -13   0   22.58    4.45
  -6  13   0   13.77    3.25
   6 -13   1   23.45    4.74
  -6  13  -1   26.34    5.90
   6 -13   2   26.73    4.79
  -6  13  -2   20.80    5.28
   6 -13   3   40.39    6.62
  -6  13  -3   27.64    6.53
   6 -12  -7   11.07    2.99
  -6  12   7   12.11    3.26
   6 -12  -6   17.13    3.63
  -6  12   6   12.72    4.33
   6 -12  -5   33.78    5.07
  -6  12   5   31.31    5.26
   6 -12  -4   54.88    6.71
   6 -12  -3    4.55    1.94
  -6  12   3    4.10    1.43
   6 -12  -2   28.38    4.01
  -6  12   2   30.05    5.47
   6 -12  -1    7.12    2.31
  -6  12   1   14.68    3.25
   6 -12   0   40.60    4.70
  -6  12   0   42.79    7.74
   6 -12   1   46.40    5.85
  -6  12  -1   41.88    6.97
   6 -12   2    8.57    2.57
  -6  12  -2    6.28    1.93
   6 -12   3   44.07    5.79
  -6  12  -3   26.32    6.48
   6 -12   4   24.02    4.24
  -6  12  -4   25.16    6.21
   6 -12   5   14.98    3.93
  -6  12  -5    6.83    2.34
   6 -12   6    3.91    2.16
  -6  12  -6    1.38    1.46
   6 -11  -9   13.03    3.02
  -6  11   9   12.78    3.47
   6 -11  -8   30.60    4.20
  -6  11   8   26.90    6.67
   6 -11  -7   18.71    3.19
  -6  11   7   20.19    4.39
   6 -11  -6   63.49    7.21
  -6  11   6   68.51    8.30
   6 -11  -5   31.75    4.21
  -6  11   5   30.44    4.66
   6 -11  -4   14.14    3.13
  -6  11   4   12.55    3.69
   6 -11  -3    7.52    1.77
  -6  11   3   17.33    3.38
   6 -11  -2   15.78    3.00
  -6  11   2   19.92    4.10
   6 -11  -1   70.28    5.83
  -6  11   1   66.97    9.68
   6 -11   0   32.44    4.51
  -6  11   0   33.40    5.99
   6 -11   1   29.52    4.00
  -6  11  -1   31.84    5.44
   6 -11   2   18.00    3.49
  -6  11  -2   21.81    4.13
   6 -11   3   29.34    3.93
  -6  11  -3   24.92    5.33
   6 -11   4   22.14    3.55
  -6  11  -4   23.42    4.47
   6 -11   5    2.59    2.10
  -6  11  -5   11.53    2.95
   6 -11   6    9.92    3.42
  -6  11  -6    4.56    1.49
   6 -11   7   13.74    4.03
   6 -11   8   35.75    5.70
   6 -10 -11   25.25    4.13
  -6  10  11   30.23    6.15
   6 -10 -10   17.87    4.10
   6 -10 -10   10.66    2.20
  -6  10  10    9.54    3.04
   6 -10  -9   18.72    3.58
   6 -10  -9   14.85    2.95
  -6  10   9   17.45    3.53
   6 -10  -8  120.16    5.88
  -6  10   8  126.30    9.75
   6 -10  -7   15.98    2.58
  -6  10   7   20.81    5.33
   6 -10  -6   15.70    2.74
  -6  10   6   21.33    3.47
   6 -10  -5   40.71    4.31
  -6  10   5   49.89    7.02
   6 -10  -4  126.81    4.63
  -6  10   4  144.57    9.91
   6 -10  -3   33.33    2.65
  -6  10   3   36.80    5.24
   6 -10  -2    4.92    1.91
  -6  10   2    2.10    1.35
   6 -10  -1   21.89    2.70
  -6  10   1   19.67    3.22
   6 -10   0   81.38    6.37
  -6  10   0   75.30    9.39
   6 -10   1   34.71    2.73
  -6  10  -1   31.44    5.09
   6 -10   2   26.48    3.09
  -6  10  -2   26.53    3.35
   6 -10   3   51.43    4.77
  -6  10  -3   42.01    6.79
   6 -10   4   72.05    4.92
  -6  10  -4   65.77    5.09
   6 -10   5    3.21    2.32
  -6  10  -5    3.27    1.26
   6 -10   6   11.27    2.54
  -6  10  -6    9.94    2.16
   6 -10   7   28.57    4.28
  -6  10  -7   20.51    5.28
   6 -10   8   43.72    5.76
   6 -10   9  142.35   13.91
   6  -9 -12   23.48    4.87
   6  -9 -12   25.03    4.11
  -6   9  12   17.26    3.80
   6  -9 -11   60.35    6.95
   6  -9 -11   50.00    5.45
  -6   9  11   53.97    8.10
   6  -9 -10  100.82    5.32
   6  -9 -10   93.07    4.43
  -6   9  10   91.98   20.38
   6  -9  -9   25.25    3.74
   6  -9  -9   38.34    4.13
  -6   9   9   38.19    5.53
   6  -9  -8   40.42    4.77
  -6   9   8   37.55    5.47
   6  -9  -7   19.56    3.05
   6  -9  -7   10.76    1.92
  -6   9   7   10.78    1.79
   6  -9  -6   43.62    3.23
   6  -9  -6   40.02    2.11
  -6   9   6   44.81    4.67
   6  -9  -5  100.59    5.57
   6  -9  -5   93.91    4.50
   6  -9  -4  211.32    9.05
   6  -9  -4  207.78    8.24
  -6   9   4  214.84    9.94
   6  -9  -3   59.21    4.08
   6  -9  -3   57.50    2.98
  -6   9   3   51.40    6.22
   6  -9  -2   90.06    5.32
   6  -9  -2   78.40    3.77
  -6   9   2   85.89   11.09
   6  -9  -1   29.94    4.02
   6  -9  -1   27.93    2.99
  -6   9   1   31.35    5.13
   6  -9   0    9.19    2.80
   6  -9   0    6.29    1.69
  -6   9   0    7.76    2.03
   6  -9   1   36.22    5.20
   6  -9   1   25.46    3.05
  -6   9  -1   34.64    4.34
   6  -9   2  112.42    6.45
   6  -9   2   81.85    5.77
  -6   9  -2   97.74    7.30
   6  -9   3  111.41    7.76
   6  -9   3  101.54    5.97
  -6   9  -3  104.99    9.75
   6  -9   4    9.72    2.64
   6  -9   4    7.49    1.70
  -6   9  -4    8.19    1.58
   6  -9   5   32.00    2.68
  -6   9  -5   34.72    4.98
   6  -9   6    7.19    2.94
  -6   9  -6   10.33    2.66
   6  -9   7    8.18    2.07
  -6   9  -7    6.53    2.58
   6  -9   8   23.42    3.85
   6  -9   9   79.07    7.67
   6  -9  10   94.06    9.62
   6  -9  11    8.76    3.04
   6  -8 -13   41.10    6.21
   6  -8 -13   32.84    5.11
  -6   8  13   34.43    5.20
   6  -8 -12   44.91    6.30
   6  -8 -12   41.52    4.79
  -6   8  12   45.20    5.14
   6  -8 -11   57.00    6.23
   6  -8 -11   70.36    6.09
  -6   8  11   55.92    6.14
   6  -8 -10   28.22    3.78
   6  -8 -10   32.59    3.76
  -6   8  10   42.96    4.71
   6  -8  -9   52.15    4.61
   6  -8  -9   57.95    4.81
  -6   8   9   52.43    4.77
   6  -8  -8  107.46    6.93
  -6   8   8  119.58    5.82
   6  -8  -7   36.11    4.42
   6  -8  -7   21.57    2.99
  -6   8   7   28.02    4.17
   6  -8  -6    5.25    2.69
   6  -8  -6    3.47    1.82
  -6   8   6    3.88    1.58
   6  -8  -5  117.50    6.12
   6  -8  -5   96.85    4.68
   6  -8  -4  407.37   11.81
   6  -8  -4  403.65   10.87
  -6   8   4  407.17   12.19
   6  -8  -3  680.08   20.57
   6  -8  -3  684.52   19.98
  -6   8   3  656.48   24.63
   6  -8  -2    8.56    2.34
   6  -8  -2    3.42    1.01
  -6   8   2    6.71    1.69
   6  -8  -1   31.27    2.57
   6  -8  -1   33.24    1.64
  -6   8   1   36.61    4.40
   6  -8   0   60.12    3.65
   6  -8   0   54.71    2.82
  -6   8   0   61.29    8.30
   6  -8   1   84.17    6.01
  -6   8  -1   88.20    6.29
   6  -8   2  120.32    6.32
   6  -8   2  121.53    5.61
  -6   8  -2  112.12    7.85
   6  -8   3  118.55    6.63
   6  -8   3   99.83    5.36
  -6   8  -3  125.79    8.84
   6  -8   4    4.37    1.07
  -6   8  -4    4.18    1.69
   6  -8   5   51.38    3.91
  -6   8  -5   55.44    6.95
   6  -8   6   58.74    5.37
  -6   8  -6   72.95    5.72
   6  -8   7   16.31    3.03
  -6   8  -7   25.98    4.36
  -6   8  -9   11.20    1.70
  -6   8 -10    7.36    1.80
  -6   8 -11    5.64    1.67
   6  -7 -14   12.43    3.06
   6  -7 -14   12.62    2.75
  -6   7  14   17.58    3.46
   6  -7 -13   29.21    4.94
   6  -7 -13   20.91    3.53
  -6   7  13   23.25    3.91
   6  -7 -12   18.84    3.19
  -6   7  12   24.45    3.44
   6  -7 -11  110.23    6.62
  -6   7  11  122.17    7.11
   6  -7 -10   27.93    4.68
   6  -7 -10   25.81    3.07
  -6   7  10   31.07    3.50
   6  -7  -9   75.91    5.60
   6  -7  -9   75.91    4.02
  -6   7   9   73.04    4.06
   6  -7  -8   53.63    4.06
   6  -7  -8   45.51    3.03
  -6   7   8   39.82    4.46
   6  -7  -7    9.54    1.90
   6  -7  -7   12.99    2.26
  -6   7   7    9.17    1.95
   6  -7  -6   30.89    2.25
   6  -7  -6   34.83    1.81
  -6   7   6   26.42    1.89
   6  -7  -5  508.71   15.16
  -6   7   5  515.07   15.82
   6  -7  -4  124.40    6.84
  -6   7   4  117.48    6.63
   6  -7  -3  174.67    8.81
   6  -7  -3  178.76    8.58
  -6   7   3  171.67    8.95
   6  -7  -2   21.95    3.19
   6  -7  -2   23.35    2.32
  -6   7   2   20.38    3.77
   6  -7  -1  124.48    7.09
   6  -7  -1  131.17   16.13
  -6   7   1  124.24    8.97
   6  -7   0  654.07   14.33
   6  -7   0  630.29   12.66
  -6   7   0  609.72   13.95
   6  -7   1  205.27   25.33
   6  -7   1  198.87    9.46
  -6   7  -1  214.26   12.88
   6  -7   2  112.73    7.11
   6  -7   2  120.87    6.48
  -6   7  -2  123.12    6.75
   6  -7   3  132.93    6.31
   6  -7   3  131.36    5.41
  -6   7  -3  129.36    5.42
   6  -7   4   76.20    3.90
   6  -7   4   68.60    2.88
  -6   7  -4   77.98    6.86
   6  -7   5  116.94    6.32
   6  -7   5  122.32    6.00
  -6   7  -5  120.80    7.82
   6  -7   6  403.50   12.90
   6  -7   6  369.07   12.16
  -6   7  -6  360.96   11.18
   6  -7   7  141.75    8.86
   6  -7   7  124.70    8.14
  -6   7  -7  119.17   10.59
   6  -7   8    9.70    2.85
   6  -7   8    4.91    1.61
   6  -7   9    6.29    2.88
   6  -7  10   13.13    2.72
  -6   7 -10   11.72    1.82
   6  -7  11   40.36    5.07
  -6   7 -11   36.11    3.68
   6  -7  12   30.15    4.25
  -6   7 -12   21.53    3.70
  -6   6  15   12.88    3.43
   6  -6 -15    8.10    2.11
  -6   6  15   10.17    2.26
   6  -6 -14   21.14    3.52
  -6   6  14   26.89    4.37
   6  -6 -13   68.78    7.14
   6  -6 -13   81.79    7.37
  -6   6  13   70.02    6.29
   6  -6 -12   83.00    5.35
   6  -6 -12   95.23    6.06
  -6   6  12   85.40    5.58
   6  -6 -11  161.83   11.43
   6  -6 -11  144.36    4.65
  -6   6  11  142.14    4.88
   6  -6 -10    2.95    1.59
   6  -6 -10    3.24    1.52
  -6   6  10    5.36    2.09
   6  -6  -9    5.01    2.35
   6  -6  -9    3.28    2.11
  -6   6   9    4.84    2.15
   6  -6  -8   19.18    3.58
   6  -6  -8   22.77    2.53
  -6   6   8   21.70    2.44
   6  -6  -7  226.86   11.48
   6  -6  -7  230.47   11.57
  -6   6   7  221.56   11.16
   6  -6  -6  303.29   12.86
   6  -6  -6  297.29   12.25
   6  -6  -5  117.03   10.45
   6  -6  -5  102.26    5.93
  -6   6   5   99.65    6.00
   6  -6  -4   30.10    4.45
   6  -6  -4   32.00    4.20
  -6   6   4   28.83    4.03
   6  -6  -3    6.21    1.81
   6  -6  -3    4.23    1.07
  -6   6   3    6.16    1.60
   6  -6  -2  429.84   11.05
   6  -6  -2  428.77   10.33
  -6   6   2  424.61   10.67
   6  -6  -1   61.24    5.43
   6  -6  -1   61.23    5.04
  -6   6   1   59.41    5.13
   6  -6   0  347.42   13.84
   6  -6   0  372.54   14.15
  -6   6   0  363.61   14.26
   6  -6   1  163.98    8.78
   6  -6   1  164.35    8.33
  -6   6  -1  173.69   10.69
   6  -6   2  262.74   10.65
   6  -6   2  261.81    9.93
  -6   6  -2  263.74   12.06
   6  -6   3  255.28   10.27
   6  -6   3  247.24    9.35
  -6   6  -3  238.31    9.61
   6  -6   4   74.42    5.03
   6  -6   4   81.84    6.20
  -6   6  -4   81.79    6.36
   6  -6   5  136.15    6.33
   6  -6   5  134.59    7.77
  -6   6  -5  130.02   15.38
   6  -6   6  347.20   10.32
   6  -6   6  357.10   16.51
  -6   6  -6  340.63    9.39
   6  -6   7   75.28    4.65
   6  -6   7   66.96    4.44
  -6   6  -7   75.44    5.09
   6  -6   8   79.84    4.53
   6  -6   8   73.10    6.76
   6  -6   9   14.82    2.64
   6  -6   9   20.00    4.24
   6  -6  10  177.24    6.59
  -6   6 -10  197.96    6.54
   6  -6  11   32.07    4.71
  -6   6 -11   32.34    4.10
   6  -6  12   30.43    5.14
  -6   6 -12   26.44    4.11
   6  -6  13   37.32    5.71
  -6   6 -13   30.61    4.65
  -6   5  15   41.82    7.14
   6  -5 -15   44.06    4.79
  -6   5  15   38.24    3.67
  -6   5  14   15.21    3.81
   6  -5 -14   11.23    2.72
  -6   5  14   11.72    2.75
  -6   5  13  128.80   13.76
   6  -5 -13  114.53   14.31
  -6   5  13  132.36    6.38
  -6   5  12  142.92   10.21
   6  -5 -12  152.37    5.40
  -6   5  12  143.65    4.97
   6  -5 -11   59.48    4.81
  -6   5  11   56.68    4.70
   6  -5 -10    5.14    1.94
   6  -5 -10    4.27    1.74
  -6   5  10    4.80    2.07
   6  -5  -9    1.56    1.46
   6  -5  -9    6.89    2.32
  -6   5   9    1.45    1.36
   6  -5  -8  407.43   12.65
   6  -5  -8  409.27   12.67
  -6   5   8  421.19   13.22
   6  -5  -7  175.24    8.78
   6  -5  -7  183.49   12.86
  -6   5   7  168.60    8.63
   6  -5  -6    7.71    1.51
   6  -5  -6   14.04    2.54
   6  -5  -5   27.94    3.15
   6  -5  -5   34.55    3.21
  -6   5   5   32.76    3.31
   6  -5  -4  180.63    7.75
   6  -5  -4  193.17    7.93
  -6   5   4  191.34    8.07
   6  -5  -3   27.23    2.67
   6  -5  -3   32.85    2.78
  -6   5   3   31.03    2.93
   6  -5  -2   86.61    6.50
   6  -5  -2   82.12    6.04
  -6   5   2   91.66    4.80
   6  -5  -1    7.46    1.56
   6  -5  -1    4.68    0.80
  -6   5   1   11.59    1.63
   6  -5   0  103.69    5.38
   6  -5   0  107.87    5.26
  -6   5   0  101.91    5.12
   6  -5   1   23.82    2.89
   6  -5   1   19.77    1.88
  -6   5  -1   20.09    2.38
   6  -5   2  333.90   13.23
   6  -5   2  323.44   12.51
  -6   5  -2  313.83   12.84
   6  -5   3  177.34    7.95
   6  -5   3  173.12    7.52
  -6   5  -3  172.71    7.70
   6  -5   4   10.20    3.29
   6  -5   4    1.64    0.77
  -6   5  -4    3.38    0.80
   6  -5   5    7.25    2.29
   6  -5   5   13.81    2.39
  -6   5  -5   11.80    2.37
   6  -5   6   95.20    4.75
   6  -5   6  102.53    8.22
  -6   5  -6   93.46    4.65
   6  -5   7   37.05    3.56
   6  -5   7   40.87    4.44
  -6   5  -7   34.75    4.32
   6  -5   8  142.75    7.01
   6  -5   8  127.98    5.89
   6  -5   9   38.71    4.14
   6  -5   9   26.99    5.69
   6  -5  10   89.59    5.73
   6  -5  11  163.25    7.81
  -6   5 -11  169.14    7.47
   6  -5  12   35.24    7.74
  -6   5 -12   30.27    3.95
   6  -5  13   10.54    3.68
  -6   5 -13   10.76    2.72
  -6   4  16    9.72    2.31
   6  -4 -16    8.32    2.63
  -6   4  15   51.46    6.98
   6  -4 -15   50.58    6.06
  -6   4  15   39.89    4.65
  -6   4  14   36.02    5.66
   6  -4 -14   49.49    4.67
  -6   4  14   35.16    4.00
  -6   4  13   69.12    7.08
   6  -4 -13   69.32    5.70
  -6   4  13   63.02    4.99
  -6   4  12   40.32    4.34
   6  -4 -12   43.43    3.43
  -6   4  12   37.31    2.49
  -6   4  11   99.10   11.84
   6  -4 -11   89.85    5.04
  -6   4  11   98.22    5.17
  -6   4  10  145.08   10.02
   6  -4 -10  128.81    6.57
  -6   4  10  141.67    7.04
   6  -4  -9   46.63    3.37
   6  -4  -9   46.30    2.51
  -6   4   9   41.61    2.70
   6  -4  -8  138.74    7.20
   6  -4  -8  134.06    6.88
  -6   4   8  135.93    7.09
   6  -4  -7   39.02    4.55
   6  -4  -7   40.35    4.17
  -6   4   7   40.65    3.78
   6  -4  -6  188.00    7.98
   6  -4  -6  200.86    8.29
  -6   4   6  203.44    8.62
   6  -4  -5  312.25   10.87
   6  -4  -5  323.98   11.76
  -6   4   5  337.04   11.78
   6  -4  -4  134.84    6.52
   6  -4  -4  140.69    6.72
  -6   4   4  151.13    7.29
   6  -4  -3  124.38    6.09
   6  -4  -3  127.76    6.15
  -6   4   3  125.89    6.14
   6  -4  -2  116.27    5.23
   6  -4  -2  120.82    5.24
  -6   4   2  104.59    4.59
   6  -4  -1  186.04    7.67
   6  -4  -1  177.53    7.13
  -6   4   1  187.72    7.64
   6  -4   0  179.67    7.50
   6  -4   0  178.10    7.12
  -6   4   0  176.98    7.19
   6  -4   1  145.25    7.25
   6  -4   1  131.47    7.14
  -6   4  -1  141.35    6.73
   6  -4   2  243.15   10.70
   6  -4   2  256.26   11.14
  -6   4  -2  258.28   11.48
   6  -4   3  357.77   12.49
   6  -4   3  350.88   12.30
  -6   4  -3  358.81   12.20
   6  -4   4   29.48    3.07
   6  -4   4   34.49    4.54
  -6   4  -4   31.77    5.22
   6  -4   5  148.12    8.65
   6  -4   5  160.02    9.11
  -6   4  -5  135.04    7.44
   6  -4   6  276.23   11.67
   6  -4   6  263.41   10.98
  -6   4  -6  267.02   10.84
   6  -4   7   54.26    3.08
   6  -4   7   55.03    4.42
  -6   4  -7   55.42    3.77
   6  -4   8   34.64    3.31
   6  -4   8   37.27    4.72
   6  -4   9  356.15   15.38
   6  -4   9  364.29   16.14
   6  -4  10   58.80    4.71
   6  -4  10   59.31    6.37
   6  -4  11  187.97    7.05
  -6   4 -11  185.24    6.66
   6  -4  12    9.92    3.26
  -6   4 -12    9.94    2.93
   6  -4  13   14.15    2.62
  -6   4 -13   13.89    2.37
   6  -4  14   57.45    8.11
  -6   4 -14   63.22    8.76
  -6   3  16   46.68    7.93
   6  -3 -16   62.36    7.67
  -6   3  16   58.77    6.98
  -6   3  15    8.49    2.23
   6  -3 -15    7.41    2.29
  -6   3  15    5.17    1.91
  -6   3  14  131.98   10.69
   6  -3 -14  117.12    8.34
  -6   3  14  105.73    7.56
  -6   3  13  101.59   11.49
   6  -3 -13  105.57    4.40
  -6   3  13   94.63    3.94
  -6   3  12  182.95   11.22
   6  -3 -12  175.96    7.66
  -6   3  12  168.43    7.44
  -6   3  11  179.14    7.24
   6  -3 -11  182.54    7.25
  -6   3  11  185.43    7.13
  -6   3  10  210.57   16.47
   6  -3 -10  186.49    7.50
  -6   3  10  188.77    7.69
  -6   3   9  111.59    7.78
   6  -3  -9   88.53    5.51
  -6   3   9  106.30    6.20
   6  -3  -8   72.23    5.85
  -6   3   8   74.78    5.99
   6  -3  -7  247.48   10.03
   6  -3  -7  236.78   10.95
  -6   3   7  259.28   31.20
   6  -3  -6  251.24   10.96
   6  -3  -6  260.12   11.33
  -6   3   6  262.99   11.56
   6  -3  -5   97.59    5.06
   6  -3  -5   86.46    7.28
  -6   3   5   89.67    6.67
   6  -3  -4  255.78    8.00
   6  -3  -4  251.50    7.86
  -6   3   4  248.94    7.88
   6  -3  -3   84.78    5.35
   6  -3  -3   86.69    5.40
  -6   3   3   92.01    5.66
   6  -3  -2  460.77    8.98
   6  -3  -2  445.00   30.68
  -6   3   2  455.37    9.07
   6  -3  -1  324.43    9.84
   6  -3  -1  323.73    9.75
  -6   3   1  332.41   10.15
   6  -3   0  240.30    7.68
   6  -3   0  234.09    7.33
  -6   3   0  245.43    7.67
   6  -3   1  386.41   11.67
   6  -3   1  384.05   11.48
  -6   3  -1  377.43   11.26
   6  -3   2  215.05    8.80
   6  -3   2  223.69   15.71
  -6   3  -2  220.85    8.67
   6  -3   3  985.21   19.19
   6  -3   3  976.60   20.15
  -6   3  -3  985.64   19.47
   6  -3   4   79.01    4.78
   6  -3   4   86.61    6.89
  -6   3  -4   73.92    4.16
   6  -3   5  248.11   10.22
   6  -3   5  250.64   11.52
  -6   3  -5  245.69    9.74
   6  -3   6  381.75    9.17
   6  -3   6  369.08    9.63
  -6   3  -6  355.01    7.62
   6  -3   7  110.57    6.43
   6  -3   7  115.80    9.39
  -6   3  -7   99.02    5.16
   6  -3   8  185.77    7.16
   6  -3   8  183.41    9.05
   6  -3   9  452.55   13.93
   6  -3   9  484.75   20.77
   6  -3  10   10.59    2.15
   6  -3  10   10.81    2.12
   6  -3  11   10.15    3.06
   6  -3  12  147.88    7.27
  -6   3 -12  130.14    6.15
   6  -3  13  113.12    9.85
  -6   3 -13  143.21   12.22
   6  -3  14   19.96    4.03
  -6   3 -14   22.43    4.11
  -6   2  16   68.36   10.42
   6  -2 -16   64.13    7.67
  -6   2  16   73.04    8.49
  -6   2  15   20.27    4.18
   6  -2 -15   28.24    3.95
  -6   2  15   29.58    3.94
  -6   2  14  175.51   15.18
   6  -2 -14  184.33    6.67
  -6   2  14  176.78    6.36
  -6   2  13  196.12   13.78
   6  -2 -13  196.32    8.33
  -6   2  13  206.73    8.16
  -6   2  12  382.01   16.69
   6  -2 -12  361.20   15.43
  -6   2  12  417.18   17.67
  -6   2  11  152.13   11.91
   6  -2 -11  126.76    6.46
  -6   2  11  133.36    6.73
  -6   2  10  409.90   12.84
   6  -2 -10  392.06   12.33
  -6   2  10  393.41   12.43
  -6   2   9  187.89   10.29
   6  -2  -9  189.50    7.79
  -6   2   9  185.21   25.98
  -6   2   8  298.64   12.16
   6  -2  -8  283.85   11.20
  -6   2   8  296.65   11.78
   6  -2  -7  203.81    8.39
   6  -2  -6  418.47   14.55
   6  -2  -6  418.70   15.58
  -6   2   6  430.91   14.85
   6  -2  -5  430.83   12.77
   6  -2  -5  435.42   12.99
  -6   2   5  448.73   31.07
   6  -2  -4  751.92   13.80
   6  -2  -4  834.39   15.42
  -6   2   4  816.79   15.30
   6  -2  -3   97.76    5.87
   6  -2  -3   95.53    5.90
  -6   2   3  105.03    4.77
   6  -2  -2   30.76    2.26
   6  -2  -2   38.16    4.01
  -6   2   2   31.05    2.21
   6  -2  -1  391.22   11.94
   6  -2  -1  394.11   12.04
  -6   2   1  396.48   12.14
   6  -2   0  409.42   12.44
   6  -2   0  425.67   12.95
  -6   2   0  402.30   12.25
   6  -2   1  234.60    7.34
   6  -2   1  233.17    7.36
  -6   2  -1  231.11   16.06
   6  -2   2  113.37    4.94
   6  -2   2  107.41    6.05
  -6   2  -2  108.42    4.54
   6  -2   3  229.02    9.99
   6  -2   3  243.27   11.50
  -6   2  -3  250.95   10.64
   6  -2   3  199.57    8.79
   6  -2   4   99.01    5.04
   6  -2   4  105.54    8.42
  -6   2  -4   98.87    4.66
   6  -2   4   82.78    5.98
   6  -2   5   67.76    8.59
   6  -2   5   68.18    9.51
  -6   2  -5   57.95    4.68
   6  -2   5   55.26    5.01
   6  -2   6  482.39   11.03
   6  -2   6  459.41   18.35
  -6   2  -6  445.33    9.32
   6  -2   6  422.03    8.97
   6  -2   7  278.77   11.72
   6  -2   7  299.17   12.51
  -6   2  -7  270.51   10.74
   6  -2   8   61.02    2.90
   6  -2   8   58.37    6.40
   6  -2   9    6.60    2.56
   6  -2   9    8.62    2.11
   6  -2  10   92.59    5.06
   6  -2  10   99.89    8.65
   6  -2  11  141.06    5.09
   6  -2  12  260.76   11.24
  -6   2 -12  259.26   11.13
   6  -2  13   47.28    5.58
  -6   2 -13   41.15    4.78
   6  -2  14    8.25    2.51
  -6   2 -14   10.61    3.15
  -6   1  17   24.02    5.06
   6  -1 -17   24.86    4.50
  -6   1  17   23.54    4.27
  -6   1  16   28.42    5.78
   6  -1 -16   38.51    4.85
  -6   1  16   30.71    5.05
  -6   1  15    9.68    2.54
   6  -1 -15    9.53    2.04
  -6   1  15    8.16    1.86
  -6   1  14   64.46    8.72
   6  -1 -14   60.80    4.74
  -6   1  14   77.43    5.77
  -6   1  13  142.11   11.16
   6  -1 -13  127.48    5.99
  -6   1  13  123.77    5.77
  -6   1  12  244.49   15.87
   6  -1 -12  218.60    8.30
  -6   1  12  218.21    8.24
  -6   1  11  105.49   17.27
   6  -1 -11   97.50    5.10
  -6   1  11  101.08    5.32
  -6   1  10  302.53   16.80
   6  -1 -10  282.35   12.05
  -6   1  10  285.19   12.48
  -6   1   9  182.98   27.19
   6  -1  -9  153.55    8.79
  -6   1   9  171.70    9.99
  -6   1   8   78.89    6.50
   6  -1  -8   64.08    5.48
  -6   1   8   74.61    7.42
  -6   1   7  663.17   14.72
   6  -1  -7  660.95   13.41
   6  -1  -6 1455.49   27.31
   6  -1  -6 1376.01   26.06
  -6   1   6 1409.89   27.02
   6  -1  -5  287.85    8.67
   6  -1  -5  285.51    8.81
  -6   1   5  296.07    9.35
   6  -1  -4   46.52    5.24
   6  -1  -4   44.56    3.44
  -6   1   4   37.55    2.90
   6  -1  -3 1533.67   17.79
   6  -1  -3 1555.38   18.65
  -6   1   3 1480.79   17.96
   6  -1  -2  216.78    8.49
   6  -1  -2  221.54    8.58
   6  -1  -2  241.88    9.55
  -6   1   2  228.43    9.07
   6  -1  -1  686.62    8.61
  -6   1   1  623.95   18.28
   6  -1  -1  680.93    9.09
  -6   1   1  672.91    8.97
   6  -1   0  145.46    5.97
  -6   1   0  138.89    8.00
   6  -1   0  157.34    6.43
  -6   1   0  156.92    6.34
   6  -1   1   15.60    1.55
  -6   1  -1   10.85    0.99
   6  -1   1   12.28    1.24
  -6   1  -1   16.59    1.40
   6  -1   2  114.26    4.81
   6  -1   2  112.18    6.23
  -6   1  -2  117.46    4.81
   6  -1   2   99.01    5.83
   6  -1   3   51.21    3.46
   6  -1   3   55.42    4.14
  -6   1  -3   49.49    3.09
   6  -1   3   45.74    4.89
   6  -1   4  252.10   10.90
   6  -1   4  251.24   11.71
  -6   1  -4  247.64   10.41
   6  -1   4  225.16    9.80
   6  -1   5  298.64   11.62
   6  -1   5  310.37   16.97
  -6   1  -5  293.19   11.18
   6  -1   5  280.11   10.63
   6  -1   6  367.21    8.57
   6  -1   6  347.19    8.32
  -6   1  -6  334.33    6.90
   6  -1   6  331.73    6.88
   6  -1   7    8.69    2.30
   6  -1   7    0.49    1.98
   6  -1   7    2.43    0.65
   6  -1   8   59.16    2.80
   6  -1   8   60.98    4.15
   6  -1   9  191.84    7.26
   6  -1   9  189.41   10.51
   6  -1  10  342.60   14.67
   6  -1  10  287.77   14.66
   6  -1  11  139.06    4.88
   6  -1  12   54.88    4.76
  -6   1 -12   59.96    5.42
   6  -1  13   34.07    3.92
  -6   1 -13   36.76    4.08
   6  -1  14   41.67    6.15
  -6   1 -14   37.23    5.49
  -6   0  17   67.70    8.74
   6   0 -17   90.63    7.11
  -6   0  17   85.27    6.50
  -6   0  16   29.46    5.46
   6   0 -16   37.72    4.04
  -6   0  16   41.48    4.91
  -6   0  15    2.16    1.04
  -6   0  15    4.46    1.77
  -6   0  14   36.67    4.38
  -6   0  14   38.59    4.03
  -6   0  13   75.84   10.10
  -6   0  13   69.70    5.35
  -6   0  12   83.12    8.12
   6   0 -12   86.76    4.79
  -6   0  12   80.41    4.45
  -6   0  11  205.61   10.91
   6   0 -11  198.08    7.59
  -6   0  11  180.88    7.23
  -6   0  10   43.48    5.43
   6   0 -10   31.53    3.26
  -6   0  10   29.71    3.44
  -6   0   9  794.17   16.96
   6   0  -9  758.77   18.77
  -6   0   9  785.85   20.78
  -6   0   8  262.05   31.46
   6   0  -8  255.67   10.44
  -6   0   8  272.10   10.92
  -6   0   7  520.71   11.62
   6   0  -7  528.07   12.72
  -6   0   7  520.69   11.07
  -6   0   6  137.61    6.50
   6   0  -6  136.98    6.69
  -6   0   6  118.33    5.94
   6   0  -5  104.10    8.84
   6   0  -5  120.41    5.37
   6   0  -5  131.79    5.59
  -6   0   5  129.89    5.61
   6   0  -4  158.32    6.25
   6   0  -4  176.49    6.92
   6   0  -4  167.65    6.85
  -6   0   4  172.52    7.22
   6   0  -3 1798.30   20.35
   6   0  -2  760.99    9.30
   6   0  -2  779.27    9.37
   6   0  -2  766.01   10.06
  -6   0   2  801.48   10.70
   6   0  -1  150.18    5.91
  -6   0   1  146.94    5.76
   6   0  -1  151.41    6.29
  -6   0   1  146.91    6.07
   6   0   0   11.29    1.12
  -6   0   0   10.71    0.92
   6   0   0   15.22    1.92
  -6   0   0   12.83    1.23
   6   0   1   44.35    2.64
  -6   0  -1   43.48    2.48
   6   0   1   46.78    2.88
  -6   0  -1   45.12    2.60
   6   0   1   44.74    2.64
   6   0   2  148.31    5.91
  -6   0  -2  139.86    5.50
   6   0   2  149.01    6.13
  -6   0  -2  153.56    6.08
   6   0   2  135.02    5.37
   6   0   3  307.00    9.22
   6   0   3  303.50    9.39
  -6   0  -3  305.97    8.97
   6   0   3  287.35    8.50
   6   0   4  296.41   10.22
   6   0   4  325.50   12.78
  -6   0  -4  333.16   11.05
   6   0   4  305.87   10.28
   6   0   5  243.34    9.77
   6   0   5  254.09   10.29
   6   0   5  233.33    8.98
   6   0   6    2.89    1.58
   6   0   6    1.77    1.04
  -6   0  -6    1.14    0.54
   6   0   6    2.80    0.65
   6   0   7    4.65    1.80
   6   0   7   -0.16    1.39
   6   0   8   18.67    2.90
   6   0   8   22.28    3.68
   6   0   9  113.08    5.35
   6   0   9  105.58    6.51
   6   0  10   69.48    3.88
   6   0  10   76.62    8.42
   6   0  11   49.03    4.40
   6   0  12   71.69   13.72
  -6   0 -12   59.69    5.30
   6   0  13   29.34    4.72
  -6   0 -13   29.23    4.77
   6   0  14   15.13    2.37
  -6   0 -14    5.06    2.07
  -6  -1  17  148.69   14.28
   6   1 -17  163.66   11.50
  -6  -1  17  176.27   12.34
  -6  -1  16   18.02    3.84
   6   1 -16   28.36    4.99
  -6  -1  16   20.58    6.12
  -6  -1  15   53.91   11.23
   6   1 -15   63.12    5.68
  -6  -1  15   56.73    4.98
  -6  -1  14   93.98   14.65
   6   1 -14  108.14    4.49
  -6  -1  14   95.87    8.57
  -6  -1  13   69.26    8.33
   6   1 -13   66.01    5.07
  -6  -1  13   72.87    5.65
  -6  -1  12    7.21    2.77
   6   1 -12    5.93    1.86
  -6  -1  12    4.60    1.71
  -6  -1  11  257.52   13.69
   6   1 -11  228.97    8.49
  -6  -1  11  246.74   19.01
  -6  -1  10   64.59    8.13
   6   1 -10   64.68    6.20
  -6  -1  10   58.50    5.70
  -6  -1   9  263.65   10.17
   6   1  -9  276.27   10.74
  -6  -1   9  254.22   13.25
  -6  -1   8  323.77   13.04
   6   1  -8  323.72   14.64
  -6  -1   7   81.69    7.55
  -6  -1   7   72.42    6.00
  -6  -1   6   75.94    5.67
  -6  -1   6   81.89    6.29
   6   1  -5   38.53    2.49
   6   1  -5   44.50    3.82
  -6  -1   5   41.81    3.21
   6   1  -4  107.16    4.53
   6   1  -4  122.85    4.88
  -6  -1   4  113.82    5.00
   6   1  -3  433.64   12.81
   6   1  -3  449.20   13.20
  -6  -1   3  454.49   13.99
   6   1  -2  435.40   12.73
   6   1  -2  453.41   13.31
   6   1  -2  453.76   13.75
  -6  -1   2  456.20   14.16
   6   1  -1   35.59    2.07
   6   1  -1   35.08    2.77
  -6  -1   1   37.71    2.54
   6   1   0  333.36    9.88
  -6  -1   0  323.48    9.55
   6   1   0  340.30   10.56
  -6  -1   0  320.83   10.51
   6   1   1   58.81    3.57
  -6  -1  -1   57.56    3.47
   6   1   1   73.11    6.71
  -6  -1  -1   62.61    3.87
   6   1   1   47.03    2.96
   6   1   2  351.87   10.30
  -6  -1  -2  326.74    9.51
   6   1   2  350.90   10.64
  -6  -1  -2  340.07   10.75
   6   1   2  321.11    9.49
   6   1   3  404.00   13.48
  -6  -1  -3  354.41   11.81
   6   1   3  417.21   15.47
  -6  -1  -3  408.68   13.55
   6   1   3  393.17   13.04
   6   1   4  167.31    7.70
  -6  -1  -4  158.37    7.11
   6   1   4  148.60    6.71
   6   1   5   32.10    2.84
   6   1   5   31.92    4.22
  -6  -1  -5   35.94    2.86
   6   1   5   33.32    2.69
   6   1   6   54.67    4.49
   6   1   6   56.61    5.91
   6   1   7   93.14    5.58
   6   1   7   69.77   12.63
   6   1   8   93.91    4.70
   6   1   8  114.68   10.55
   6   1   9   19.48    2.64
   6   1   9   23.76    3.81
   6   1  10  179.07    7.27
   6   1  10  165.01   11.81
   6   1  11   49.80    4.31
   6   1  12   26.28    3.76
  -6  -1 -12   30.79    3.85
   6   1  13   21.31    4.16
  -6  -1 -13   20.53    4.42
   6   1  14   12.17    2.71
  -6  -1 -14    9.37    2.35
  -6  -2  17   51.95    9.97
   6   2 -17   75.85    6.07
  -6  -2  17   67.61    6.19
  -6  -2  16   70.51    9.33
   6   2 -16   98.25    8.72
  -6  -2  16   89.13    8.27
  -6  -2  15   51.18    6.73
  -6  -2  15   43.97    4.98
  -6  -2  14  173.23   10.46
   6   2 -14  177.03    6.42
  -6  -2  14  200.49    7.14
  -6  -2  13  145.89   11.04
   6   2 -13  145.59    6.75
  -6  -2  13  148.32   13.33
  -6  -2  12   24.85    3.44
   6   2 -12   24.38    3.57
  -6  -2  12   16.42    2.57
  -6  -2  11  163.55    9.94
   6   2 -11  172.02    6.83
  -6  -2  11  170.03    6.71
  -6  -2  10  540.50   16.25
   6   2 -10  534.52   16.23
  -6  -2  10  545.48   16.72
  -6  -2   9    6.74    1.17
   6   2  -9    7.49    1.59
  -6  -2   9    6.27    1.74
  -6  -2   8  225.19    9.15
   6   2  -8  232.20    9.72
  -6  -2   7  232.38    9.35
   6   2  -7  217.48    9.56
  -6  -2   7  232.30    9.71
  -6  -2   6  529.75   10.40
   6   2  -6  510.50    9.87
   6   2  -6  560.04   11.49
  -6  -2   6  553.67   11.84
  -6  -2   5   30.30    2.91
   6   2  -5   23.83    1.63
   6   2  -5   24.38    2.64
  -6  -2   5   21.27    2.01
   6   2  -4  118.74    4.60
   6   2  -4  127.02    4.95
   6   2  -4  131.43    5.56
  -6  -2   4  131.26    5.72
   6   2  -3  316.92    9.04
   6   2  -3  315.12    9.01
   6   2  -3  334.74   10.19
  -6  -2   3  338.28   10.37
   6   2  -2  765.25   13.14
   6   2  -2  794.46   13.66
   6   2  -2  819.42   15.03
  -6  -2   2  814.01   15.70
   6   2  -1  341.54    9.66
   6   2  -1  354.62   10.04
   6   2  -1  353.15   10.66
  -6  -2   1  343.74   11.55
   6   2   0  309.10    8.81
   6   2   0  328.71   10.04
  -6  -2   0  319.39   10.58
   6   2   1  202.33    7.69
  -6  -2  -1  195.35    7.39
   6   2   1  189.04    7.62
  -6  -2  -1  206.68    8.26
   6   2   2 1819.66   31.33
  -6  -2  -2 1756.52   30.21
  -6  -2  -2 1761.32   30.62
   6   2   3  320.83   10.76
  -6  -2  -3  296.71    9.94
   6   2   3  314.90   13.75
  -6  -2  -3  321.71   10.90
   6   2   3  305.42   10.25
   6   2   4  212.18    8.42
  -6  -2  -4  199.19    8.02
   6   2   5  232.78    8.81
  -6  -2  -5  216.34    7.92
  -6  -2  -5  223.49    8.11
   6   2   6  112.87    6.15
   6   2   7  163.25    6.55
   6   2   8  619.68   16.46
   6   2   9  323.94   13.67
   6   2   9  335.74   14.39
   6   2  10   52.91    4.63
   6   2  11   43.64    4.05
   6   2  12   40.74    6.90
  -6  -2 -12   49.52    5.74
   6   2  13   36.47    6.60
  -6  -2 -13   38.59    3.91
  -6  -3  16   98.51   14.33
   6   3 -16  113.06   10.81
  -6  -3  16   93.26   14.78
  -6  -3  15   30.70    4.69
   6   3 -15   35.99    4.40
  -6  -3  15   23.65    5.09
  -6  -3  14  122.57    9.49
   6   3 -14  134.42    5.27
  -6  -3  14  128.51   12.57
  -6  -3  13  132.65   10.02
   6   3 -13  125.63    5.80
  -6  -3  13  128.24    6.32
  -6  -3  12  147.62   17.77
   6   3 -12  162.27    6.99
  -6  -3  12  154.44   11.41
  -6  -3  11  208.08    7.96
   6   3 -11  229.41    8.47
  -6  -3  11  227.43   13.42
  -6  -3  10  182.98    9.43
   6   3 -10  181.53    7.29
  -6  -3  10  186.19   12.52
  -6  -3   9   30.03    4.26
   6   3  -9   30.54    3.30
  -6  -3   9   35.54    5.39
  -6  -3   8   20.06    3.42
   6   3  -8   15.62    2.38
  -6  -3   8   16.80    3.47
  -6  -3   7  255.85   10.09
   6   3  -7  230.14    9.01
   6   3  -7  269.13   10.56
  -6  -3   7  264.20   10.89
  -6  -3   6  782.92   14.76
   6   3  -6  775.24   14.59
   6   3  -6  861.77   18.78
  -6  -3   6  833.97   16.80
  -6  -3   5   66.99    4.81
   6   3  -5   67.06    4.74
   6   3  -5   74.66    5.57
  -6  -3   5   83.87    6.43
   6   3  -4  498.58   38.14
   6   3  -4  510.19    9.76
   6   3  -4  516.77   10.47
  -6  -3   4  527.70   11.09
   6   3  -3  800.40   14.69
  -6  -3   3  820.60   16.40
   6   3  -2  204.22    8.15
  -6  -3   2  206.70    8.61
   6   3  -1  121.49    5.10
  -6  -3   1  130.76    6.15
   6   3   0  497.95    9.77
  -6  -3   0  482.40    9.48
   6   3   1  296.98    9.75
  -6  -3  -1  284.22   21.76
   6   3   1  309.40   10.79
  -6  -3  -1  299.10   10.42
   6   3   2  923.35   17.11
  -6  -3  -2  899.80   16.67
   6   3   2  968.65   18.85
  -6  -3  -2  947.77   18.43
   6   3   3 1624.89   36.32
  -6  -3  -3 1637.66   36.34
   6   3   3 1722.84  205.54
  -6  -3  -3 1677.00  199.87
   6   3   4  152.39    8.27
  -6  -3  -4  133.03    6.69
   6   3   4  158.94    9.70
  -6  -3  -4  147.88    7.42
   6   3   5  119.16    6.65
   6   3   5  122.09    9.95
  -6  -3  -5  104.59    6.29
  -6  -3  -5  114.17    6.33
   6   3   6  153.34    7.68
   6   3   6  189.58   12.96
  -6  -3  -6  150.27    6.90
   6   3   7  469.60   14.36
   6   3   7  462.56   14.49
   6   3   8  459.21   14.05
   6   3   8  482.58   14.94
   6   3   9  185.43   12.65
   6   3   9  193.17    8.16
   6   3  10   65.73    7.25
   6   3  10   59.24    8.36
   6   3  11  110.69   11.14
   6   3  12   53.18    8.58
  -6  -3 -12   63.11    6.11
   6   3  13   19.49    4.38
  -6  -3 -13   29.33    4.18
  -6  -4  16   20.31    4.12
   6   4 -16   20.77    4.19
  -6  -4  16   14.42    3.36
  -6  -4  15   76.06    9.39
   6   4 -15   75.81    7.53
  -6  -4  15   75.69    7.23
  -6  -4  14   71.45   14.70
   6   4 -14   76.69    5.83
  -6  -4  14   66.02    7.49
  -6  -4  13   81.38    7.34
   6   4 -13   85.81    5.72
  -6  -4  13   77.15    5.06
  -6  -4  12   86.92   10.86
   6   4 -12  103.23    7.04
  -6  -4  12   94.73    6.48
  -6  -4  11  277.75   13.15
   6   4 -11  293.57    9.36
  -6  -4  11  271.17    9.02
  -6  -4  10  213.59   11.27
   6   4 -10  220.46    8.98
  -6  -4  10  229.00    8.70
  -6  -4   9   19.83    3.26
   6   4  -9   21.61    4.01
  -6  -4   9   19.55    3.17
  -6  -4   8    1.62    0.91
   6   4  -8    1.85    1.37
  -6  -4   8    4.30    2.29
  -6  -4   7   59.83    6.03
   6   4  -7   53.81    4.15
   6   4  -7   59.61    4.90
  -6  -4   7   51.72    4.70
  -6  -4   6  243.76    9.61
   6   4  -6  220.00    8.55
   6   4  -6  238.20    9.62
  -6  -4   6  246.96   10.37
  -6  -4   5  274.88   10.22
   6   4  -5  287.47   10.70
   6   4  -5  289.73   11.29
  -6  -4   5  305.64   12.17
   6   4  -4  370.55   12.70
  -6  -4   4  372.04   13.05
   6   4  -3 1085.06   20.83
  -6  -4   3 1053.07   20.51
   6   4  -2   22.28    2.03
  -6  -4   2   19.81    2.28
   6   4  -1   27.71    2.46
  -6  -4   1   26.60    2.66
   6   4   0  331.68   11.44
  -6  -4   0  333.93   11.98
   6   4   1  305.03   10.52
  -6  -4  -1  308.54   10.82
   6   4   2  180.96    7.04
  -6  -4  -2  177.27    6.85
   6   4   2  183.65    7.58
  -6  -4  -2  183.57    8.24
   6   4   3 1495.02   33.34
  -6  -4  -3 1414.13   31.41
   6   4   3 1568.65   35.80
  -6  -4  -3 1525.40   34.67
   6   4   4  259.92    9.72
  -6  -4  -4  234.61    8.66
   6   4   4  275.54   10.68
  -6  -4  -4  216.56    7.95
  -6  -4  -4  278.73   10.36
   6   4   5  191.50    9.34
   6   4   5  189.45    9.28
   6   4   6   93.45    4.62
   6   4   6  106.42    7.96
  -6  -4  -6   89.31    3.21
   6   4   7   46.91    6.34
   6   4   7   53.82    7.09
   6   4   8  102.27    5.21
   6   4   8  117.88    9.21
   6   4   9  132.61    8.96
   6   4   9  128.91   12.99
   6   4  10   96.01    7.59
   6   4  11   40.90    6.53
  -6  -4 -11   56.20    6.10
   6   4  12   21.00    4.14
  -6  -4 -12   28.56    4.73
   6   4  13   21.99    5.87
  -6  -4 -13   32.79    5.37
  -6  -5  16   66.13    7.79
  -6  -5  15  103.59   10.71
   6   5 -15   93.42   18.63
  -6  -5  15  114.60    9.96
   6   5 -14  112.94    5.35
  -6  -5  14  101.14   11.13
  -6  -5  13   68.81    7.11
   6   5 -13   69.52    5.13
  -6  -5  13   73.71    6.12
  -6  -5  12   56.59    7.05
   6   5 -12   69.67    6.43
  -6  -5  12   66.03    4.28
  -6  -5  11  136.21    9.81
   6   5 -11  156.73    6.86
  -6  -5  11  150.39    6.98
  -6  -5  10  695.53   20.46
   6   5 -10  750.81   91.72
  -6  -5  10  726.89   88.97
  -6  -5   9   92.04    5.08
   6   5  -9   95.39    7.43
  -6  -5   8    1.17    0.87
   6   5  -8    6.20    1.95
  -6  -5   8    4.31    1.97
  -6  -5   7    1.98    0.90
   6   5  -7    1.00    0.81
   6   5  -7    4.62    1.75
  -6  -5   7   -0.26    2.14
  -6  -5   6  177.26    9.65
   6   5  -6  168.05    9.02
   6   5  -6  187.27   26.21
  -6  -5   6  197.45    8.38
  -6  -5   5  932.47   18.50
   6   5  -5  992.30   19.68
   6   5  -5 1045.34   21.58
  -6  -5   5 1072.05   22.72
   6   5  -4  116.91    6.15
  -6  -5   4  110.81    6.20
   6   5  -3  476.67   11.43
  -6  -5   3  490.93   12.30
   6   5  -2  170.62    7.06
  -6  -5   2  176.46    7.61
   6   5  -1   50.17    5.29
  -6  -5   1   34.27    3.52
   6   5   0  222.29    9.30
  -6  -5   0  216.48   10.52
   6   5   1  226.84   10.47
  -6  -5  -1  223.53    9.13
  -6  -5  -2   30.40    3.70
  -6  -5  -2   35.49    5.45
   6   5   2   41.85    5.00
  -6  -5  -2   33.04    4.34
   6   5   3  386.16    7.88
  -6  -5  -3  382.61    7.60
   6   5   3  389.54    8.67
  -6  -5  -3  378.39    8.52
   6   5   4  775.11   15.31
   6   5   4  799.93   16.85
  -6  -5  -4  795.71   16.35
   6   5   5   36.61    4.30
   6   5   5   38.66    4.38
  -6  -5  -5   40.99    2.71
   6   5   6    1.27    1.10
   6   5   6    1.59    1.01
  -6  -5  -6    1.68    0.78
   6   5   7   47.04    5.01
   6   5   7   50.74    7.13
   6   5   8  112.97    7.28
   6   5   8  113.50    8.48
   6   5   9   53.73    7.57
   6   5   9   51.67    7.56
   6   5  10   35.96    5.76
   6   5  11   20.99    3.98
  -6  -5 -11   16.57    2.82
   6   5  12   20.05    3.99
  -6  -5 -12   31.16    4.17
  -6  -6  15   80.25    9.55
   6   6 -15  125.72   11.91
  -6  -6  15  125.60   12.18
  -6  -6  14  102.20   11.33
   6   6 -14  102.93   12.66
  -6  -6  14  123.13   10.78
  -6  -6  13   29.97    4.31
   6   6 -13   26.39    3.64
  -6  -6  13   29.64    4.84
  -6  -6  12  124.82    8.41
   6   6 -12  128.66   12.33
  -6  -6  12  136.45    6.02
  -6  -6  11  218.36    9.07
   6   6 -11  244.68    9.33
  -6  -6  11  245.62    9.85
  -6  -6  10  261.94   12.57
   6   6 -10  300.48   12.84
  -6  -6  10  295.51   13.04
  -6  -6   9  161.77    6.41
   6   6  -9  168.76    6.30
  -6  -6   8   12.33    2.17
   6   6  -8   12.01    2.36
  -6  -6   8   18.17    3.56
   6   6  -7  259.56   12.69
  -6  -6   7  264.31   13.53
  -6  -6   6  267.87   10.75
   6   6  -6  282.05   12.11
  -6  -6   6  300.79   12.91
  -6  -6   5  214.68    8.45
   6   6  -5  197.57    9.04
   6   6  -5  228.72    9.51
  -6  -6   5  231.96   10.79
   6   6  -4  282.54   10.69
  -6  -6   4  264.79   10.57
   6   6  -3   28.96    3.85
  -6  -6   3   28.20    4.14
   6   6  -2   29.15    3.83
  -6  -6   2   26.88    4.20
   6   6  -1   87.68    6.69
  -6  -6   1   78.24    6.36
   6   6   0  163.54    9.30
  -6  -6   0  171.85    9.70
   6   6   1   22.17    3.86
  -6  -6  -1   21.01    3.54
  -6  -6  -2   19.16    3.12
   6   6   2   28.48    3.70
  -6  -6  -2   28.91    3.01
  -6  -6  -3  100.16    3.66
   6   6   3  109.98    9.66
  -6  -6  -3  104.29    4.24
   6   6   4  178.00    6.58
   6   6   4  176.84    6.55
  -6  -6  -4  184.20    6.63
   6   6   5   16.73    2.56
   6   6   5   18.53    3.05
  -6  -6  -5   15.59    2.28
   6   6   6   41.21    5.10
   6   6   6   42.60    6.40
   6   6   7  104.76    8.92
   6   6   8  154.98    5.87
   6   6   8  167.02    5.47
   6   6   9   36.38    5.74
   6   6  10   31.88    5.12
  -6  -6 -10   41.29    4.56
  -6  -6 -11   75.57    8.90
   6   7 -14  106.64   10.30
  -6  -7  14  113.11   12.51
   6   7 -13   81.80    6.80
  -6  -7  13   74.37    6.60
  -6  -7  12  100.43    8.90
   6   7 -12  116.80    8.11
  -6  -7  12  105.97    8.02
  -6  -7  11  121.39    7.28
   6   7 -11  149.86    5.12
  -6  -7  11  148.05    6.27
  -6  -7  10   37.43    4.00
   6   7 -10   41.97    2.15
  -6  -7  10   40.61    2.97
  -6  -7   9  299.88   12.58
   6   7  -9  352.54   14.80
  -6  -7   9  328.74   14.40
  -6  -7   8  202.93    6.92
   6   7  -8  236.99    8.34
  -6  -7   8  208.79    8.34
  -6  -7   7  359.92    9.39
   6   7  -7  401.72   11.17
  -6  -7   7  397.10   12.26
   6   7  -6  292.06   45.46
  -6  -7   6  306.42    9.55
   6   7  -5  188.37    7.18
  -6  -7   5  179.49    7.86
   6   7  -4  225.31   10.97
  -6  -7   4  218.13   11.32
   6   7  -3   40.25    1.73
  -6  -7   3   38.09    2.69
   6   7  -2    6.03    1.13
  -6  -7   2   11.73    2.99
   6   7  -1   22.56    3.38
  -6  -7   1   23.74    3.77
   6   7   0  186.99    7.49
  -6  -7   0  176.35    7.18
   6   7   1  190.98    7.72
  -6  -7  -1  200.91   23.75
   6   7   2   25.91    2.91
  -6  -7  -2   22.21    2.19
   6   7   3   35.04    4.39
  -6  -7  -3   35.22    2.68
   6   7   4   58.16    5.52
  -6  -7  -4   47.82    3.12
   6   7   5   35.07    5.04
  -6  -7  -5   35.55    2.89
   6   7   6   41.55    4.56
   6   7   7   70.94    9.56
   6   7   8  126.07    9.38
  -6  -7 -10   72.55    8.61
   6   8 -14   44.53    6.24
  -6  -8  14   57.06    8.18
   6   8 -13   97.49    9.24
  -6  -8  13  117.84   11.71
   6   8 -12   21.50    3.92
  -6  -8  12   24.01    4.12
   6   8 -11   52.64    4.61
  -6  -8  11   49.07    5.38
   6   8 -10   85.37    7.49
  -6  -8  10  113.34    7.35
   6   8  -9  127.62    3.79
  -6  -8   9  119.94    5.07
   6   8  -8  102.90    6.53
  -6  -8   8  107.54    7.62
   6   8  -7  176.40    7.22
  -6  -8   7  184.19    8.50
   6   8  -6  225.58    7.90
  -6  -8   6  229.64    8.97
   6   8  -5  274.04    8.32
  -6  -8   5  294.74    9.90
   6   8  -4  216.42    7.54
  -6  -8   4  209.79    8.25
   6   8  -3  114.30    5.46
  -6  -8   3  135.38    7.33
   6   8  -2   14.10    2.33
  -6  -8   2   12.83    2.63
   6   8  -1  107.26    8.55
  -6  -8   1  105.62   16.87
   6   8   0  339.95   10.64
  -6  -8   0  340.83   10.78
   6   8   1  239.11    8.35
  -6  -8  -1  230.69    8.52
   6   8   2  128.35   10.91
  -6  -8  -2  117.66    7.11
   6   8   3   68.91    7.44
  -6  -8  -3   68.52    3.72
   6   8   4   69.30    8.37
  -6  -8  -4   75.17    5.37
   6   8   5   29.18    4.85
   6   8   6   46.54    6.77
   6   8   7   40.12    6.74
  -6  -8  -9  176.75   16.33
  -6  -9  13   48.26    7.16
  -6  -9  12  101.92   10.35
  -6  -9  11   90.60    8.92
   6   9  -9   27.08    3.44
  -6  -9   9   36.42    4.87
   6   9  -8   46.83    3.75
  -6  -9   8   44.43    4.51
   6   9  -7   63.82    3.37
  -6  -9   7   70.05    4.99
  -6  -9   6   76.45    8.18
  -6  -9   5   52.51    4.87
  -6  -9   4  454.59   16.75
   6   9  -3   97.56    7.11
  -6  -9   3  108.40    7.06
   6   9  -2   33.44    4.01
  -6  -9   2   29.77    3.96
   6   9  -1  174.24    7.63
  -6  -9   1  181.72    7.90
   6   9   0  276.35   11.32
  -6  -9   0  295.22   11.16
   6   9   1  156.66   10.96
  -6  -9  -1  165.25    7.58
   6   9   2  197.26    7.50
  -6  -9  -2  213.29    6.60
   6   9   3  136.48    4.12
  -6  -9  -3  142.22    4.38
   6   9   4  145.56    5.44
  -6  -9  -4  150.62    5.17
   6   9   5   52.29    8.36
   6   9   6   17.35    3.39
  -6  -9  -8   91.44    8.83
  -6 -10  11   49.20    7.63
  -6 -10   9   68.53    6.76
  -6 -10   8   10.09    3.32
  -6 -10   7   15.44    3.24
  -6 -10   6  305.01   10.27
  -6 -10   5   67.21    5.61
  -6 -10   4  219.96    8.18
  -6 -10   3  153.68    5.57
  -6 -10   2   22.77    3.20
  -6 -10   1   86.83    5.27
  -6 -10   0  224.95    7.74
   6  10   1  120.75    6.80
  -6 -10  -1  125.64   13.24
   6  10   2   86.90    6.04
  -6 -10  -2   96.76    7.00
   6  10   3  169.41    8.35
  -6 -10  -3  188.92    8.25
   6  10   4   27.05    5.44
  -6 -10  -4   38.28    4.07
   6  10   5   19.80    3.90
  -6 -10  -7  133.96    9.31
  -6 -11   9    2.29    2.38
  -6 -11   8   23.38    4.65
  -6 -11   7   60.63    6.35
  -6 -11   6  251.33   21.06
  -6 -11   5  223.04    9.94
  -6 -11   4    3.36    1.85
  -6 -11   3  110.26    5.98
  -6 -11   2   18.67    3.57
  -6 -11   1   76.13    6.73
  -6 -11   0   88.67    9.00
  -6 -11  -1   83.12    9.39
  -6 -11  -2   39.76    4.92
  -6 -11  -3   31.04    5.37
  -6 -12   7   82.81    7.00
  -6 -12   6   37.30    6.18
  -6 -12   5  140.27   13.69
  -6 -12   4   37.52   10.31
  -6 -12   3   62.47    7.79
  -6 -12   2   72.50    8.60
  -6 -12   1   80.36    8.08
  -6 -12   0   59.97    8.87
  -6 -12  -1   36.07    5.60
  -6 -12  -2   24.42    4.04
   7 -12  -6    2.92    2.00
  -7  12   6    3.32    2.15
   7 -12  -5   20.08    4.27
   7 -12  -4   18.42    3.90
  -7  12   4   15.95    3.76
   7 -12  -3   10.99    3.25
  -7  12   3   10.14    3.39
   7 -12  -2   70.78    8.79
  -7  12   2   70.63   10.84
   7 -12  -1   31.25    4.89
  -7  12   1   15.24    3.98
   7 -12   0   11.86    4.06
  -7  12   0    5.01    1.34
   7 -12   1   47.60    5.40
  -7  12  -1   35.21    6.91
   7 -12   2   33.16    5.30
  -7  12  -2   15.75    3.89
   7 -12   3   18.22    4.20
  -7  12  -3   12.65    3.38
   7 -12   4   26.43    4.46
  -7  12  -4   16.99    4.53
   7 -11  -8   31.12    4.98
  -7  11   8   33.74    7.69
   7 -11  -7    2.52    1.94
  -7  11   7    4.72    1.67
   7 -11  -6   12.41    3.37
  -7  11   6   19.21    3.86
   7 -11  -5   90.70    8.93
   7 -11  -4  100.79    5.32
  -7  11   4  101.97   12.79
   7 -11  -3   23.19    4.28
  -7  11   3   27.61    5.72
   7 -11  -2   10.31    2.25
  -7  11   2   18.18    3.47
   7 -11  -1   36.54    4.35
  -7  11   1   49.44    7.28
   7 -11   0    3.29    1.76
  -7  11   0    6.57    1.91
   7 -11   1   21.24    3.89
  -7  11  -1   36.14    6.50
   7 -11   2   42.61    5.24
  -7  11  -2   36.29    7.06
   7 -11   3   31.15    5.00
  -7  11  -3   26.16    4.71
   7 -11   4   33.63    4.06
  -7  11  -4   34.79    6.02
   7 -11   5   19.55    4.23
  -7  11  -5   16.30    4.17
   7 -11   6   10.31    3.94
  -7  11  -6    3.53    1.57
   7 -11   7    5.53    2.42
  -7  11  -7    5.60    1.86
   7 -10 -10   42.54    6.20
  -7  10  10   38.31    7.67
   7 -10  -9   15.29    3.44
  -7  10   9   13.98    3.80
   7 -10  -8   27.59    5.10
  -7  10   8   34.39    5.01
   7 -10  -7    4.69    2.30
  -7  10   7    4.99    1.96
   7 -10  -6   57.19    5.17
  -7  10   6   61.35    9.41
   7 -10  -5  195.23    9.20
  -7  10   5  182.26   12.93
   7 -10  -4  159.98    6.46
  -7  10   4  155.69   12.53
   7 -10  -3   39.67    5.26
  -7  10   3   35.35    5.84
   7 -10  -2   25.48    3.12
  -7  10   2   26.39    4.13
   7 -10  -1   22.51    3.29
  -7  10   1   29.42    4.09
   7 -10   0   52.30    4.97
  -7  10   0   43.15    5.86
   7 -10   1   50.87    4.61
  -7  10  -1   45.80    6.91
   7 -10   2   62.40    5.71
  -7  10  -2   57.69    6.48
   7 -10   3   15.52    3.33
  -7  10  -3   20.74    3.79
   7 -10   4   69.07    6.57
  -7  10  -4   62.50    5.95
   7 -10   5   17.92    3.68
  -7  10  -5   14.30    3.89
   7 -10   6   13.92    3.15
  -7  10  -6    6.07    2.27
   7 -10   7    9.37    3.60
  -7  10  -7    3.20    1.20
   7 -10   8    3.06    2.10
   7  -9 -11   34.62    4.36
  -7   9  11   33.43    6.02
   7  -9 -10   18.17    4.06
  -7   9  10   28.23    5.96
   7  -9  -9    6.71    1.68
  -7   9   9    7.84    1.97
   7  -9  -8   30.13    3.23
  -7   9   8   34.60    7.05
   7  -9  -7   22.20    3.83
  -7   9   7   31.84    5.34
   7  -9  -6   14.55    2.07
   7  -9  -5   92.08    4.81
  -7   9   5   99.13    6.55
   7  -9  -4   89.92    5.77
  -7   9   4  107.78   11.13
   7  -9  -3    9.48    1.41
  -7   9   3    8.46    1.61
   7  -9  -2   50.47    3.90
  -7   9   2   52.44    7.19
   7  -9  -1   44.96    3.40
  -7   9   1   46.16    7.39
   7  -9   0   58.86    5.27
  -7   9   0   59.39    9.42
   7  -9   1   42.11    4.94
  -7   9  -1   57.69    5.75
   7  -9   2   38.19    3.83
  -7   9  -2   43.23    4.22
   7  -9   3   37.30    5.03
  -7   9  -3   46.81    6.72
   7  -9   4   16.37    2.80
  -7   9  -4   20.29    2.80
  -7   9  -5   97.37    7.61
  -7   9  -6   10.60    1.95
   7  -9   7    9.96    2.99
  -7   9  -7    7.63    2.75
   7  -9   8    5.63    3.15
   7  -9   9   17.54    3.87
   7  -8 -12   12.55    2.85
   7  -8 -12   11.51    2.66
  -7   8  12   12.12    2.89
   7  -8 -11   13.45    2.54
   7  -8 -11    9.73    2.82
  -7   8  11   11.84    3.03
   7  -8 -10   20.19    3.06
   7  -8 -10   24.06    3.17
  -7   8  10   21.37    3.23
   7  -8  -9   62.66    5.08
   7  -8  -9   54.50    4.53
  -7   8   9   62.46    5.11
   7  -8  -8   36.69    4.15
   7  -8  -8   36.46    4.93
  -7   8   8   44.45    4.26
   7  -8  -7    9.18    2.02
   7  -8  -7   11.73    1.95
  -7   8   7    9.04    1.71
   7  -8  -6   16.14    2.94
   7  -8  -6   16.17    2.55
   7  -8  -5   81.39    4.55
   7  -8  -5   76.51    3.91
  -7   8   5   90.92    5.20
   7  -8  -4    1.69    1.80
   7  -8  -4    3.41    1.48
  -7   8   4    6.03    1.90
   7  -8  -3   22.41    3.11
   7  -8  -3   24.99    2.95
  -7   8   3   24.45    3.76
   7  -8  -2    8.48    2.73
   7  -8  -2    7.74    1.58
  -7   8   2    0.94    0.94
   7  -8  -1  138.61    6.96
   7  -8  -1  132.23    6.23
  -7   8   1  139.16   10.47
   7  -8   0    8.62    2.25
   7  -8   0   14.65    2.97
  -7   8   0   18.05    3.47
   7  -8   1   34.69    4.35
   7  -8   1   26.09    3.84
  -7   8  -1   34.10    5.30
   7  -8   2   29.45    3.77
   7  -8   2   27.82    4.59
  -7   8  -2   29.29    4.65
   7  -8   3   34.01    3.61
   7  -8   3   27.91    5.10
  -7   8  -3   32.10    3.57
   7  -8   4    4.66    2.17
   7  -8   4    1.28    1.04
  -7   8  -4    2.57    1.11
   7  -8   5   66.13    5.20
   7  -8   5   72.88    5.28
  -7   8  -5   71.81    6.35
   7  -8   6   97.32    4.75
   7  -8   6   82.44    6.16
  -7   8  -6   86.46   10.25
   7  -8   7   16.21    3.50
   7  -8   7    8.54    1.61
  -7   8  -7   10.99    2.32
   7  -8   8    3.86    2.25
   7  -8   8    2.34    1.13
  -7   8  -8    0.99    0.78
   7  -8   9   12.37    3.52
   7  -7 -13   21.11    3.87
   7  -7 -13   20.35    4.30
  -7   7  13   26.36    4.78
   7  -7 -12   57.60   11.51
   7  -7 -12   57.56   10.98
  -7   7  12   50.40    5.67
   7  -7 -11   66.09    5.75
   7  -7 -11   70.64    5.93
  -7   7  11   77.57    6.06
   7  -7 -10    5.44    1.63
   7  -7 -10    3.96    2.04
  -7   7  10    9.71    2.32
   7  -7  -9   49.92    4.81
   7  -7  -9   46.71    4.02
  -7   7   9   39.33    4.45
   7  -7  -8  115.23    5.94
   7  -7  -8  107.09    9.97
  -7   7   8  122.20    5.85
   7  -7  -7  116.49    7.41
   7  -7  -7  111.09    6.69
  -7   7   7  136.98    8.44
   7  -7  -6   22.11    3.57
   7  -7  -6   22.35    3.38
  -7   7   6   25.84    3.57
   7  -7  -5   12.57    2.41
   7  -7  -5   13.04    2.09
  -7   7   5   12.95    2.31
   7  -7  -4    2.46    1.81
   7  -7  -4    1.74    1.05
  -7   7   4    3.86    2.08
   7  -7  -3  157.11    6.96
   7  -7  -3  162.59    6.36
  -7   7   3  182.25    7.54
   7  -7  -2   64.80    3.20
   7  -7  -2   59.52    2.25
  -7   7   2   62.52    3.85
   7  -7  -1    8.63    3.40
  -7   7   1    6.95    1.49
   7  -7   0   71.84    4.67
   7  -7   0   65.41    2.34
  -7   7   0   69.59   10.43
   7  -7   1   54.49    3.66
   7  -7   1   50.69    4.02
  -7   7  -1   49.76    3.07
   7  -7   2   18.03    3.02
   7  -7   2   16.23    2.99
  -7   7  -2   16.74    3.25
   7  -7   3   11.48    2.50
   7  -7   3   14.60    3.14
  -7   7  -3   15.68    2.72
   7  -7   4   32.71    4.19
   7  -7   4   34.37    4.97
  -7   7  -4   42.14    7.12
   7  -7   5   32.14    3.61
   7  -7   5   32.72    4.98
  -7   7  -5   31.69    5.10
   7  -7   6  123.28    6.59
   7  -7   6  118.17    6.59
  -7   7  -6  117.26    7.43
   7  -7   7   10.56    2.99
   7  -7   7    2.41    0.72
  -7   7  -7    2.82    0.97
   7  -7   8   26.84    3.72
   7  -7   8   18.43    3.80
  -7   7  -8   16.06    3.91
   7  -7   9  100.52    7.48
   7  -7  10   45.65    5.60
   7  -7  11   17.51    3.97
  -7   7 -11   12.51    2.73
   7  -6 -14   33.84    5.70
   7  -6 -14   24.95    4.61
  -7   6  14   26.03    4.82
   7  -6 -13   58.85    9.55
   7  -6 -13   77.02    7.35
  -7   6  13   73.80    7.08
   7  -6 -12   48.49    7.07
   7  -6 -12   35.20    4.50
  -7   6  12   42.39    4.45
   7  -6 -11   31.87    5.15
   7  -6 -11   27.71    3.46
  -7   6  11   40.95    4.96
   7  -6 -10   44.22    6.02
   7  -6 -10   37.51    2.35
  -7   6  10   37.40    2.83
   7  -6  -9  130.95    8.32
   7  -6  -9  117.67    9.91
  -7   6   9  128.34    8.12
   7  -6  -8  231.12    8.69
   7  -6  -8  194.97   10.44
  -7   6   8  221.60    8.42
   7  -6  -7    7.84    2.52
   7  -6  -7    4.26    1.68
  -7   6   7    1.22    1.32
   7  -6  -6    4.79    1.60
   7  -6  -6    3.88    2.00
  -7   6   6    2.10    1.48
   7  -6  -5  203.40   24.12
   7  -6  -5  226.31   11.33
  -7   6   5  238.54   12.04
   7  -6  -4  221.91    9.89
   7  -6  -4  228.89    9.58
  -7   6   4  215.72    9.31
   7  -6  -3   67.09    6.08
   7  -6  -3   62.77    5.40
  -7   6   3   73.58    4.71
   7  -6  -2  664.05   14.44
   7  -6  -2  670.51   13.74
  -7   6   2  655.56   14.08
   7  -6  -1    2.94    2.14
   7  -6  -1    1.83    1.14
  -7   6   1    5.58    2.09
   7  -6   0  164.13    8.74
   7  -6   0  156.16    7.61
  -7   6   0  150.73    9.56
   7  -6   1  340.64    8.83
   7  -6   1  316.73   12.90
  -7   6  -1  311.82   13.56
   7  -6   2  288.59   12.25
   7  -6   2  299.68   12.26
  -7   6  -2  320.67   15.08
   7  -6   3  200.51   23.82
   7  -6   3  201.49   24.01
  -7   6  -3  218.24   15.14
   7  -6   4  180.55    7.55
   7  -6   4  153.49    7.20
  -7   6  -4  159.74    8.72
   7  -6   5   64.15    4.19
   7  -6   5   64.64    4.47
  -7   6  -5   67.09    6.32
   7  -6   6  137.72    6.74
   7  -6   6  139.41    6.38
  -7   6  -6  141.68    6.25
   7  -6   7   72.09    5.90
   7  -6   7   60.68    5.78
  -7   6  -7   65.47    4.83
   7  -6   8  200.75    6.83
   7  -6   8  179.94    7.29
  -7   6  -8  182.69    5.77
   7  -6   9   68.15    5.58
   7  -6   9   53.11    9.85
   7  -6  11   18.95    3.40
  -7   6 -11   19.58    3.07
   7  -6  12   28.93    4.90
  -7   6 -12   29.88    4.62
  -7   5  15   37.54    6.35
   7  -5 -15   35.89    5.36
  -7   5  15   30.19    4.65
  -7   5  14    6.93    2.28
   7  -5 -13   58.29    8.30
   7  -5 -13   60.83    7.17
  -7   5  13   36.60    4.33
   7  -5 -12   56.61    4.97
   7  -5 -12   40.44    4.63
  -7   5  12   57.63    5.14
   7  -5 -11  104.20    8.92
   7  -5 -11  113.84    4.12
  -7   5  11  113.18    4.40
   7  -5 -10  280.79   12.32
   7  -5 -10  262.70   11.54
  -7   5  10  273.17   12.13
   7  -5  -9    3.68    1.64
   7  -5  -9    2.90    1.76
  -7   5   9    6.50    2.28
   7  -5  -8    4.01    1.66
   7  -5  -8    3.23    1.66
  -7   5   8    2.17    1.44
   7  -5  -7    0.31    1.55
   7  -5  -7    7.29    2.26
   7  -5  -6   71.14    4.79
   7  -5  -6   75.21    4.64
  -7   5   6   70.12    9.04
   7  -5  -5  478.09   10.62
   7  -5  -5  475.91   10.39
  -7   5   5  478.43   10.69
   7  -5  -4  262.56   10.30
   7  -5  -4  268.39   10.29
  -7   5   4  263.84   10.37
   7  -5  -3   26.24    3.89
   7  -5  -3   23.46    3.29
  -7   5   3   26.90    3.69
   7  -5  -2  212.21    8.56
   7  -5  -2  203.17    7.91
  -7   5   2  207.04    8.34
   7  -5  -1  129.83    7.64
   7  -5  -1  127.90    7.25
  -7   5   1  132.63    7.76
   7  -5   0   69.16    5.82
   7  -5   0   60.49    4.84
  -7   5   0   60.10    4.91
   7  -5   1  320.99    7.93
   7  -5   1  349.47   13.29
  -7   5  -1  326.28    7.76
   7  -5   2  420.58   10.02
   7  -5   2  414.45   10.72
  -7   5  -2  424.67   10.42
   7  -5   3  152.96    8.04
   7  -5   3  142.24    8.57
  -7   5  -3  151.31    7.43
   7  -5   4  130.18    6.02
   7  -5   4  116.40    7.62
  -7   5  -4  113.63    7.43
   7  -5   5  195.71    7.99
   7  -5   5  199.80   23.58
  -7   5  -5  193.10    7.92
   7  -5   6  258.10    9.59
   7  -5   6  248.46   11.38
  -7   5  -6  242.40    8.37
   7  -5   7   47.20    4.27
   7  -5   7   66.28    4.24
  -7   5  -7   51.70    4.65
   7  -5   8   88.82    6.40
   7  -5   8   91.41    6.62
  -7   5  -8   78.84    6.44
   7  -5   9  132.20    4.99
   7  -5   9  129.76   11.85
   7  -5  10   27.94    5.73
   7  -5  10   24.37    4.22
   7  -5  11   93.38    4.99
   7  -5  12   22.91    4.33
  -7   5 -12   39.11    3.88
  -7   4  15   28.53    7.21
   7  -4 -15   25.52    4.58
  -7   4  15   32.29    4.47
  -7   4  14   68.54    8.79
   7  -4 -14   56.04    6.21
  -7   4  14   60.79    6.63
  -7   4  13  110.60    9.61
   7  -4 -13  109.05    8.06
  -7   4  13  114.02    8.25
  -7   4  12  309.57   13.80
   7  -4 -12  309.12    9.02
  -7   4  12  299.73    8.84
   7  -4 -11  270.56   10.35
   7  -4 -11  305.01   18.93
  -7   4  11  280.87   10.82
   7  -4 -10   42.75    5.52
   7  -4 -10   39.18    4.99
  -7   4  10   35.78    4.16
   7  -4  -9   16.03    3.05
   7  -4  -9   14.19    2.52
  -7   4   9   12.83    2.34
   7  -4  -8   12.65    2.27
   7  -4  -8   12.38    2.41
  -7   4   8   11.03    2.00
   7  -4  -7  363.24    8.32
   7  -4  -7  362.60    8.50
  -7   4   7  364.71    8.59
   7  -4  -6  172.07    9.85
   7  -4  -6  178.55   10.15
  -7   4   6  180.41   10.20
   7  -4  -5  183.87   25.84
   7  -4  -5  166.27    9.36
  -7   4   5  165.53    9.41
   7  -4  -4   91.99    5.16
   7  -4  -4   92.22    5.07
  -7   4   4   98.96    5.63
   7  -4  -3   91.99    5.35
   7  -4  -3   93.51    5.07
  -7   4   3  106.65    5.98
   7  -4  -2   13.95    1.97
   7  -4  -2   11.69    1.58
  -7   4   2   10.04    1.38
   7  -4  -1   79.07    4.76
   7  -4  -1   73.17    4.23
  -7   4   1   78.46    4.41
   7  -4   0    0.08    1.67
   7  -4   0   -0.30    1.07
  -7   4   0    2.17    1.16
   7  -4   1   31.74    3.41
   7  -4   1   25.85    2.62
  -7   4  -1   29.46    2.80
   7  -4   2   44.26    4.13
   7  -4   2   41.43    5.47
  -7   4  -2   39.17    3.35
   7  -4   3  155.56    9.00
   7  -4   3  150.19    8.56
  -7   4  -3  145.75    8.10
   7  -4   4  103.53    6.00
   7  -4   4  104.77    8.23
  -7   4  -4  102.91    5.69
   7  -4   5  181.54    7.60
   7  -4   5  198.16   23.41
  -7   4  -5  190.04    7.45
   7  -4   6   62.10    3.81
   7  -4   6   63.38    5.59
  -7   4  -6   57.27    9.06
   7  -4   7   22.55    2.86
   7  -4   7   18.47    3.22
  -7   4  -7   17.33    2.34
   7  -4   8   56.37    4.88
   7  -4   8   58.87    7.26
   7  -4   9  283.00    8.68
   7  -4   9  247.40   10.66
   7  -4  10    8.59    2.78
   7  -4  10    4.51    1.55
   7  -4  11  163.50    7.56
   7  -4  12  111.13    9.89
  -7   4 -12  109.44    9.65
   7  -4  13    6.38    2.35
  -7   4 -13    7.65    2.04
  -7   3  16    9.10    2.89
   7  -3 -16   11.49    2.99
  -7   3  15    0.10    1.55
   7  -3 -15    7.47    2.76
  -7   3  15    7.97    2.68
  -7   3  14  344.68   68.30
   7  -3 -14  355.01   70.30
  -7   3  14  329.01   13.26
  -7   3  13  318.06   10.44
   7  -3 -13  329.52   10.65
  -7   3  13  313.70    9.98
  -7   3  12  222.80   12.05
   7  -3 -12  200.48    8.10
  -7   3  12  211.57    8.57
  -7   3  11   77.12    8.07
   7  -3 -11   63.33    5.84
  -7   3  11   77.90    4.44
   7  -3 -10   46.31    4.03
  -7   3  10   41.93    3.31
   7  -3  -9  251.08   12.48
   7  -3  -9  244.81   13.00
  -7   3   9  251.69   14.57
   7  -3  -8  193.93    9.69
   7  -3  -8  182.41    9.19
  -7   3   8  192.25    9.58
   7  -3  -7  366.30    8.58
   7  -3  -7  375.21    8.92
  -7   3   7  391.71    9.37
   7  -3  -6  394.19    9.13
   7  -3  -6  425.30    9.85
  -7   3   6  350.74    8.48
   7  -3  -5  401.24    9.99
   7  -3  -5  406.58   10.19
  -7   3   5  382.77   14.88
   7  -3  -4  335.14   13.02
   7  -3  -4  330.27   12.80
  -7   3   4  355.00   13.89
   7  -3  -3  105.36    5.41
   7  -3  -3  116.73    5.92
  -7   3   3  106.62    5.38
   7  -3  -2  199.97    8.91
   7  -3  -2  185.92    8.23
  -7   3   2  186.07    8.30
   7  -3  -1    0.29    1.42
   7  -3  -1    2.66    1.84
  -7   3   1    4.88    1.64
   7  -3   0   15.74    2.10
   7  -3   0   14.68    1.73
  -7   3   0   20.83    2.17
   7  -3   1  164.42    8.66
   7  -3   1  163.21   10.13
  -7   3  -1  171.88    7.14
   7  -3   2   96.84    5.52
   7  -3   2   94.03    6.41
  -7   3  -2   99.14    5.36
   7  -3   3  381.01   14.77
   7  -3   3  418.95   18.06
  -7   3  -3  404.51    9.75
   7  -3   4   22.60    3.32
   7  -3   4   31.06    5.40
  -7   3  -4   19.53    3.76
   7  -3   5   80.11    5.04
   7  -3   5   73.54    8.13
  -7   3  -5   82.74    5.61
   7  -3   6  188.18    7.74
   7  -3   6  179.53   11.62
  -7   3  -6  169.54    6.51
   7  -3   7   18.18    2.94
   7  -3   7   23.85    3.47
  -7   3  -7   12.92    2.44
   7  -3   8    8.15    2.62
   7  -3   8    4.03    1.40
   7  -3   9  154.20    7.44
   7  -3   9  150.54    8.29
   7  -3  10  159.90    5.87
   7  -3  10  146.00    8.57
   7  -3  11   70.38    6.09
   7  -3  11   62.06    8.06
   7  -3  12  108.11    9.61
  -7   3 -12  111.37    9.82
   7  -3  13    3.11    2.25
  -7   3 -13    5.20    3.21
  -7   2  16   14.30    3.67
   7  -2 -16   23.32    4.75
  -7   2  16   21.50    3.90
  -7   2  15   33.84    5.06
   7  -2 -15   31.00    5.37
  -7   2  15   35.97    4.89
  -7   2  14  160.22   14.80
   7  -2 -14  161.22    7.49
  -7   2  14  164.11    7.62
  -7   2  13  116.68    7.29
   7  -2 -13  114.63    4.59
  -7   2  13  121.71    4.52
  -7   2  12   64.79    7.64
   7  -2 -12   53.52    4.22
  -7   2  12   74.12    5.79
  -7   2  11   71.73    7.68
   7  -2 -11   82.11    7.03
  -7   2  11   70.83    4.40
  -7   2  10  185.86    9.58
   7  -2 -10  173.70   12.55
  -7   2  10  155.31    7.64
  -7   2   9   39.85    3.68
   7  -2  -9   32.41    4.70
  -7   2   9   37.45    2.34
   7  -2  -8  385.98    8.70
   7  -2  -8  393.69    9.10
   7  -2  -7  390.64    9.51
   7  -2  -7  404.91    9.50
  -7   2   7  412.99    9.83
   7  -2  -6  308.26   11.91
   7  -2  -6  318.44   12.46
  -7   2   6  318.11   12.57
   7  -2  -5  254.94   10.21
   7  -2  -5  267.96   10.70
  -7   2   5  265.93   10.69
   7  -2  -4  554.91   11.18
   7  -2  -4  563.44   11.58
  -7   2   4  556.48   11.67
   7  -2  -3  220.92    9.62
   7  -2  -3  227.89    9.98
  -7   2   3  230.32   10.15
   7  -2  -2   74.06    5.59
   7  -2  -2   68.40    5.27
  -7   2   2   80.96    7.39
   7  -2  -1   87.37    6.46
   7  -2  -1   91.32    4.68
  -7   2   1   93.23    4.72
   7  -2   0  115.56    5.62
   7  -2   0  113.52    5.71
  -7   2   0  117.24    5.70
   7  -2   1  311.63   10.78
   7  -2   1  312.86   11.85
  -7   2  -1  315.60   10.84
   7  -2   2  172.94    7.28
   7  -2   2  169.39    7.18
  -7   2  -2  176.77    7.25
   7  -2   3   70.49    4.20
   7  -2   3   81.14    8.33
  -7   2  -3   72.00    3.96
   7  -2   4  265.61   10.21
   7  -2   4  285.77   16.24
  -7   2  -4  268.58    9.96
   7  -2   5   61.88    5.57
   7  -2   5   52.55    6.49
  -7   2  -5   53.97    5.27
   7  -2   5   43.02    3.74
   7  -2   6   11.82    2.18
   7  -2   6    5.62    1.53
  -7   2  -6    4.20    0.91
   7  -2   7  118.26    5.97
   7  -2   7  110.80    7.94
   7  -2   8   18.33    2.49
   7  -2   8   33.57    4.55
   7  -2   9  304.66   11.43
   7  -2   9  293.90   11.16
   7  -2  10  207.15    6.56
   7  -2  10  210.80    7.04
   7  -2  11    3.75    2.01
   7  -2  11    1.86    1.72
   7  -2  12   26.17    4.33
   7  -2  13    2.02    1.76
  -7   2 -13    6.10    2.33
  -7   1  16   15.36    4.07
   7  -1 -16   32.51    4.93
  -7   1  16   16.93    3.51
  -7   1  15   19.87    4.61
   7  -1 -15   18.54    2.99
  -7   1  15   19.39    3.23
  -7   1  14   37.61    5.32
   7  -1 -14   37.17    4.56
  -7   1  14   54.34   10.48
  -7   1  13   37.74    5.44
   7  -1 -13   39.58    4.45
  -7   1  13   38.78    4.61
  -7   1  12    5.92    1.55
   7  -1 -12    4.74    1.75
  -7   1  12    5.64    1.78
  -7   1  11   30.64    4.20
   7  -1 -11   29.39    4.10
  -7   1  11   25.93    3.20
  -7   1  10   24.75    2.86
   7  -1 -10   21.54    2.65
  -7   1  10   17.66    2.76
  -7   1   9  177.61    8.82
   7  -1  -9  196.33    9.93
  -7   1   9  193.66   13.21
  -7   1   8  213.47    8.58
   7  -1  -8  219.53    8.84
   7  -1  -7  203.47    9.25
   7  -1  -7  206.68    8.23
  -7   1   7  200.87    8.11
   7  -1  -6   84.34    7.62
   7  -1  -6   74.60    4.76
  -7   1   6   73.01    4.39
   7  -1  -5   71.50    5.29
   7  -1  -5   76.25    5.76
  -7   1   5   87.84    9.41
   7  -1  -4  330.37   11.54
   7  -1  -4  347.29   12.05
  -7   1   4  360.37   12.54
   7  -1  -3 1186.02   22.84
  -7   1   3 1207.57   23.28
   7  -1  -2   97.03    4.69
   7  -1  -2   96.69    4.94
  -7   1   2  109.40    5.43
   7  -1  -1  133.75    6.40
   7  -1  -1  144.04    6.90
  -7   1   1  141.31    6.77
   7  -1   0  164.52    7.68
   7  -1   0  168.81    7.59
  -7   1   0  169.16    7.51
   7  -1   1  217.43    9.44
   7  -1   1  204.28    9.04
  -7   1  -1  209.04    9.10
   7  -1   2  512.55   10.39
   7  -1   2  554.55   11.39
  -7   1  -2  558.19   11.07
   7  -1   3  454.16   10.98
   7  -1   3  440.62   10.89
  -7   1  -3  471.84   11.08
   7  -1   4  308.12   42.94
   7  -1   4  306.61   12.20
  -7   1  -4  300.68   11.03
   7  -1   4  249.60    9.52
   7  -1   5   37.08    3.67
   7  -1   5   35.14    4.82
  -7   1  -5   30.49    3.34
   7  -1   5   26.22    2.80
   7  -1   6   13.95    2.52
   7  -1   6   16.16    3.01
  -7   1  -6   11.68    2.26
   7  -1   7  141.28    6.86
   7  -1   7  138.86   10.96
   7  -1   8  259.99    8.42
   7  -1   8  283.94   14.69
   7  -1   9  104.16    6.85
   7  -1   9  113.37   10.77
   7  -1  10   13.99    2.37
   7  -1  10   15.21    3.30
   7  -1  11   18.98    2.91
   7  -1  11   17.02    3.84
   7  -1  12   28.02    4.54
  -7   1 -13    8.97    2.48
  -7   0  16   23.73    4.93
   7   0 -16   25.95    4.82
  -7   0  16   30.29    3.99
  -7   0  15   34.61    6.07
  -7   0  15   37.94    4.42
  -7   0  14   42.69    5.18
  -7   0  14   42.37    4.05
  -7   0  13    2.60    0.96
   7   0 -13    4.52    2.31
  -7   0  13    2.95    1.55
  -7   0  12    4.48    1.18
   7   0 -12    2.39    1.97
  -7   0  12    4.80    1.70
  -7   0  11  190.22    7.79
   7   0 -11  193.24    7.45
  -7   0  11  202.35    8.66
  -7   0  10   19.48    2.27
   7   0 -10    9.16    1.95
  -7   0  10   11.83    2.46
  -7   0   9  321.58   13.50
   7   0  -9  312.40   13.84
  -7   0   9  323.35   39.64
  -7   0   8   94.74   13.93
   7   0  -8   90.71    7.24
  -7   0   8   78.13    6.27
   7   0  -7   65.07    5.73
   7   0  -7   75.08    6.00
  -7   0   7   58.05    4.97
   7   0  -6   96.70    5.65
   7   0  -6   97.98    5.42
  -7   0   6  103.92    5.95
   7   0  -5  199.61    8.59
   7   0  -5  208.76    9.23
  -7   0   5  211.04    9.58
   7   0  -4  209.25    9.03
   7   0  -4  239.46   10.71
   7   0  -4  224.86    9.93
  -7   0   4  253.77   11.27
   7   0  -3  349.58   11.69
   7   0  -3  376.52   12.59
   7   0  -3  378.31   13.00
  -7   0   3  408.49   14.06
   7   0  -2  358.21   12.07
   7   0  -2  368.42   12.33
   7   0  -2  389.68   13.34
  -7   0   2  393.14   13.70
   7   0  -1   86.08    6.18
  -7   0   1   86.65    7.11
   7   0  -1   92.71    4.68
  -7   0   1   96.03    7.35
   7   0   0  361.65   12.13
  -7   0   0  349.72   11.64
   7   0   0  375.82   12.92
  -7   0   0  380.88   12.95
   7   0   1  967.24   18.30
   7   0   1  971.32   20.23
  -7   0  -1  990.76   18.95
   7   0   2 1055.22   19.97
   7   0   2 1036.90   23.02
  -7   0  -2 1022.10   20.11
   7   0   3  240.87    9.59
   7   0   3  260.87   31.45
  -7   0  -3  241.84    9.49
   7   0   4   31.82    4.17
   7   0   4   40.29    5.37
  -7   0  -4   30.14    3.73
   7   0   4   27.18    3.44
   7   0   5  132.93   16.38
   7   0   5  135.74    6.95
  -7   0  -5  131.68   16.09
   7   0   5  109.54    5.64
   7   0   6  565.39   16.77
   7   0   6  557.09   17.03
  -7   0  -6  523.70   14.96
   7   0   7  432.68   11.95
   7   0   7  433.09   12.53
   7   0   8  132.36    6.00
   7   0   8  125.99   10.07
   7   0   9   57.50    4.50
   7   0   9   63.13    9.07
   7   0  10   64.73    3.82
   7   0  10   56.23    7.80
   7   0  11   34.94    3.90
   7   0  11   40.07    6.61
   7   0  12   40.32    4.81
   7   0  13   19.96    3.81
  -7   0 -13   21.53    4.21
  -7  -1  16   32.62    5.48
   7   1 -16   31.27    4.57
  -7  -1  16   27.82    5.07
  -7  -1  15   79.19    8.21
   7   1 -15   72.65    6.44
  -7  -1  15   83.39    7.14
  -7  -1  14   60.09    5.96
   7   1 -14   66.37    5.90
  -7  -1  14   52.12    4.79
  -7  -1  13   45.11    4.81
   7   1 -13   47.55    4.73
  -7  -1  13   41.87    5.88
  -7  -1  12  114.28    8.29
   7   1 -12  119.89    7.62
  -7  -1  12  109.15    7.23
  -7  -1  11  510.59   16.18
   7   1 -11  513.37   15.42
  -7  -1  11  517.37   15.89
  -7  -1  10   61.16    7.34
   7   1 -10   58.26    3.56
  -7  -1  10   53.22    4.09
  -7  -1   9   32.79    4.04
   7   1  -9   27.88    3.11
  -7  -1   9   26.97    3.26
  -7  -1   8  674.40   14.84
   7   1  -8  691.76   15.23
  -7  -1   8  681.05   15.25
  -7  -1   7  325.86    7.64
  -7  -1   7  351.13    8.80
   7   1  -6  157.79    8.31
  -7  -1   6  189.63   13.28
   7   1  -5   80.10    5.72
   7   1  -5   95.51    4.57
  -7  -1   5  105.45    8.17
   7   1  -4  112.54    5.57
   7   1  -4  128.34    5.92
  -7  -1   4  128.74    7.79
   7   1  -3  109.46    5.05
   7   1  -3  116.02    5.34
   7   1  -3  118.47    5.83
  -7  -1   3  116.10    5.75
   7   1  -2  120.04    5.60
   7   1  -2  124.74    5.70
   7   1  -2  122.99    6.02
  -7  -1   2  136.20    6.75
   7   1  -1  119.23    5.45
   7   1  -1  129.47    5.90
   7   1  -1  132.49    6.46
  -7  -1   1  132.83    6.62
   7   1   0  750.30   14.13
  -7  -1   0  725.50   13.59
   7   1   0  769.36   15.23
  -7  -1   0  744.32   15.77
   7   1   1  697.89   13.26
  -7  -1  -1  651.91   12.33
   7   1   1  698.65   14.04
  -7  -1  -1  703.09   14.10
   7   1   2  239.12    9.42
  -7  -1  -2  199.18    7.84
   7   1   2  239.75    9.77
  -7  -1  -2  236.65    9.91
   7   1   3    2.73    0.54
   7   1   3    6.06    1.43
  -7  -1  -3    2.98    0.63
   7   1   3    5.29    1.29
   7   1   4  130.32    7.29
   7   1   4  148.11    9.05
  -7  -1  -4  130.58    7.12
   7   1   4  114.27    6.27
   7   1   5  145.90    7.14
   7   1   5  144.91   13.73
  -7  -1  -5  139.14    6.51
   7   1   6  187.46    7.28
   7   1   6  170.84   12.70
   7   1   7  255.57    9.07
   7   1   7  236.81    8.87
   7   1   8  408.21   12.41
   7   1   8  391.54   12.47
   7   1   9   57.58    4.38
   7   1   9   61.29    6.50
   7   1  10   64.75    5.02
   7   1  10   58.18    8.39
   7   1  11   41.57    3.92
   7   1  11   32.57    6.05
   7   1  12   29.38    4.71
   7   1  13   22.47    5.18
  -7  -1 -13   29.37    4.68
  -7  -2  16   40.20    7.45
   7   2 -16   55.69    6.73
  -7  -2  16   53.93    6.65
  -7  -2  15   14.56    2.94
   7   2 -15   14.42    2.84
  -7  -2  15    9.62    2.69
  -7  -2  14  192.63   12.62
   7   2 -14  223.17   17.22
  -7  -2  14  202.59   19.27
  -7  -2  13  281.34   12.38
   7   2 -13  294.74    8.54
  -7  -2  13  290.84    8.57
  -7  -2  12  233.59    9.37
   7   2 -12  224.52    8.92
  -7  -2  12  222.31   18.60
  -7  -2  11  256.20   32.72
   7   2 -11  247.79    9.12
  -7  -2  11  249.79    9.40
  -7  -2  10  217.12    8.41
   7   2 -10  236.57    8.84
  -7  -2  10  224.33   11.22
  -7  -2   9   22.81    4.45
   7   2  -9   16.53    2.57
  -7  -2   8  328.06   40.06
   7   2  -8  336.63    8.25
  -7  -2   8  324.99   39.94
  -7  -2   7  375.98    8.29
   7   2  -7  403.59    9.55
  -7  -2   7  381.43    9.36
   7   2  -6  303.01   11.43
   7   2  -6  332.49   12.83
   7   2  -6  344.97   13.46
  -7  -2   6  353.06   14.02
   7   2  -5  263.29    9.90
   7   2  -5  286.03   10.76
   7   2  -5  272.97   10.74
  -7  -2   5  288.21   11.91
   7   2  -4  348.45   11.48
   7   2  -4  357.17   11.78
   7   2  -4  382.99   13.18
  -7  -2   4  381.32   13.58
   7   2  -3  272.32   11.28
   7   2  -3  277.57   11.51
   7   2  -3  279.77   12.11
  -7  -2   3  296.35   10.50
   7   2  -2   32.67    2.60
   7   2  -2   36.80    2.64
   7   2  -2   38.40    3.20
  -7  -2   2   45.60    3.78
   7   2  -1  180.71    7.59
   7   2  -1  187.24    7.80
   7   2  -1  196.15    8.71
  -7  -2   1  183.35    8.14
   7   2   0  350.79   11.51
  -7  -2   0  350.43   11.57
   7   2   0  365.05   12.61
  -7  -2   0  362.33   12.56
   7   2   1    5.20    0.63
  -7  -2  -1    5.66    0.69
   7   2   1    6.15    1.42
  -7  -2  -1    4.34    1.05
   7   2   2  848.74   19.07
  -7  -2  -2  804.43   18.06
   7   2   2  877.34   20.59
  -7  -2  -2  851.18   19.44
   7   2   3  336.76    7.26
  -7  -2  -3  275.70   10.08
  -7  -2  -3  332.27    8.31
   7   2   3  282.65   10.41
   7   2   4   20.46    2.74
  -7  -2  -4   13.71    1.86
   7   2   4   15.37    2.03
   7   2   5    5.06    0.95
  -7  -2  -5    5.01    0.85
   7   2   6  152.13    5.97
   7   2   7  222.37    7.88
   7   2   8  215.76    8.72
   7   2   8  222.54   25.01
   7   2   9   94.52    3.29
   7   2   9  101.99   10.87
   7   2  10   16.74    2.89
   7   2  10   13.84    2.74
   7   2  11   89.74   18.10
   7   2  11   69.56   11.16
   7   2  12   22.01    5.27
  -7  -3  16   91.21    8.61
   7   3 -16  103.93   10.08
  -7  -3  16   86.53   10.22
  -7  -3  15   50.11    7.36
   7   3 -15   58.13   11.12
  -7  -3  15   48.16    7.25
   7   3 -14  181.94   11.30
  -7  -3  14  159.89   12.40
  -7  -3  13  129.92   15.08
   7   3 -13  155.53    5.85
  -7  -3  13  141.46    5.57
  -7  -3  12  216.73   10.88
   7   3 -12  235.87   19.61
  -7  -3  12  234.93    9.51
  -7  -3  11  419.30   17.55
   7   3 -11  435.36   19.07
  -7  -3  11  400.76   17.20
  -7  -3  10  143.40    7.39
   7   3 -10  159.02    7.63
  -7  -3  10  150.74    7.57
  -7  -3   9   19.23    3.12
   7   3  -9   14.99    2.40
  -7  -3   9   11.01    2.11
  -7  -3   8    2.86    0.91
   7   3  -8    4.47    2.67
  -7  -3   8    1.65    1.67
  -7  -3   7  214.55    9.18
   7   3  -7  190.54    8.92
   7   3  -7  237.22   10.07
  -7  -3   7  224.17    9.80
   7   3  -6  387.59    8.12
   7   3  -6  420.47    9.62
  -7  -3   6  428.83   10.65
   7   3  -5  723.50   16.17
   7   3  -5  776.19   17.33
   7   3  -5  762.77   17.90
  -7  -3   5  762.44   18.61
   7   3  -4  452.43   10.07
   7   3  -4  441.92    9.84
   7   3  -4  476.04   11.54
  -7  -3   4  460.02   12.01
   7   3  -3  272.55   10.71
  -7  -3   3  271.21   11.13
   7   3  -2  165.89    8.53
  -7  -3   2  158.49    8.44
   7   3  -1   59.17    4.99
  -7  -3   1   74.07    6.68
   7   3   0  194.55    8.11
  -7  -3   0  177.83    7.51
   7   3   1  153.85    7.54
  -7  -3  -1  164.59    8.00
   7   3   1  178.98    7.55
  -7  -3  -1  168.21   20.30
   7   3   2  279.43   10.13
  -7  -3  -2  270.89    9.83
   7   3   2  276.19   10.82
  -7  -3  -2  280.86   11.45
   7   3   3 1212.90   24.29
  -7  -3  -3 1155.24   23.14
   7   3   3 1295.77   27.31
  -7  -3  -3 1211.29   24.56
   7   3   4   53.59    4.56
   7   3   4   53.81    6.13
  -7  -3  -4   44.81    3.92
   7   3   5  173.10    6.56
   7   3   5  194.19   10.84
  -7  -3  -5  166.39    6.21
   7   3   6   98.61    4.69
   7   3   6  103.13    6.79
   7   3   7   85.91    4.52
   7   3   7   88.12    8.33
   7   3   8   80.11    8.38
   7   3   8   88.66    9.17
   7   3   9  162.30    7.25
   7   3   9  145.28    8.96
   7   3  10   25.77    4.87
   7   3  10   25.53    4.82
   7   3  11   48.98    8.11
   7   3  12   12.64    3.37
  -7  -3 -12   29.28    3.98
  -7  -4  15  166.68   19.20
   7   4 -15  212.61   19.56
  -7  -4  15  208.73   19.37
  -7  -4  14   58.01    7.94
   7   4 -14   54.50    7.87
  -7  -4  14   66.34    7.15
  -7  -4  13   43.18    5.73
   7   4 -13   42.03    7.06
  -7  -4  13   44.90    4.33
  -7  -4  12   96.59    7.10
   7   4 -12  108.46    4.15
  -7  -4  12  113.82    5.90
  -7  -4  11  294.03   12.05
   7   4 -11  340.69   12.73
  -7  -4  11  305.83   23.47
  -7  -4  10  138.29    7.09
   7   4 -10  133.96    6.31
  -7  -4  10  135.30    6.46
  -7  -4   9    2.00    0.97
   7   4  -9    5.40    2.06
  -7  -4   9    5.83    1.79
  -7  -4   8    3.59    0.78
   7   4  -8   10.33    2.33
  -7  -4   8    7.16    2.95
  -7  -4   7  166.18    7.77
   7   4  -7  170.56    8.43
  -7  -4   7  177.00    9.08
  -7  -4   6   95.74    5.17
   7   4  -6  108.21    6.02
  -7  -4   6   87.85    5.39
   7   4  -5  220.68    7.91
   7   4  -5  225.74    8.08
   7   4  -5  237.50    9.16
  -7  -4   5  238.70    9.74
   7   4  -4   52.90    4.35
  -7  -4   4   53.66    4.67
   7   4  -3  161.80    9.16
  -7  -4   3  145.81    9.06
   7   4  -2   12.58    1.77
  -7  -4   2   14.32    2.04
   7   4  -1   71.57    5.58
  -7  -4   1   81.04    8.12
   7   4   0  164.92    9.23
  -7  -4   0  167.37    9.40
   7   4   1  137.53   11.43
  -7  -4  -1  118.64    7.00
   7   4   2   39.81    3.53
  -7  -4  -2   31.88    2.67
   7   4   2   44.88    6.05
  -7  -4  -2   37.16    4.22
   7   4   3 1409.12   26.62
   7   4   3 1432.95   30.69
  -7  -4  -3 1440.15   27.72
   7   4   4  326.17    9.69
   7   4   4  360.85   18.45
  -7  -4  -4  330.40   10.06
   7   4   5   23.98    2.92
   7   4   5   25.01    2.50
  -7  -4  -5   22.37    1.58
   7   4   6  141.80    7.52
   7   4   6  172.51   13.01
   7   4   7  242.33   10.62
   7   4   7  263.54   11.63
   7   4   8  113.78    4.85
   7   4   8  132.94    7.81
   7   4   9   70.42    6.75
   7   4   9   68.98    7.39
   7   4  10   20.06    4.21
   7   4  10   25.39    5.04
   7   4  11   19.06    3.63
   7   4  12   68.95    7.79
  -7  -4 -12   96.68    7.58
  -7  -5  15   82.10   12.55
   7   5 -15  115.88   11.09
  -7  -5  15  114.50   11.00
  -7  -5  14   82.32    8.92
   7   5 -14   87.44   13.88
  -7  -5  14   80.45   12.08
  -7  -5  13   35.99    5.68
   7   5 -13   47.65    5.38
  -7  -5  13   49.57    6.52
  -7  -5  12   43.87    6.50
   7   5 -12   51.13    5.02
  -7  -5  12   39.26    7.10
  -7  -5  11   58.03    6.15
   7   5 -11   62.59    5.89
  -7  -5  11   62.24    7.37
  -7  -5  10  124.29    8.10
   7   5 -10  121.61    7.38
  -7  -5   9   28.76    4.53
   7   5  -9   38.21    4.84
  -7  -5   9   40.16    5.24
  -7  -5   8  142.43    7.70
   7   5  -8  136.89    6.61
  -7  -5   8  147.85    8.45
  -7  -5   7  146.62    5.51
   7   5  -7  167.13    6.67
  -7  -5   7  185.15    8.06
  -7  -5   6   80.25    2.94
   7   5  -6   94.11    6.47
  -7  -5   6   88.78    4.63
   7   5  -5  146.33    7.24
  -7  -5   5  144.22    7.63
   7   5  -4    5.42    1.27
  -7  -5   4    6.66    2.35
   7   5  -3    9.82    2.01
  -7  -5   3    7.31    1.92
   7   5  -2   29.27    3.00
  -7  -5   2   28.72    3.16
   7   5  -1   96.87    5.49
  -7  -5   1   88.66    5.27
   7   5   0  172.43    8.47
  -7  -5   0  178.82    8.85
   7   5   1  144.31    9.92
  -7  -5  -1  142.52    7.13
   7   5   2  189.61    8.97
  -7  -5  -2  196.49    7.72
   7   5   3   35.60    1.76
   7   5   3   30.95    2.78
  -7  -5  -3   33.27    1.77
   7   5   4   69.70    4.09
   7   5   4   78.10    9.61
  -7  -5  -4   62.68    3.38
   7   5   5    7.35    1.45
   7   5   5    9.79    2.26
  -7  -5  -5    8.25    1.97
   7   5   6  211.36    8.37
   7   5   6  242.21   16.45
   7   5   7  181.62    8.35
   7   5   7  194.69   11.32
   7   5   8   66.58    7.00
   7   5   8   88.06   10.96
   7   5   9   27.58    6.67
   7   5  10   48.63    6.69
  -7  -5 -11   62.86    8.57
   7   6 -14  131.83   12.33
  -7  -6  14  137.37   13.30
   7   6 -13   50.27    5.38
  -7  -6  13   63.70    7.17
   7   6 -12   36.87    3.98
  -7  -6  12   50.08    5.16
   7   6 -11   32.79    3.79
  -7  -6  11   37.81    5.11
   7   6 -10   36.26    3.22
   7   6  -9  350.82   14.98
  -7  -6   9  360.71   15.74
   7   6  -8  284.46    8.92
  -7  -6   8  295.35    9.99
   7   6  -7  341.40    9.73
  -7  -6   7  329.45   10.09
   7   6  -6  418.68   11.46
  -7  -6   6  398.72   13.73
   7   6  -5  254.45   12.47
  -7  -6   5  263.56   13.33
   7   6  -4  245.40   12.04
  -7  -6   4  238.04   12.75
   7   6  -3    1.67    1.45
  -7  -6   3   10.22    2.71
   7   6  -2   68.77    2.77
  -7  -6   2   66.09    3.33
   7   6  -1  295.05   14.33
  -7  -6   1  301.07   35.49
   7   6   0  632.27   19.39
  -7  -6   0  650.16   19.40
   7   6   1  132.45    7.60
  -7  -6  -1  126.59    6.17
   7   6   2    3.43    1.14
  -7  -6  -2    4.76    1.22
   7   6   3   17.51    3.19
  -7  -6  -3    7.55    1.69
   7   6   4   12.86    2.39
  -7  -6  -4   13.78    2.20
   7   6   5   11.14    1.89
   7   6   6   66.73    8.27
   7   6   7   39.28    6.26
   7   6   8   74.66    9.79
   7   6   9   64.61   12.69
   7   7 -14   71.30    5.47
  -7  -7  14   50.38   10.33
   7   7 -13   15.01    2.95
  -7  -7  13   26.05    5.89
   7   7 -12   12.90    2.99
  -7  -7  12   23.23    4.45
   7   7 -11  151.69    6.75
  -7  -7  11  144.05    7.16
   7   7 -10   62.80    7.26
  -7  -7  10   82.13    6.65
   7   7  -9  146.48    4.34
  -7  -7   9  127.02    4.87
   7   7  -8  174.27    7.30
  -7  -7   8  205.21    8.96
   7   7  -7  286.83   12.15
  -7  -7   7  283.17   12.59
   7   7  -6  323.65    9.88
  -7  -7   6  326.92   10.84
   7   7  -5  391.14   11.68
  -7  -7   5  422.09   13.75
   7   7  -4  272.75    9.52
  -7  -7   4  275.09   10.27
   7   7  -3   83.82    4.10
  -7  -7   3   85.60    6.38
   7   7  -2   98.20    4.71
  -7  -7   2  116.72    6.20
   7   7  -1  622.29   18.91
  -7  -7   1  658.46   17.95
   7   7   0  320.71   10.31
  -7  -7   0  330.08   10.36
   7   7   1  148.72   18.43
  -7  -7  -1  131.93    6.04
   7   7   2   55.45    6.43
  -7  -7  -2   68.15    6.27
   7   7   3  115.12    9.78
  -7  -7  -3  120.29    7.27
   7   7   4   36.23    3.92
  -7  -7  -4   32.22    1.85
   7   7   5   24.44    3.58
   7   7   6   59.88    8.77
   7   7   7   30.20    4.21
   7   7   8   69.53    9.45
   7   8 -13   91.52    6.60
  -7  -8  13  108.61   11.18
   7   8 -12   81.86    7.91
  -7  -8  12   73.44    8.75
   7   8 -11  133.38    5.86
  -7  -8  11  124.48    6.64
   7   8 -10   98.43    6.84
  -7  -8  10  101.53    7.82
   7   8  -9   40.85    6.36
  -7  -8   9   51.11    5.25
   7   8  -8  136.51    4.00
  -7  -8   8  145.33    5.56
   7   8  -7  122.07    3.68
  -7  -8   7  120.73    5.20
   7   8  -6  169.86    7.10
  -7  -8   6  168.85    8.06
   7   8  -5  205.97    7.72
  -7  -8   5  212.60    8.93
   7   8  -4  102.15    4.81
  -7  -8   4  101.12    5.80
   7   8  -3  186.20    7.54
  -7  -8   3  183.24    8.18
   7   8  -2  172.41    7.36
  -7  -8   2  178.25    7.80
   7   8  -1  311.25   14.25
  -7  -8   1  314.86   13.68
   7   8   0  207.65    9.01
  -7  -8   0  189.60    8.07
   7   8   1   82.64    7.36
  -7  -8  -1   83.18    5.80
   7   8   2  162.94   10.32
  -7  -8  -2  174.30    7.54
   7   8   3   86.11    7.09
  -7  -8  -3   79.75    4.55
   7   8   4   84.70    8.46
  -7  -8  -4   80.66    5.73
   7   8   5   43.01    6.56
   7   8   6  112.17   10.14
   7   8   7   75.73    9.81
   7   8   8    2.85    1.50
  -7  -9  12   94.87    7.37
  -7  -9  10   37.32    6.44
   7   9  -9   35.35    7.22
  -7  -9   9   35.52    4.71
   7   9  -8   66.79    5.25
  -7  -9   8   95.79    7.87
   7   9  -7   86.76    5.96
  -7  -9   7   86.56    7.61
   7   9  -6  111.41    6.08
  -7  -9   6  108.96    6.81
   7   9  -5   14.18    1.81
  -7  -9   5   13.11    2.72
   7   9  -4  166.55    4.83
  -7  -9   4  170.50    6.18
   7   9  -3   51.45    5.61
  -7  -9   3   44.88    4.19
   7   9  -2   58.27    7.62
  -7  -9   2   59.63    5.35
   7   9  -1  117.52    7.63
  -7  -9   1  130.87    4.94
   7   9   0  143.37    5.16
  -7  -9   0  156.44    5.41
   7   9   1   12.33    2.64
  -7  -9  -1   15.66    2.71
   7   9   2  123.09    7.15
  -7  -9  -2  106.16    6.17
   7   9   3   71.43   14.71
  -7  -9  -3   76.34    5.66
   7   9   4   19.15    3.73
   7   9   5  110.34    9.37
   7   9   6  137.06   12.69
   7   9   7   32.59    6.54
  -7 -10  10   11.99    3.46
  -7 -10   9   21.62    4.59
  -7 -10   8   37.51    4.95
  -7 -10   7   54.02    6.20
  -7 -10   6  195.31    9.13
  -7 -10   5   29.40    4.20
  -7 -10   4   32.98    4.06
  -7 -10   3  105.66    8.14
  -7 -10   2   22.03    3.48
  -7 -10   1   50.56    4.99
  -7 -10   0   97.59    7.03
   7  10   1   34.85    5.75
  -7 -10  -1   38.09    4.33
   7  10   2   18.63    3.61
  -7 -10  -2   24.63    3.47
   7  10   3   87.81   10.53
  -7 -10  -3  105.28    9.09
   7  10   4   71.10    9.45
  -7 -11   8   14.91    3.32
  -7 -11   7   12.86    3.43
  -7 -11   6   60.88    7.53
  -7 -11   5  113.33   11.10
  -7 -11   4    5.92    2.57
  -7 -11   3  112.80    9.99
  -7 -11   2   35.66    4.30
  -7 -11   1   38.84    4.49
  -7 -11   0   21.87    3.96
  -7 -11  -1   15.65    3.37
  -7 -11  -2   78.42    6.02
   8 -12  -3    5.05    2.94
  -8  12   3   -0.49    1.67
   8 -12  -2    7.85    3.09
   8 -12  -1    3.04    2.18
  -8  12   1    9.67    2.59
   8 -12   0    6.78    3.72
  -8  12   0   -0.14    1.62
   8 -12   1   15.16    3.24
  -8  12  -1   13.51    3.54
   8 -11  -7    2.49    2.87
  -8  11   7    5.71    2.60
   8 -11  -5   71.88    9.14
  -8  11   5   70.75   12.46
   8 -11  -4   33.36    4.24
  -8  11   4   41.40    6.22
   8 -11  -3   23.26    4.00
  -8  11   3   25.17    4.90
   8 -11  -2   11.16    3.16
  -8  11   2   15.69    3.26
  -8  11   1   54.57    9.27
  -8  11   0    3.21    2.06
  -8  11  -1   58.89    8.48
  -8  11  -2   83.27   10.48
  -8  11  -3   29.24    5.56
  -8  11  -4   18.27    4.57
  -8  11  -5    5.21    1.86
   8 -10  -9    3.38    1.85
  -8  10   9    2.46    1.31
   8 -10  -8   44.02    4.40
  -8  10   8   26.60    6.04
   8 -10  -7   20.72    3.79
  -8  10   7   19.63    3.63
   8 -10  -6   23.09    4.13
  -8  10   6   30.56    7.09
   8 -10  -5   55.65    6.58
  -8  10   5   50.36    7.40
   8 -10  -4   26.98    3.98
  -8  10   4   22.00    4.48
   8 -10  -3    9.68    2.26
  -8  10   3    4.40    1.31
   8 -10  -2    7.88    2.32
  -8  10   2   12.08    3.05
   8 -10  -1   14.58    2.52
  -8  10   1   28.79    4.43
   8 -10   0   41.01    8.30
  -8  10   0   44.28    7.13
   8 -10   1   78.04    6.17
  -8  10  -1   61.90   10.03
   8 -10   2   37.66    4.39
  -8  10  -2   35.91    5.97
   8 -10   3    8.95    2.60
  -8  10  -3   12.73    3.53
   8 -10   4   27.31    5.08
  -8  10  -4   22.46    4.86
   8 -10   5   21.71    3.99
  -8  10  -5   23.33    5.63
   8 -10   6   17.52    4.27
  -8  10  -6    4.10    1.92
   8 -10   7    5.33    2.73
  -8  10  -7    1.81    1.32
   8  -9 -10   22.23    3.92
  -8   9  10   20.63    3.88
   8  -9  -9   22.25    3.83
   8  -9  -9   29.89    4.63
  -8   9   9   30.70    5.05
   8  -9  -8   31.32    4.40
   8  -9  -8   28.19    4.21
  -8   9   8   23.85    5.59
   8  -9  -7   74.25    6.22
   8  -9  -7   58.00    4.85
   8  -9  -6   15.27    2.37
   8  -9  -6   16.13    2.21
  -8   9   6   15.90    3.17
   8  -9  -5   33.91    4.60
   8  -9  -5   28.20    3.27
  -8   9   5   30.71    5.36
   8  -9  -4    4.68    2.51
   8  -9  -4    0.63    0.89
  -8   9   4    2.67    1.25
   8  -9  -3   14.00    2.79
   8  -9  -3    9.20    1.41
  -8   9   3   10.71    2.14
   8  -9  -2   21.53    2.82
   8  -9  -2   15.60    1.91
  -8   9   2   23.36    3.61
   8  -9  -1   28.89    3.48
   8  -9  -1   25.78    2.64
  -8   9   1   26.28    3.95
   8  -9   0   68.01    4.60
   8  -9   0   45.94    5.66
  -8   9   0   54.42    8.93
   8  -9   1   93.01   11.87
   8  -9   1   71.43    5.62
  -8   9  -1   89.40    8.72
   8  -9   2   27.67    4.39
   8  -9   2   14.43    3.05
  -8   9  -2   19.49    3.35
   8  -9   3   15.21    3.62
  -8   9  -3    3.56    1.54
   8  -9   4   13.34    3.45
  -8   9  -4    8.00    1.72
   8  -9   5   61.39    6.86
  -8   9  -5   44.45    5.42
   8  -9   6    3.05    2.11
  -8   9  -6    3.54    1.12
   8  -9   7    7.80    2.84
  -8   9  -7    8.50    2.28
   8  -9   8   28.51    4.97
   8  -8 -12    3.20    2.02
   8  -8 -12    2.84    1.61
  -8   8  12    3.47    1.62
   8  -8 -11    6.07    2.41
   8  -8 -11    5.53    1.57
  -8   8  11   10.15    3.22
   8  -8 -10   13.43    2.81
   8  -8 -10   15.14    3.22
  -8   8  10   21.20    3.50
   8  -8  -9   43.79    4.97
   8  -8  -9   50.84    5.53
  -8   8   9   45.83    5.08
   8  -8  -8   31.66    3.68
   8  -8  -8   31.47    4.40
  -8   8   8   33.69    4.00
   8  -8  -7   45.30    4.64
   8  -8  -7   39.73    4.38
   8  -8  -6   19.50    2.81
   8  -8  -6   19.24    2.33
  -8   8   6   28.71    3.33
   8  -8  -5   45.75    3.28
   8  -8  -5   45.20    4.67
  -8   8   5   56.08    4.64
   8  -8  -4    1.99    1.78
   8  -8  -4    1.71    1.01
  -8   8   4    3.95    1.98
   8  -8  -3   23.41    2.52
   8  -8  -3   15.19    2.04
  -8   8   3   20.31    3.67
   8  -8  -2    1.52    1.87
   8  -8  -2    1.72    0.97
  -8   8   2    1.30    1.23
   8  -8  -1   96.20    5.93
   8  -8  -1   81.74    4.07
  -8   8   1   84.98    7.58
   8  -8   0   77.34    4.81
   8  -8   0   64.99    6.71
  -8   8   0   69.90    6.61
   8  -8   1   90.62    6.45
   8  -8   1   90.59    6.17
  -8   8  -1   84.61    8.57
   8  -8   2   15.44    3.57
   8  -8   2   13.28    2.09
  -8   8  -2   13.71    2.70
   8  -8   3    3.94    2.27
   8  -8   3    0.96    1.13
  -8   8  -3    1.07    0.82
   8  -8   4   11.29    2.48
   8  -8   4   14.15    2.13
  -8   8  -4   11.89    2.37
   8  -8   5   15.31    3.28
   8  -8   5   11.61    2.52
  -8   8  -5   14.70    2.80
   8  -8   6   23.10    3.36
   8  -8   6   19.18    4.14
  -8   8  -6   23.87    5.38
   8  -8   7   26.24    3.82
   8  -8   7   22.13    4.57
  -8   8  -7   27.13    5.91
   8  -8   8   76.75    7.70
   8  -8   8   44.26    9.51
   8  -8   9   34.70    5.65
   8  -7 -13   33.30    5.91
   8  -7 -13   24.32    2.90
  -8   7  13   32.68    5.21
   8  -7 -12   42.50    4.68
   8  -7 -12   38.49    3.78
  -8   7  12   44.79    4.49
   8  -7 -11   10.08    2.68
   8  -7 -11   17.24    3.01
  -8   7  11   17.04    2.65
   8  -7 -10   18.80    2.96
   8  -7 -10   12.88    1.91
  -8   7  10   16.67    2.57
   8  -7  -9   36.65    4.36
   8  -7  -9   31.98    3.78
  -8   7   9   41.71    4.96
   8  -7  -8   30.55    3.60
   8  -7  -8   24.44    2.75
  -8   7   8   24.79    3.05
   8  -7  -7   51.13    4.29
   8  -7  -7   51.60    3.94
   8  -7  -6   36.86    3.38
   8  -7  -6   36.80    3.19
  -8   7   6   40.37    3.75
   8  -7  -5   56.09    4.75
   8  -7  -5   60.82    5.12
  -8   7   5   61.43    5.10
   8  -7  -4    2.61    2.41
   8  -7  -4    2.70    1.22
  -8   7   4    1.89    1.45
   8  -7  -3   11.08    2.86
   8  -7  -3    9.05    1.90
  -8   7   3   12.43    2.66
   8  -7  -2   81.75    4.88
   8  -7  -2   86.64    4.30
  -8   7   2   91.39    4.95
   8  -7  -1    5.96    2.02
   8  -7  -1    2.48    1.13
  -8   7   1    5.65    1.64
   8  -7   0  103.26    5.75
   8  -7   0   96.12   11.97
  -8   7   0   93.54    6.88
   8  -7   1   55.61    3.89
   8  -7   1   53.88    3.52
  -8   7  -1   55.12    7.59
   8  -7   2   29.99    3.37
   8  -7   2   22.14    3.66
  -8   7  -2   17.26    3.64
   8  -7   3    4.74    2.19
   8  -7   3    4.62    1.34
  -8   7  -3    2.21    0.80
   8  -7   4   26.60    2.87
   8  -7   4   33.77    2.97
  -8   7  -4   30.44    3.07
   8  -7   5    2.83    2.13
   8  -7   5    4.23    1.13
  -8   7  -5    3.32    1.09
   8  -7   6   84.95    5.75
   8  -7   6   72.35    7.04
   8  -7   7   69.47    6.13
   8  -7   7   58.64    5.81
  -8   7  -7   52.58    6.40
   8  -7   8   53.53    5.97
   8  -7   8   46.40    8.20
   8  -7   9   25.91    4.64
   8  -7   9   15.52    4.31
   8  -7  10   13.23    3.02
   8  -6 -13   40.90    4.20
   8  -6 -13   38.00    4.37
  -8   6  13   39.50    4.36
   8  -6 -12   69.07   13.65
   8  -6 -12   80.36    7.54
  -8   6  12   76.60    7.39
   8  -6 -11   80.89    9.29
   8  -6 -11   77.30    5.81
  -8   6  11   81.83    6.28
   8  -6 -10   63.30    4.92
   8  -6 -10   81.15    6.24
  -8   6  10   70.25    5.59
   8  -6  -9   13.33    2.67
   8  -6  -9    7.66    1.67
  -8   6   9    6.04    1.63
   8  -6  -8   48.41    4.20
   8  -6  -8   38.92    2.72
  -8   6   8   40.24    2.88
   8  -6  -7  115.37    7.38
   8  -6  -7  145.44   13.44
  -8   6   7  126.02    7.83
   8  -6  -6   86.23    5.05
   8  -6  -6  102.08    7.96
  -8   6   6   95.65   12.21
   8  -6  -5   50.23    3.96
   8  -6  -5   49.12    3.38
  -8   6   5   56.69    9.29
   8  -6  -4   49.91    3.87
   8  -6  -4   50.70    3.42
  -8   6   4   55.60    9.12
   8  -6  -3    6.89    2.49
   8  -6  -3    6.09    1.75
  -8   6   3    2.47    1.69
   8  -6  -2  404.15   12.67
   8  -6  -2  400.25   12.24
  -8   6   2  416.03   13.10
   8  -6  -1    4.85    2.51
   8  -6  -1    2.52    1.16
  -8   6   1    4.84    2.07
   8  -6   0   83.02    4.76
   8  -6   0   88.65    4.38
  -8   6   0   83.05    4.56
   8  -6   1  191.48    7.46
   8  -6   1  185.86    6.85
  -8   6  -1  188.23    7.50
   8  -6   2   48.24    4.17
   8  -6   2   48.99    7.23
  -8   6  -2   44.43    5.47
   8  -6   3    7.79    2.40
   8  -6   3    7.65    1.70
  -8   6  -3    9.16    2.27
   8  -6   4  113.40    7.39
   8  -6   4  114.49    7.38
  -8   6  -4  103.79    8.55
   8  -6   5  197.22    8.51
   8  -6   5  207.59   11.19
  -8   6  -5  198.53   12.67
   8  -6   6   86.17    6.00
   8  -6   6   87.94    7.45
  -8   6  -6   84.66    5.65
   8  -6   7   58.26    5.05
   8  -6   7   50.68    5.60
  -8   6  -7   42.97    5.70
   8  -6   8   44.74    4.70
   8  -6   8   36.12    5.76
   8  -6   9   31.93    4.21
   8  -6   9   23.73    4.98
   8  -6  10   37.46   10.28
   8  -6  10   19.05    4.99
   8  -6  11   34.32    5.74
   8  -5 -14   27.01    8.05
   8  -5 -14   43.68    5.59
  -8   5  14   37.92    4.14
   8  -5 -13  165.31   17.55
   8  -5 -13  186.24   15.72
  -8   5  13  196.70   16.59
   8  -5 -12  160.87    7.71
   8  -5 -12  152.89   10.35
  -8   5  12  165.00    8.03
   8  -5 -11   38.63    4.64
   8  -5 -11   30.61    5.29
  -8   5  11   32.72    4.46
   8  -5 -10   24.19    3.10
   8  -5 -10   26.60    4.79
  -8   5  10   28.10    3.87
   8  -5  -9   18.64    3.00
   8  -5  -9   29.51    2.18
  -8   5   9   19.89    3.10
   8  -5  -8  325.01   14.08
   8  -5  -8  339.92   14.57
   8  -5  -7  156.24    6.46
   8  -5  -7  163.52    6.50
  -8   5   7  151.97   18.94
   8  -5  -6   79.43    4.22
   8  -5  -6   78.22    4.39
  -8   5   6   84.00    4.85
   8  -5  -5   84.00    4.20
   8  -5  -5   82.15    3.84
  -8   5   5   86.18    4.26
   8  -5  -4  143.23    6.06
   8  -5  -4  156.80    6.35
  -8   5   4  162.73    6.85
   8  -5  -3   44.56    2.59
   8  -5  -3   38.89    2.44
  -8   5   3   42.20    2.70
   8  -5  -2  269.61   11.46
   8  -5  -2  274.39   11.41
  -8   5   2  282.80   11.96
   8  -5  -1  345.61    8.21
   8  -5  -1  351.03    8.01
  -8   5   1  339.73    8.07
   8  -5   0   56.37    5.35
   8  -5   0   53.53    4.88
  -8   5   0   58.21    5.17
   8  -5   1  214.24   11.02
   8  -5   1  200.39   23.66
  -8   5  -1  209.26   10.43
   8  -5   2   47.20    3.08
   8  -5   2   47.32    4.27
  -8   5  -2   45.04    5.88
   8  -5   3  144.35    7.33
   8  -5   3  149.91    8.87
  -8   5  -3  155.18   10.08
   8  -5   4  369.32   10.71
   8  -5   4  382.32   17.97
  -8   5  -4  374.45   10.31
   8  -5   5  214.00    8.23
   8  -5   5  204.97   16.01
  -8   5  -5  201.73    7.21
   8  -5   6   21.67    2.47
   8  -5   6   38.29    3.66
  -8   5  -6   28.73    2.49
   8  -5   7   59.58    5.07
   8  -5   7   65.53    6.34
   8  -5   8   68.19    5.48
   8  -5   8   59.48    7.18
   8  -5   9   87.19    6.74
   8  -5   9   78.54   10.28
   8  -5  10   15.52    3.17
   8  -5  10   11.94    3.15
   8  -5  11   82.54    8.34
   8  -4 -15   67.63    5.71
  -8   4  15   75.22    6.09
   8  -4 -14  221.35   25.20
   8  -4 -14  247.93   22.86
  -8   4  14  246.10   22.64
   8  -4 -13   64.32    7.18
  -8   4  13   65.71    7.31
   8  -4 -12   14.14    2.80
   8  -4 -12    9.90    2.12
  -8   4  12    8.28    1.98
   8  -4 -11    4.38    1.33
   8  -4 -11    3.18    1.43
  -8   4  11    1.17    1.50
   8  -4 -10   58.18    4.56
   8  -4 -10   68.59    6.80
  -8   4  10   69.23    5.52
   8  -4  -9   97.54    5.21
   8  -4  -9  102.67    5.27
  -8   4   9  121.83    7.81
   8  -4  -8  130.62    6.33
   8  -4  -8  132.87    6.80
  -8   4   8  125.58    6.61
   8  -4  -7  145.74    7.13
   8  -4  -7  159.95    7.88
  -8   4   7  162.24    8.15
   8  -4  -6   24.29    2.14
   8  -4  -6   29.72    2.08
  -8   4   6   34.33    2.39
   8  -4  -5   65.15    5.98
   8  -4  -5   67.56    5.99
  -8   4   5   78.06    5.16
   8  -4  -4  205.89   25.37
   8  -4  -4  208.74    9.67
  -8   4   4  202.98   25.09
   8  -4  -3  111.12    6.38
   8  -4  -3  102.13    5.76
  -8   4   3  112.77    6.58
   8  -4  -2   26.80    2.87
   8  -4  -2   28.07    3.02
  -8   4   2   30.02    3.20
   8  -4  -1   76.56    4.81
   8  -4  -1   74.23    4.43
  -8   4   1   83.37    4.91
   8  -4   0    7.17    1.85
   8  -4   0    6.32    1.64
  -8   4   0   10.40    1.97
   8  -4   1   98.38    5.82
   8  -4   1   96.01    8.54
  -8   4  -1   91.53    5.15
   8  -4   2   61.75    5.70
   8  -4   2   64.76    6.41
  -8   4  -2   60.42    5.25
   8  -4   3  122.39    5.19
   8  -4   3  121.38    5.36
  -8   4  -3  117.00    6.02
   8  -4   4   56.53    9.27
   8  -4   4   46.49    4.72
  -8   4  -4   44.06    3.58
   8  -4   5   21.88    3.11
   8  -4   5   19.55    3.37
  -8   4  -5   13.94    2.54
   8  -4   6    3.51    2.40
   8  -4   6    3.22    1.38
  -8   4  -6    4.51    1.20
   8  -4   7    5.91    1.78
   8  -4   7   10.51    1.79
   8  -4   8   31.48    3.83
   8  -4   8   36.41    5.62
   8  -4   9  158.81    7.53
   8  -4   9  174.20    7.89
   8  -4  10    9.52    2.88
   8  -4  10   10.91    3.05
   8  -4  11   35.60    4.79
   8  -4  11   19.76    6.37
  -8   3  15   39.42    9.22
   8  -3 -15   54.19    7.89
  -8   3  15   54.56    7.83
  -8   3  14   89.29   11.99
   8  -3 -14  105.22    9.32
  -8   3  14   99.98    8.91
  -8   3  13    4.66    1.73
   8  -3 -13    1.69    1.62
  -8   3  13    3.58    1.61
   8  -3 -12    5.17    1.64
   8  -3 -12   20.24    3.41
  -8   3  12   16.54    3.05
   8  -3 -11   66.12    6.32
   8  -3 -11   80.63    6.37
  -8   3  11   80.16    5.90
   8  -3 -10  136.00   11.15
   8  -3 -10  136.21    9.30
  -8   3  10  135.61    8.34
   8  -3  -9  115.59    5.44
   8  -3  -9  122.81    9.15
  -8   3   9  120.70    5.75
   8  -3  -8   51.44    5.53
   8  -3  -8   53.80    4.22
  -8   3   8   47.47    3.53
   8  -3  -7  105.58    4.69
   8  -3  -7  106.46    4.85
  -8   3   7   98.37    4.71
   8  -3  -6  101.60    5.86
   8  -3  -6   95.15    5.66
  -8   3   6  105.61    6.28
   8  -3  -5  237.85   10.15
   8  -3  -5  248.29   10.69
  -8   3   5  254.51   10.89
   8  -3  -4  313.69   43.76
   8  -3  -4  299.14   11.70
  -8   3   4  328.64    8.19
   8  -3  -3   52.38    4.40
   8  -3  -3   56.05    4.78
  -8   3   3   60.61    4.99
   8  -3  -2   11.61    2.06
   8  -3  -2   13.69    2.31
  -8   3   2   17.57    2.74
   8  -3  -1    2.62    1.33
   8  -3  -1    1.30    1.63
  -8   3   1    4.31    1.35
   8  -3   0   37.83    5.76
   8  -3   0   38.13    3.35
  -8   3   0   38.33    3.36
   8  -3   1  201.28    8.21
   8  -3   1  200.36    8.71
  -8   3  -1  197.86    7.79
   8  -3   2   34.99    3.64
   8  -3   2   39.22    5.53
  -8   3  -2   34.95    3.22
   8  -3   3   62.03    5.65
   8  -3   3   71.26    5.93
  -8   3  -3   58.03    5.01
   8  -3   4   79.52    3.94
   8  -3   4   80.95    5.39
  -8   3  -4   82.35    4.83
   8  -3   5    3.74    1.39
   8  -3   5    2.09    1.64
  -8   3  -5    0.39    0.58
   8  -3   6    9.47    2.39
   8  -3   6    7.56    2.00
  -8   3  -6    3.84    0.97
   8  -3   7    7.59    1.64
   8  -3   8   64.82    4.28
   8  -3   8   59.84    7.20
   8  -3   9   42.79    4.83
   8  -3   9   46.38    7.45
   8  -3  10   46.11    5.16
   8  -3  10   42.67    6.34
   8  -3  11    2.62    1.68
   8  -3  11    2.60    1.76
   8  -3  12   55.93    7.80
  -8   2  15   17.95    3.89
   8  -2 -15   21.89    4.33
  -8   2  15   10.49    3.39
  -8   2  14    3.17    1.66
   8  -2 -14    0.77    1.55
  -8   2  14    2.63    1.63
  -8   2  13   43.51    6.18
   8  -2 -13   42.71    4.40
  -8   2  13   35.97    4.13
  -8   2  12   54.97    5.93
   8  -2 -12   55.98    6.31
  -8   2  12   67.38    4.36
   8  -2 -11   70.40    6.44
  -8   2  11   65.70    5.29
   8  -2 -10   60.23    3.54
   8  -2 -10   60.74    4.99
  -8   2  10   70.17    4.35
   8  -2  -9   84.62    7.14
   8  -2  -9   89.24    4.97
   8  -2  -8  265.24   12.99
   8  -2  -8  295.47   14.65
  -8   2   8  289.32   14.42
   8  -2  -7   71.37    4.40
   8  -2  -7   73.44    4.62
  -8   2   7   69.93    8.95
   8  -2  -6   39.54    3.67
   8  -2  -6   53.09    5.23
  -8   2   6   40.62    3.95
   8  -2  -5  176.94    9.81
   8  -2  -5  174.55    9.93
  -8   2   5  188.14    7.77
   8  -2  -4  277.87   10.60
   8  -2  -4  279.82   10.87
  -8   2   4  298.77   11.71
   8  -2  -3  219.21    8.79
   8  -2  -3  208.08    8.31
  -8   2   3  233.38    9.28
   8  -2  -2  113.95    6.28
   8  -2  -2  106.15    5.82
  -8   2   2  114.57    6.19
   8  -2  -1  349.07   13.51
   8  -2  -1  347.53   13.52
  -8   2   1  343.38   13.38
   8  -2   0  175.37    9.77
   8  -2   0  175.01    9.82
  -8   2   0  178.60    9.94
   8  -2   1  282.44   10.81
   8  -2   1  267.06   10.69
  -8   2  -1  280.64   10.59
   8  -2   2  367.98    8.52
   8  -2   2  366.23    8.71
  -8   2  -2  374.20    8.42
   8  -2   3  111.17    6.26
   8  -2   3  121.25    9.86
  -8   2  -3  111.97    5.96
   8  -2   4   97.67    4.41
   8  -2   4   91.76    7.99
  -8   2  -4   88.75    3.56
   8  -2   5    4.75    1.26
   8  -2   5    8.76    1.98
  -8   2  -5    5.75    1.23
   8  -2   6  121.12    5.53
   8  -2   6  125.92    8.11
  -8   2  -6  113.35    5.37
   8  -2   7  162.62    7.18
   8  -2   7  149.29    8.71
   8  -2   8   25.89    2.10
   8  -2   8   28.44    2.75
   8  -2   9    5.77    1.68
   8  -2   9    6.95    2.11
   8  -2  10   72.25   13.88
   8  -2  10   57.53    6.30
   8  -2  11   10.70    2.96
   8  -2  11   10.65    3.43
   8  -2  12   29.90    4.74
  -8   1  15   51.67    9.56
   8  -1 -15   63.44    7.79
  -8   1  15   69.27    8.10
  -8   1  14   24.26    3.77
   8  -1 -14   28.38    4.34
  -8   1  14   18.61    3.44
  -8   1  13   30.91    4.77
   8  -1 -13   31.39    4.23
  -8   1  13   31.82    4.17
  -8   1  12   16.66    2.36
   8  -1 -12   18.21    2.96
  -8   1  12   15.90    2.77
  -8   1  11   72.88    8.07
   8  -1 -11   67.75    4.03
  -8   1  11   81.19    4.66
   8  -1 -10   13.21    2.69
  -8   1  10   12.97    2.66
   8  -1  -9  155.01    7.31
   8  -1  -9  157.50    7.91
   8  -1  -8  150.47    6.68
   8  -1  -8  155.68    6.62
  -8   1   8  150.18    6.48
   8  -1  -7  144.51    7.13
   8  -1  -7  147.51    7.63
  -8   1   7  148.22    7.70
   8  -1  -6    7.25    1.58
   8  -1  -6    5.10    1.76
  -8   1   6    6.58    1.97
   8  -1  -5   74.43    5.76
   8  -1  -5   76.12    6.06
  -8   1   5   74.12    6.20
   8  -1  -4   82.27    6.26
   8  -1  -4   89.82    6.99
  -8   1   4   93.86    7.35
   8  -1  -3  393.24   47.01
   8  -1  -3  395.06   47.33
  -8   1   3  404.80   10.33
   8  -1  -2   70.24    4.07
   8  -1  -2   73.70    4.52
  -8   1   2   65.82    5.50
   8  -1  -1  230.05    9.24
   8  -1  -1  226.34    9.35
  -8   1   1  237.92    9.70
   8  -1   0  465.11   11.07
   8  -1   0  469.78   11.59
  -8   1   0  489.29   12.37
   8  -1   1  868.32   18.01
   8  -1   1  872.03   19.41
  -8   1  -1  855.08   17.83
   8  -1   2  241.26    9.25
   8  -1   2  223.78   10.43
  -8   1  -2  232.84    8.86
   8  -1   3   79.26    4.65
   8  -1   3   75.92    7.81
  -8   1  -3   67.14    5.66
   8  -1   4   49.39    2.48
   8  -1   4   59.21    4.93
  -8   1  -4   51.08    1.73
   8  -1   5  359.40   10.03
   8  -1   5  332.26   11.26
  -8   1  -5  338.25    9.30
   8  -1   6  298.87    9.38
   8  -1   6  309.78   10.01
   8  -1   7  173.65    7.41
   8  -1   7  168.85   11.87
   8  -1   8   43.46    2.76
   8  -1   8   37.38    5.27
   8  -1   9   36.05    4.30
   8  -1   9   33.31    5.62
   8  -1  10   37.54    4.11
   8  -1  10   43.22    6.31
   8  -1  11   61.46    5.93
   8  -1  11   53.53    8.86
   8  -1  12    7.53    2.13
  -8   0  16   23.13    5.12
   8   0 -16   34.84    4.10
  -8   0  16   24.47    3.87
  -8   0  15   54.41    9.41
  -8   0  15   75.34    8.88
  -8   0  14   31.80    5.84
  -8   0  14   48.15    5.32
  -8   0  13   77.26    6.43
   8   0 -13   88.99    7.75
  -8   0  13   66.80    5.27
  -8   0  12  114.37    7.55
   8   0 -12  108.07    4.18
  -8   0  12  121.05    4.87
  -8   0  11  138.60    8.34
   8   0 -11  141.18    8.55
  -8   0  11  162.83    7.62
  -8   0  10   14.21    2.55
   8   0 -10   14.03    2.72
  -8   0  10    9.54    2.28
   8   0  -9  194.41   14.41
  -8   0   9  197.42    7.97
   8   0  -8  332.18   10.76
   8   0  -8  339.67   10.96
  -8   0   8  318.53   10.58
   8   0  -7  267.10   11.56
   8   0  -7  278.01   11.72
  -8   0   7  271.49   11.63
   8   0  -6  137.86    7.74
   8   0  -6  132.19    7.63
  -8   0   6  145.38    8.52
   8   0  -5  321.58    7.19
   8   0  -5  302.18   11.61
  -8   0   5  331.90    8.25
   8   0  -4   78.58    5.99
   8   0  -4   72.73    6.09
  -8   0   4   85.02    6.83
   8   0  -3   29.00    3.60
   8   0  -3   38.18    3.40
   8   0  -3   35.33    3.23
  -8   0   3   41.52    3.83
   8   0  -2  263.80   10.33
   8   0  -2  310.44   11.81
   8   0  -2  320.22   12.57
  -8   0   2  339.96   13.27
   8   0  -1  408.13    9.69
   8   0  -1  424.50   10.63
  -8   0   1  402.70   10.01
   8   0   0  998.70   22.61
   8   0   0  982.40   22.80
  -8   0   0  986.41   22.71
   8   0   1  119.53    6.74
   8   0   1  126.80    7.54
  -8   0  -1  136.17    7.67
   8   0   2   60.96    4.77
   8   0   2   71.95    9.57
  -8   0  -2   58.56    4.57
   8   0   3  192.36    9.19
   8   0   3  210.23   10.24
  -8   0  -3  198.43    9.50
   8   0   4  191.47    7.33
   8   0   4  205.16   27.85
  -8   0  -4  182.64    6.75
   8   0   5  231.17    8.14
   8   0   5  243.20   15.60
  -8   0  -5  225.93    7.56
   8   0   6  134.06    5.99
   8   0   6  119.20   10.78
   8   0   7  261.24   11.26
   8   0   7  260.15   18.90
   8   0   8  167.61    7.31
   8   0   8  181.70   14.49
   8   0   9   86.77    5.26
   8   0   9   92.05    8.66
   8   0  10   58.09    4.97
   8   0  10   57.38    8.94
   8   0  11   34.48    3.83
   8   0  11   31.61    7.11
   8   0  12   11.03    2.54
  -8  -1  15   45.46    7.12
   8   1 -15   56.17    6.79
  -8  -1  15   56.13    7.96
  -8  -1  14   70.65   10.28
   8   1 -14   68.54    7.72
  -8  -1  14   75.51    6.83
  -8  -1  13  138.41    9.71
   8   1 -13  143.71    5.58
  -8  -1  13  145.84    6.02
  -8  -1  12  115.75    8.72
   8   1 -12  134.87    4.91
  -8  -1  12  120.86    4.96
  -8  -1  11  188.18   10.70
   8   1 -11  164.78   12.39
  -8  -1  11  192.29   12.90
  -8  -1  10   46.63    4.45
   8   1 -10   42.51    4.76
  -8  -1  10   42.97    5.21
  -8  -1   9    4.58    1.31
   8   1  -9    6.81    1.59
  -8  -1   9    4.83    1.64
   8   1  -8  858.25   24.93
   8   1  -8  875.50   25.78
  -8  -1   8  833.35   26.96
   8   1  -7  130.82   16.07
  -8  -1   7  153.18    8.02
   8   1  -6  148.32    7.14
  -8  -1   6  146.93    7.79
   8   1  -5  270.73    9.97
   8   1  -5  335.67    7.30
  -8  -1   5  338.43    8.43
   8   1  -4  253.40    9.36
   8   1  -4  294.94   10.80
  -8  -1   4  287.71   12.38
   8   1  -3   93.82    6.89
   8   1  -3  102.45    5.69
   8   1  -3  106.86    6.34
  -8  -1   3  108.28    6.53
   8   1  -2  760.07   17.18
   8   1  -2  870.78   19.57
   8   1  -2  910.01   21.24
  -8  -1   2  879.57   20.85
   8   1  -1   70.00    5.85
   8   1  -1   79.27    5.92
   8   1  -1   84.16    6.63
  -8  -1   1   69.77    5.53
   8   1   0    5.33    1.28
  -8  -1   0    1.86    0.61
   8   1   0    1.87    1.43
  -8  -1   0    3.19    1.20
   8   1   1  132.71    7.29
  -8  -1  -1  117.93    6.49
   8   1   1  136.79    8.01
  -8  -1  -1  130.61    7.52
   8   1   2 1092.43   21.07
   8   1   2 1068.52   21.59
  -8  -1  -2 1041.66   20.33
   8   1   3  488.38    9.98
   8   1   3  484.30   11.61
  -8  -1  -3  485.86    9.94
   8   1   4    8.62    1.40
   8   1   4    9.25    2.27
  -8  -1  -4   11.09    1.57
   8   1   5    9.58    1.96
   8   1   5   12.30    2.05
  -8  -1  -5    8.79    1.21
   8   1   6  124.19    5.46
   8   1   6  107.46    9.24
   8   1   7  172.71    7.25
   8   1   7  154.69    7.97
   8   1   8  136.52    4.15
   8   1   8  131.80   11.46
   8   1   9   28.71    3.44
   8   1   9   28.39    5.86
   8   1  10   34.30    4.34
   8   1  10   40.15    6.43
   8   1  11   35.63    3.86
   8   1  11   28.06    7.34
   8   1  12   11.17    2.43
  -8  -2  15   36.75    7.55
   8   2 -15   54.88    7.94
  -8  -2  15   45.34    4.49
  -8  -2  14   45.49    8.81
   8   2 -14   65.85    7.30
  -8  -2  14   68.33    7.68
  -8  -2  13   61.50    6.90
   8   2 -13   58.45    6.77
  -8  -2  13   66.70    8.16
  -8  -2  12  183.44    8.32
   8   2 -12  201.03    8.44
  -8  -2  12  176.78    6.15
  -8  -2  11  214.40    9.02
   8   2 -11  230.55   10.06
  -8  -2  11  248.07    9.79
  -8  -2  10  324.74   13.65
   8   2 -10  334.46   14.44
  -8  -2   9   23.27    2.83
   8   2  -9   24.89    2.48
  -8  -2   9   20.53    2.44
   8   2  -8   78.60    3.80
  -8  -2   8   76.55    4.12
   8   2  -7  121.29    5.68
   8   2  -7  144.95    9.64
  -8  -2   7  123.54    5.58
   8   2  -6   39.62    3.39
   8   2  -6   48.93    5.43
   8   2  -6   45.05    4.20
  -8  -2   6   52.85    5.01
   8   2  -5  146.18    6.83
   8   2  -5  164.37    7.68
   8   2  -5  177.79    8.86
  -8  -2   5  172.39    8.83
   8   2  -4  472.34    9.64
   8   2  -4  492.63   10.07
   8   2  -4  522.35   11.79
  -8  -2   4  498.99   11.48
   8   2  -3  151.28    8.07
   8   2  -3  168.01    8.98
   8   2  -3  165.20    9.30
  -8  -2   3  168.43    9.76
   8   2  -2   20.51    2.81
   8   2  -2   26.90    3.29
   8   2  -2   25.90    3.51
  -8  -2   2   30.19    4.13
   8   2  -1    0.87    0.57
   8   2  -1    0.76    0.65
   8   2  -1    4.86    2.36
  -8  -2   1    1.69    1.06
   8   2   0   23.20    2.87
   8   2   0   25.62    3.50
  -8  -2   0   31.05    5.09
   8   2   1  338.60    6.78
  -8  -2  -1  321.60   12.73
   8   2   1  344.21    9.22
  -8  -2  -1  353.79    7.89
   8   2   2  412.71    8.30
   8   2   2  415.75    9.32
  -8  -2  -2  420.68    8.87
   8   2   3  168.25    6.28
  -8  -2  -3  165.62    7.35
   8   2   4   21.78    1.72
  -8  -2  -4   22.78    1.55
   8   2   5   74.03    3.62
   8   2   6  119.93    7.00
   8   2   7   59.77    4.27
   8   2   8   36.90    3.68
   8   2   8   30.95    4.24
   8   2   9   49.31    4.40
   8   2   9   44.19    6.77
   8   2  10    6.62    1.83
   8   2  10   14.69    4.37
   8   2  11   53.00    8.35
   8   2  11   59.43   12.04
  -8  -3  15   52.90    8.13
   8   3 -15   69.66    9.60
  -8  -3  15   85.42    8.73
  -8  -3  14   15.13    3.27
   8   3 -14   17.79    2.81
  -8  -3  14   23.02    4.06
  -8  -3  13   89.16    9.62
   8   3 -13   94.45   12.31
  -8  -3  12  317.13   11.10
   8   3 -12  317.69   17.52
  -8  -3  12  324.10   10.56
  -8  -3  11  222.37    8.52
   8   3 -11  219.01   15.33
  -8  -3  11  211.96    8.83
  -8  -3  10   98.82    5.24
   8   3 -10  108.72    6.96
  -8  -3  10  105.19    6.91
  -8  -3   9   99.18    6.15
   8   3  -9   98.96    4.98
  -8  -3   9  107.80    5.90
  -8  -3   8    4.57    1.00
   8   3  -8    3.24    1.32
  -8  -3   8    8.90    2.79
   8   3  -7  156.28    6.06
   8   3  -7  166.51    6.92
  -8  -3   7  157.81    6.81
   8   3  -6   78.44    4.16
   8   3  -6   95.00   10.84
  -8  -3   6   86.17   10.48
   8   3  -5  221.07    8.73
   8   3  -5  251.02   10.69
  -8  -3   5  239.15   10.93
   8   3  -4   91.70    5.48
  -8  -3   4   87.94    8.02
   8   3  -3   10.31    2.18
  -8  -3   3   13.52    2.66
   8   3  -2   15.84    2.69
  -8  -3   2   21.67    3.72
   8   3  -1  247.19   10.43
  -8  -3   1  269.33   11.44
   8   3   0   27.78    2.88
  -8  -3   0   32.37    3.27
   8   3   1    2.68    0.66
  -8  -3  -1    3.24    0.62
   8   3   1    6.52    1.94
  -8  -3  -1    2.75    1.43
   8   3   2   54.53    1.65
   8   3   2   57.38    6.02
  -8  -3  -2   65.17    4.26
   8   3   3  430.65   12.47
   8   3   3  436.36   16.31
  -8  -3  -3  433.14   12.80
   8   3   4    4.98    1.17
   8   3   4    3.45    1.19
  -8  -3  -4    3.31    1.07
   8   3   5   99.75    5.08
   8   3   5  114.97    7.86
   8   3   6  205.79    8.19
   8   3   6  190.83    9.37
   8   3   7   75.08    6.60
   8   3   7   96.60    8.74
   8   3   8   45.02    5.55
   8   3   8   48.29    7.58
   8   3   9   66.59    8.04
   8   3   9   67.56   11.04
   8   3  10   20.09    3.37
   8   3  10   24.85    6.10
   8   3  11   71.50   13.27
   8   4 -15  145.38   13.92
  -8  -4  15  144.39   14.21
   8   4 -14   34.78    3.75
  -8  -4  14   38.71    4.47
   8   4 -13   74.22    6.35
  -8  -4  13   78.12    6.96
  -8  -4  12  102.43    8.68
   8   4 -12  120.58    6.92
  -8  -4  12  110.53    6.92
  -8  -4  11  141.85    4.31
   8   4 -11  143.26    4.71
  -8  -4  11  155.44    5.99
  -8  -4  10   80.82    5.62
   8   4 -10   99.39    6.60
  -8  -4   9  121.86    6.97
   8   4  -9  148.35   10.29
  -8  -4   9  107.70    6.99
  -8  -4   8  191.50    6.65
   8   4  -8  199.71    7.40
  -8  -4   8  202.36    8.00
   8   4  -7  197.85    6.63
   8   4  -7  202.45    7.58
  -8  -4   7  204.58    8.23
   8   4  -6  254.08   12.58
  -8  -4   6  248.01   14.15
   8   4  -5  238.05   11.79
  -8  -4   5  220.30   11.21
   8   4  -4    8.28    1.68
  -8  -4   4    8.28    1.84
   8   4  -3   21.72    3.07
   8   4  -2  103.45    5.79
  -8  -4   2  102.86    5.97
   8   4  -1  120.62    7.07
  -8  -4   1  124.91    7.05
   8   4   0   69.08    8.40
  -8  -4   0   70.23    3.32
   8   4   1  168.57   10.38
  -8  -4  -1  169.18    6.96
   8   4   2   13.91    2.61
  -8  -4  -2   10.44    1.76
   8   4   3  116.23    6.12
  -8  -4  -3  114.54    5.36
   8   4   4   67.79    7.14
  -8  -4  -4   50.45    2.65
   8   4   5   39.12    4.15
   8   4   6  307.96   11.90
   8   4   7  124.54   12.48
   8   4   8   75.64    8.63
   8   4   9   82.84   10.75
   8   4  10   60.15   11.42
   8   5 -14   79.38   20.88
  -8  -5  14   79.70    8.33
   8   5 -13   25.36    4.16
  -8  -5  13   23.35    4.00
   8   5 -12   28.19    3.33
   8   5 -11   59.54    5.27
   8   5 -10   86.63    7.15
  -8  -5  10   95.15    6.49
   8   5  -9   42.66    2.39
  -8  -5   9   37.26    4.00
   8   5  -8  158.34    6.76
  -8  -5   8  165.93    8.01
   8   5  -7  254.24   31.29
  -8  -5   7  249.22    9.44
   8   5  -6  201.36    7.65
  -8  -5   6  192.89    8.70
   8   5  -5  286.74   44.73
  -8  -5   5  272.03   10.09
   8   5  -4   20.12    2.01
  -8  -5   4   28.77    3.03
   8   5  -3    5.77    1.36
  -8  -5   3    7.24    2.32
   8   5  -2  254.59   12.65
  -8  -5   2  253.93   12.75
   8   5  -1  494.48   13.54
  -8  -5   1  531.27   14.56
   8   5   0  237.02   10.17
  -8  -5   0  230.67    8.37
   8   5   1  142.69   11.60
  -8  -5  -1  124.97    6.17
   8   5   2  126.62   10.41
  -8  -5  -2  117.31    5.23
   8   5   3   28.50    4.05
  -8  -5  -3   27.76    3.27
   8   5   4  228.92   10.09
  -8  -5  -4  206.61    8.78
   8   5   5   28.42    3.08
   8   5   6   76.39    9.86
   8   5   7   30.83    4.97
   8   5   8   79.90   10.10
   8   5   9  108.00   15.78
   8   5  10   47.10    7.90
   8   6 -14   55.67    7.68
  -8  -6  14   52.34    7.51
   8   6 -13   42.83    4.01
  -8  -6  13   44.10    5.45
  -8  -6  12   58.86    8.44
   8   6 -11   45.54    4.16
   8   6 -10    6.44    1.42
  -8  -6  10    9.22    2.61
   8   6  -9  107.15    3.83
  -8  -6   9  116.27    4.64
   8   6  -8   73.77    6.75
  -8  -6   8   72.48    5.83
   8   6  -7  188.53    7.86
  -8  -6   7  203.53    9.02
   8   6  -6  181.29    7.51
  -8  -6   6  194.69    8.65
   8   6  -5  209.92    7.63
  -8  -6   5  205.81    8.01
   8   6  -4  184.99    6.78
  -8  -6   4  193.56    7.70
   8   6  -3   47.70    2.93
  -8  -6   3   54.62    3.89
   8   6  -2  647.71   18.90
  -8  -6   2  666.75   19.71
   8   6  -1  443.62   13.32
  -8  -6   1  431.52   13.30
   8   6   0  107.00    8.12
  -8  -6   0  106.17    5.07
   8   6   1  111.03   10.30
  -8  -6  -1  116.54    7.06
   8   6   2  333.53   14.37
  -8  -6  -2  318.81   13.51
   8   6   3  102.35    7.28
  -8  -6  -3   96.10    6.36
   8   6   4   56.28    6.43
   8   6   5   48.04    5.98
   8   6   6   17.43    4.36
   8   6   7   30.37    5.34
   8   6   8   67.63   11.05
   8   6   9   74.44   11.99
   8   7 -13  125.52    9.01
  -8  -7  13  135.20   10.09
   8   7 -12   36.81    4.52
  -8  -7  12   37.24   10.09
   8   7 -11   97.11    8.35
  -8  -7  11   86.59    8.94
   8   7 -10   28.05    3.16
  -8  -7  10   27.94    6.46
   8   7  -9   70.73    6.99
  -8  -7   9   74.22    6.22
   8   7  -8  210.05    6.78
  -8  -7   8  207.93    7.49
   8   7  -7  161.59    5.06
  -8  -7   7  160.76    6.07
   8   7  -6  165.94    7.14
  -8  -7   6  183.18    7.89
   8   7  -5  142.65    6.26
  -8  -7   5  155.51    7.32
   8   7  -4  313.58   13.25
  -8  -7   4  304.30   13.88
   8   7  -3  223.32    9.82
  -8  -7   3  228.05   10.71
   8   7  -2  123.21    7.32
  -8  -7   2  107.82    6.86
   8   7  -1  178.63   12.38
  -8  -7   1  172.79    7.51
   8   7   0  161.56    6.91
  -8  -7   0  162.95    7.85
   8   7   1  179.58    7.17
  -8  -7  -1  186.31    7.44
   8   7   2  171.25    5.29
  -8  -7  -2  173.29    7.49
   8   7   3   91.92   10.13
  -8  -7  -3   82.00    4.65
   8   7   4   22.99    4.40
   8   7   5  122.89   13.06
   8   7   6   75.26    9.50
   8   7   7   23.84    4.92
   8   7   8   37.75    8.29
   8   8 -12   14.65    2.73
  -8  -8  12   18.15    4.08
   8   8 -11   36.87    5.36
  -8  -8  11   34.42    4.88
   8   8 -10   89.89    8.13
  -8  -8  10   95.61    8.76
   8   8  -9   37.81    3.93
  -8  -8   9   36.01    4.35
   8   8  -8  189.48    8.06
  -8  -8   8  190.83    8.99
   8   8  -7   93.22    5.36
  -8  -8   7  101.50    6.39
   8   8  -6  169.84    5.56
  -8  -8   6  162.56    6.30
   8   8  -5  170.95    5.06
  -8  -8   5  177.37    6.47
   8   8  -4   72.32    4.12
  -8  -8   4   73.56    4.87
   8   8  -3   40.73    4.01
  -8  -8   3   43.42    4.25
   8   8  -2   53.98    6.72
  -8  -8   2   58.99    5.15
   8   8  -1  119.11    9.89
  -8  -8   1  111.22    4.34
   8   8   0   69.53    8.02
  -8  -8   0   76.79    4.50
   8   8   1   63.22    8.54
  -8  -8  -1   61.09    4.74
   8   8   2   98.27   12.09
  -8  -8  -2  108.28   12.87
   8   8   3   29.12    3.82
  -8  -8  -3   23.76    3.48
   8   8   4   36.62    5.22
   8   8   5   45.58    8.03
   8   8   6   19.67    4.74
   8   8   7   13.77    3.13
  -8  -9  10   50.34    7.28
  -8  -9   9   30.07    4.73
   8   9  -8   40.57    4.43
  -8  -9   8   53.40    6.94
   8   9  -7  119.93    5.19
  -8  -9   7  146.05    7.57
   8   9  -6  155.06    6.50
  -8  -9   6  164.88    7.80
   8   9  -5   31.25    4.67
  -8  -9   5   41.24    4.67
   8   9  -4   45.55    4.04
  -8  -9   4   43.74    4.71
   8   9  -3   28.32    3.97
  -8  -9   3   30.84    3.71
   8   9  -2   42.68    5.06
  -8  -9   2   47.59    4.76
   8   9  -1   35.65    5.16
  -8  -9   1   34.99    4.11
   8   9   0   46.67    6.18
  -8  -9   0   56.28    4.96
   8   9   1   20.94    4.04
   8   9   2   82.72   11.96
  -8  -9  -2   95.71    8.47
   8   9   4   13.96    2.80
  -8 -10   8   12.03    3.25
  -8 -10   7   26.15    5.01
  -8 -10   6   53.44    7.13
  -8 -10   5   18.86    3.40
  -8 -10   4    6.27    2.25
  -8 -10   3  110.60    9.93
  -8 -10   2   20.78    3.46
  -8 -10   1   27.92    4.49
  -8 -10   0   47.26    5.72
  -8 -10  -1   88.49    8.58
  -8 -10  -2  100.09    9.56
  -8 -11   5   50.86    7.82
  -8 -11   4    4.17    2.52
  -8 -11   3   73.20    6.15
  -8 -11   2   19.75    3.83
  -8 -11   1   28.23    4.74
   9 -11  -4   11.42    2.96
  -9  11   4    7.38    2.39
   9 -11  -3   17.72    3.75
  -9  11   3   16.14    4.04
   9 -11  -2    2.70    2.48
  -9  11   2    4.66    1.78
  -9  11   1   37.38    7.74
   9 -11   0   22.89    4.92
  -9  11   0   16.22    3.92
   9 -11   1    7.68    2.89
  -9  11  -1    9.96    3.33
   9 -11   2    9.49    3.43
  -9  11  -2    0.75    1.30
   9 -10  -7   23.48    4.36
  -9  10   7   11.87    3.25
  -9  10   6    9.24    2.58
   9 -10  -5   16.07    3.47
  -9  10   5   22.49    4.58
   9 -10  -4    4.25    2.01
  -9  10   4    8.74    2.33
   9 -10  -3   16.72    3.02
  -9  10   3   14.26    2.42
   9 -10  -2   37.30    5.02
  -9  10   2   37.66    6.66
   9 -10  -1   56.60   11.12
  -9  10   1   39.19   12.63
   9 -10   0   47.15    5.67
  -9  10   0   39.58    7.04
   9 -10   1    6.05    2.35
  -9  10  -1    1.52    1.46
   9 -10   2    5.59    2.19
  -9  10  -2    7.21    2.66
   9 -10   3   30.07    4.57
  -9  10  -3   27.47    5.40
   9 -10   4   51.39    7.27
  -9  10  -4   34.09   10.03
   9 -10   5   24.06    4.79
  -9  10  -5   17.99    4.83
   9  -9  -9    5.84    2.03
  -9   9   9    8.81    2.35
   9  -9  -8    4.26    1.74
   9  -9  -8    3.89    1.50
  -9   9   8    2.33    1.48
   9  -9  -7   45.46    5.72
   9  -9  -7   55.48   10.54
  -9   9   7   55.36   11.35
   9  -9  -6    7.20    2.61
   9  -9  -6    2.10    1.15
  -9   9   6    6.63    2.67
   9  -9  -5   13.98    3.35
   9  -9  -5   12.97    2.94
  -9   9   5   10.09    3.00
   9  -9  -4   17.60    3.58
  -9   9   4   22.70    4.38
   9  -9  -3   55.71    4.52
  -9   9   3   50.89    8.47
   9  -9  -2   21.24    3.28
   9  -9  -2   26.45    3.27
  -9   9   2   34.38    5.64
   9  -9  -1    7.63    2.51
   9  -9  -1    4.67    1.08
  -9   9   1   10.77    2.11
   9  -9   0   14.48    2.44
   9  -9   0   15.41    2.47
  -9   9   0   20.61    4.46
  -9   9  -1   31.17    4.86
  -9   9  -2   25.65    5.02
   9  -9   3   29.48    4.73
  -9   9  -3   18.08    4.46
   9  -9   4   13.61    2.78
  -9   9  -4   11.79    3.55
   9  -9   5   20.18    4.17
  -9   9  -5   11.68    2.94
   9  -9   6    5.06    2.23
  -9   9  -6    2.25    1.33
   9  -8 -10   19.06    4.23
   9  -8 -10    6.40    1.59
  -9   8  10   14.67    3.33
   9  -8  -9   26.06    4.32
   9  -8  -9   26.86    5.10
  -9   8   9   37.05    4.63
   9  -8  -8    4.55    1.67
   9  -8  -8   12.49    2.89
   9  -8  -7   51.05    5.38
   9  -8  -7   37.31    4.08
  -9   8   7   48.67    4.80
   9  -8  -6   45.30    4.41
   9  -8  -6   43.84    3.95
  -9   8   6   50.81    5.23
   9  -8  -5   26.34    3.95
   9  -8  -5   30.52    3.62
  -9   8   5   22.75    3.02
   9  -8  -4   62.34    5.32
   9  -8  -4   52.16    4.22
  -9   8   4   64.37    4.97
   9  -8  -3   81.43    4.95
   9  -8  -3   87.09    4.63
  -9   8   3   69.32    8.58
   9  -8  -2   14.11    2.33
   9  -8  -2   13.77    1.83
  -9   8   2   20.58    3.91
   9  -8  -1   39.22    4.25
   9  -8  -1   46.66    3.89
  -9   8   1   36.62    5.33
   9  -8   0   37.36    4.28
  -9   8   0   34.43    5.04
   9  -8   1   55.88    5.24
  -9   8  -1   55.51    6.69
   9  -8   2   19.65    3.54
   9  -8   2   13.89    2.59
  -9   8  -2   19.12    4.04
   9  -8   3   35.78    4.98
   9  -8   3   26.59    4.55
  -9   8  -3   21.82    4.96
   9  -8   4   42.45    4.37
   9  -8   4   36.05    5.57
  -9   8  -4   30.14    6.66
   9  -8   5   18.91    3.55
   9  -8   5   14.27    2.70
  -9   8  -5   18.26    3.55
   9  -8   6   24.47    4.19
   9  -8   6   16.03    3.97
  -9   8  -6   13.05    4.15
   9  -8   7   13.78    4.00
   9  -8   7    4.69    1.71
   9  -8   8   12.08    3.05
   9  -7 -12   50.90    7.11
   9  -7 -12   57.24    8.16
  -9   7  12   60.49    8.42
   9  -7 -11    7.94    2.53
  -9   7  11    9.89    2.70
   9  -7 -10   17.49    2.99
   9  -7 -10   10.77    2.72
  -9   7  10   14.19    3.02
   9  -7  -9   57.52    6.87
   9  -7  -9   40.20    4.38
  -9   7   9   33.52    4.29
   9  -7  -8   47.84    4.53
   9  -7  -8   46.62    4.28
  -9   7   8   54.81    5.04
   9  -7  -7   36.43    4.35
   9  -7  -7   40.21    4.87
  -9   7   7   42.52    4.88
   9  -7  -6   34.03    4.31
   9  -7  -6   33.72    3.58
  -9   7   6   33.35    3.66
   9  -7  -5   24.71    3.24
   9  -7  -5   21.48    2.51
  -9   7   5   20.55    2.64
   9  -7  -4   67.30    5.35
   9  -7  -4   70.46    5.02
  -9   7   4   78.95    5.70
   9  -7  -3   23.05    2.92
   9  -7  -3   23.23    1.78
  -9   7   3   26.83    2.35
   9  -7  -2   59.91    5.00
   9  -7  -2   65.47    4.77
  -9   7   2   53.05    4.26
   9  -7  -1    6.37    2.74
   9  -7  -1    1.46    1.14
   9  -7   0   65.47    5.79
   9  -7   0   52.23    3.94
  -9   7   0   58.41    5.65
   9  -7   1   33.50    3.55
   9  -7   1   32.77    2.46
  -9   7  -1   27.87    4.50
   9  -7   2   17.01    3.11
   9  -7   2   12.06    2.67
  -9   7  -2   14.00    2.52
   9  -7   3   45.76    4.79
   9  -7   3   31.91    4.64
  -9   7  -3   39.92    6.25
   9  -7   4  138.87    5.95
   9  -7   4  124.79   10.15
  -9   7  -4  116.43    8.48
   9  -7   5    6.94    2.94
   9  -7   5    5.23    1.44
  -9   7  -5    2.11    1.05
   9  -7   6   14.28    3.42
   9  -7   6   10.49    3.01
  -9   7  -6    6.73    2.02
   9  -7   7   41.33    5.18
   9  -7   7   25.12    5.97
   9  -7   8   54.74    7.00
   9  -7   8   34.14    6.77
   9  -7   9   32.61    5.17
   9  -7   9   12.53    4.34
   9  -6 -12   30.57    4.34
   9  -6 -12   36.74    4.66
  -9   6  12   35.74    5.30
   9  -6 -11   19.89    3.28
   9  -6 -11   16.45    2.58
  -9   6  11   15.12    2.69
   9  -6 -10  100.75    5.13
   9  -6 -10   89.49    7.62
  -9   6  10  101.20    5.37
   9  -6  -9   40.24    4.43
   9  -6  -9   47.56    4.63
  -9   6   9   52.26    5.17
   9  -6  -8   70.30    6.93
   9  -6  -8   85.91    6.35
  -9   6   8   78.70    4.68
   9  -6  -7   41.10    4.35
   9  -6  -7   35.12    3.64
  -9   6   7   35.20    3.90
   9  -6  -6   51.79    4.62
   9  -6  -6   60.30    4.80
  -9   6   6   48.13    4.04
   9  -6  -5   32.43    3.07
   9  -6  -5   39.29    3.34
  -9   6   5   37.71    3.80
   9  -6  -4   39.03    3.91
   9  -6  -4   42.86    3.56
  -9   6   4   42.58    3.85
   9  -6  -3   10.52    2.15
   9  -6  -3   16.59    2.76
  -9   6   3    5.10    1.46
   9  -6  -2   51.58    4.78
   9  -6  -2   52.99    4.14
  -9   6   2   51.13    4.24
   9  -6  -1    4.57    2.52
   9  -6  -1    3.59    1.25
  -9   6   1    1.08    1.75
   9  -6   0    9.43    3.23
   9  -6   0    5.84    1.82
  -9   6   0    2.39    1.24
   9  -6   1   45.56    4.39
   9  -6   1   32.99    4.31
  -9   6  -1   34.51    5.45
   9  -6   2   29.59    4.15
   9  -6   2   26.98    5.15
  -9   6  -2   25.20    4.74
   9  -6   3   38.26    2.77
   9  -6   3   37.37    4.80
  -9   6  -3   27.89    4.44
   9  -6   4   56.74    5.21
   9  -6   4   53.97    7.05
  -9   6  -4   49.56    5.40
   9  -6   5    7.31    3.15
   9  -6   5    0.52    1.14
  -9   6  -5    1.37    1.06
   9  -6   6    4.87    1.71
   9  -6   6    2.00    1.47
  -9   6  -6    1.18    0.76
   9  -6   7   84.67    7.46
   9  -6   7   64.01   10.88
   9  -6   8   47.23    5.66
   9  -6   8   41.25    6.67
   9  -6   9   12.05    3.19
   9  -5 -13   24.28    5.41
   9  -5 -13   23.07    6.14
  -9   5  13   35.50    4.88
   9  -5 -12   41.02    4.80
   9  -5 -12   37.07    4.99
  -9   5  12   37.27    4.21
   9  -5 -11   47.21    5.40
   9  -5 -11   46.38    5.07
  -9   5  11   51.55    5.92
   9  -5 -10  139.93    6.64
   9  -5 -10  142.32    6.68
  -9   5  10  142.40    6.88
   9  -5  -9   72.48    4.65
   9  -5  -9   77.96    4.52
   9  -5  -8   64.42    6.02
   9  -5  -8   77.50    5.66
  -9   5   8   76.54    8.03
   9  -5  -7   71.49    5.49
   9  -5  -7   79.76    5.57
  -9   5   7   79.58    5.66
   9  -5  -6   59.39    4.88
   9  -5  -6   68.35    4.13
  -9   5   6   57.74    5.01
   9  -5  -5   93.09    5.16
   9  -5  -5  105.54    5.12
  -9   5   5   96.08   12.29
   9  -5  -4  139.81    6.62
   9  -5  -4  134.20    6.10
  -9   5   4  149.51   18.63
   9  -5  -3   43.27    3.61
   9  -5  -3   40.62    3.21
  -9   5   3   41.06    3.25
   9  -5  -2    7.51    1.69
   9  -5  -2    5.71    1.41
  -9   5   2    9.38    2.15
   9  -5  -1  126.59    6.68
   9  -5  -1  106.74    5.36
  -9   5   1  119.01    6.18
   9  -5   0    6.00    2.00
   9  -5   0    7.83    1.87
  -9   5   0   10.05    2.45
   9  -5   1  203.49    8.01
   9  -5   1  207.31    7.64
  -9   5  -1  202.24    7.53
   9  -5   2  133.29    6.45
   9  -5   2  137.30    7.68
  -9   5  -2  134.51    7.01
   9  -5   3   19.92    3.08
   9  -5   3   26.33    3.91
  -9   5  -3   20.30    3.52
   9  -5   4   11.39    1.94
   9  -5   4   22.58    2.97
  -9   5  -4   14.33    2.83
   9  -5   5    9.78    2.05
   9  -5   5    3.15    0.92
  -9   5  -5    4.11    1.33
   9  -5   6   -1.75    1.40
   9  -5   6    2.23    1.29
   9  -5   7   53.82   10.44
   9  -5   7   49.93    6.19
   9  -5   8   33.62    4.54
   9  -5   8   30.30    6.38
   9  -5   9   35.68    4.92
   9  -5   9   38.47    6.70
   9  -5  10   13.12    2.82
   9  -5  10    9.77    2.53
   9  -4 -14    4.33    1.41
   9  -4 -14    5.33    2.22
  -9   4  14   10.81    2.98
   9  -4 -13    1.81    1.54
   9  -4 -13    4.03    2.08
  -9   4  13    5.07    2.06
   9  -4 -12   79.90    6.87
  -9   4  12   86.79    7.41
   9  -4 -11   64.50    5.44
   9  -4 -11   58.01    5.38
  -9   4  11   75.43    5.93
   9  -4 -10   36.56    4.51
   9  -4 -10   43.34    4.02
  -9   4  10   39.11    5.08
   9  -4  -9   91.68    6.22
   9  -4  -9   84.30    5.90
   9  -4  -8    4.53    1.36
   9  -4  -8    4.66    1.82
  -9   4   8    6.79    2.58
   9  -4  -7   70.89    4.23
   9  -4  -7   73.97    5.68
  -9   4   7   80.19    5.05
   9  -4  -6   39.69    4.53
   9  -4  -6   39.62    4.72
  -9   4   6   40.78    4.86
   9  -4  -5  215.98    7.86
   9  -4  -5  241.52    8.99
  -9   4   5  222.83    8.46
   9  -4  -4  364.90   10.47
   9  -4  -4  355.21   10.24
  -9   4   4  346.64   10.26
   9  -4  -3  145.25    7.13
   9  -4  -3  138.94    6.76
  -9   4   3  147.88    7.34
   9  -4  -2    0.15    1.37
   9  -4  -2   -0.03    1.31
  -9   4   2    3.61    1.34
   9  -4  -1  208.35    7.81
   9  -4  -1  206.95    7.66
  -9   4   1  206.33    7.72
   9  -4   0  217.61    8.07
   9  -4   0  214.51    7.87
  -9   4   0  215.87    7.91
   9  -4   1  198.72    7.75
   9  -4   1  215.59    8.07
  -9   4  -1  203.51    7.55
   9  -4   2   73.60    4.35
   9  -4   2   81.18    6.86
  -9   4  -2   72.18    3.80
   9  -4   3   45.99    3.28
   9  -4   3   46.06    4.56
  -9   4  -3   43.34    6.38
   9  -4   4   45.85    3.99
   9  -4   4   37.32    4.40
  -9   4  -4   30.49    5.26
   9  -4   5   18.31    2.61
   9  -4   5   21.16    2.56
  -9   4  -5   16.81    3.29
   9  -4   6   18.57    2.78
   9  -4   6   18.06    3.01
   9  -4   7   47.29    4.32
   9  -4   7   52.72    7.54
   9  -4   8   18.22    3.35
   9  -4   8   14.73    3.43
   9  -4   9   45.37    5.18
   9  -4   9   45.62    5.92
   9  -4  10   17.01    3.50
   9  -4  10   13.00    3.32
   9  -3 -14    9.78    2.49
   9  -3 -14    9.29    2.63
  -9   3  14   10.90    2.63
   9  -3 -13   32.47    4.33
   9  -3 -13   24.16    4.04
  -9   3  13   31.99    6.56
   9  -3 -12   33.85    3.80
   9  -3 -12   35.51    4.28
  -9   3  12   33.99    4.00
   9  -3 -11    8.41    2.07
   9  -3 -11    8.88    2.49
  -9   3  11    4.94    1.71
   9  -3 -10    3.59    1.26
   9  -3 -10    8.83    2.29
  -9   3  10    7.61    2.30
   9  -3  -9   51.00    4.24
   9  -3  -9   61.93    5.04
  -9   3   9   64.15    5.47
   9  -3  -8    3.97    1.30
   9  -3  -8    0.46    1.77
  -9   3   8    1.61    1.49
   9  -3  -7    9.79    2.22
   9  -3  -7   13.11    2.51
  -9   3   7    9.74    2.31
   9  -3  -6   71.77    4.06
   9  -3  -6   65.65    4.24
  -9   3   6   66.27    4.37
   9  -3  -5   98.46    5.07
   9  -3  -5   91.06    5.22
  -9   3   5   93.23    4.92
   9  -3  -4   46.92    2.57
   9  -3  -4   60.23    3.36
  -9   3   4   55.04    2.99
   9  -3  -3   14.46    2.26
   9  -3  -3   16.01    2.52
  -9   3   3    7.64    1.65
   9  -3  -2   99.47    4.29
   9  -3  -2   97.05    4.69
  -9   3   2  110.75    4.98
   9  -3  -1  118.37    5.24
   9  -3  -1  113.18    4.80
  -9   3   1  105.36    4.69
   9  -3   0  169.65    6.86
   9  -3   0  180.20    7.48
  -9   3   0  178.74    7.33
   9  -3   1   61.28    3.56
   9  -3   1   78.28    4.23
  -9   3  -1   78.25    4.06
   9  -3   2   80.19    4.45
   9  -3   2   71.26    7.12
  -9   3  -2   68.87    3.55
   9  -3   3   14.21    2.38
   9  -3   3   16.91    2.93
  -9   3  -3   16.89    2.05
   9  -3   4   84.14    4.49
   9  -3   4   90.09    9.75
  -9   3  -4   69.39    7.31
   9  -3   5   91.04    4.85
   9  -3   5   96.53    9.52
  -9   3  -5   82.56    4.45
   9  -3   6   66.84    5.07
   9  -3   6   72.49    8.30
   9  -3   7   58.98    4.94
   9  -3   7   54.53    5.60
   9  -3   8   19.24    2.82
   9  -3   8   23.15    4.82
   9  -3   9   15.12    3.52
   9  -3  10   50.56    6.22
   9  -3  10   41.37    6.59
   9  -2 -14   26.97    4.71
   9  -2 -14   32.43    4.73
  -9   2  14   33.45    4.48
   9  -2 -13  157.82   15.29
   9  -2 -13  157.90    7.18
  -9   2  13  158.84   11.96
   9  -2 -12   34.44    6.36
   9  -2 -12   35.83    4.13
  -9   2  12   48.22    4.78
   9  -2 -11   19.14    3.10
   9  -2 -11   12.45    2.22
  -9   2  11   19.25    2.79
   9  -2 -10   16.42    2.18
   9  -2 -10   17.28    2.60
  -9   2  10   20.75    3.12
   9  -2  -9  137.30    8.11
   9  -2  -9  145.81    8.96
  -9   2   9  144.99    8.90
   9  -2  -8  223.56    8.02
   9  -2  -8  239.54    9.10
  -9   2   8  234.88    8.84
   9  -2  -7   29.90    2.60
   9  -2  -7   29.61    4.56
  -9   2   7   24.27    2.75
   9  -2  -6   64.25    3.48
   9  -2  -6   70.45    3.94
  -9   2   6   64.55    4.20
   9  -2  -5   84.35    3.74
   9  -2  -5   78.11    3.87
  -9   2   5   81.73    3.97
   9  -2  -4  127.75    5.07
   9  -2  -4  126.34    5.40
  -9   2   4  128.12    5.42
   9  -2  -3  122.21    5.10
   9  -2  -3  106.39    4.67
  -9   2   3  116.06   11.52
   9  -2  -2   64.04    5.89
   9  -2  -2   56.06    5.12
  -9   2   2   57.47    5.23
   9  -2  -1  153.97    6.46
   9  -2  -1  141.09    5.99
  -9   2   1  138.81    5.73
   9  -2   0  220.98   11.01
   9  -2   0  228.72   11.44
  -9   2   0  223.96   11.09
   9  -2   1  216.72   10.84
   9  -2   1  211.29   10.84
  -9   2  -1  232.01   11.44
   9  -2   2   83.83    4.23
   9  -2   2   91.67   10.24
  -9   2  -2   85.01    4.17
   9  -2   3    7.43    1.43
   9  -2   3    7.94    1.95
  -9   2  -3    9.87    1.66
   9  -2   4  206.13    7.64
   9  -2   4  215.27   10.21
  -9   2  -4  197.90    6.88
   9  -2   5   75.70    3.98
   9  -2   5   79.51    6.67
  -9   2  -5   71.93    3.82
   9  -2   6  113.04    7.35
   9  -2   6   92.54    8.15
   9  -2   7  155.54    5.09
   9  -2   7  159.12   11.96
   9  -2   8   53.26    4.89
   9  -2   8   56.13    9.03
   9  -2   9   14.37    2.64
   9  -2  10   65.75    7.70
   9  -2  10   44.16    7.18
   9  -2  11    2.80    1.61
   9  -2  11    6.90    2.66
  -9   1  15  106.39    9.91
   9  -1 -15  108.27   13.24
  -9   1  15  107.96    8.31
  -9   1  14   42.79    6.97
   9  -1 -14   43.58    4.39
  -9   1  14   45.62    4.51
  -9   1  13  137.74   10.55
   9  -1 -13  128.13   10.46
   9  -1 -12   91.71   10.14
   9  -1 -12   90.62    8.46
  -9   1  12   93.75    7.06
   9  -1 -11   42.46    7.00
   9  -1 -11   36.06    4.31
  -9   1  11   45.66    4.42
   9  -1 -10    5.34    1.38
   9  -1 -10    6.65    2.22
   9  -1  -9  125.56   13.19
   9  -1  -9  151.22    7.05
  -9   1   9  157.08    7.21
   9  -1  -8  167.89    6.47
   9  -1  -8  165.30    6.61
  -9   1   8  164.42    6.92
   9  -1  -7  181.62    6.80
   9  -1  -7  181.56    7.12
  -9   1   7  193.12    7.67
   9  -1  -6  206.29   10.20
   9  -1  -6  206.93   10.59
  -9   1   6  207.81   10.62
   9  -1  -5  327.54    9.95
   9  -1  -5  351.92   11.18
  -9   1   5  358.25   11.49
   9  -1  -4  125.18    4.84
   9  -1  -4  124.37    5.35
  -9   1   4  121.50    5.23
   9  -1  -3   66.83    5.77
   9  -1  -3   76.55    4.87
  -9   1   3   72.77    4.66
   9  -1  -2  125.92    6.81
   9  -1  -2  135.18    7.04
  -9   1   2  123.12    6.82
   9  -1  -1  219.03    9.07
   9  -1  -1  214.89    9.35
  -9   1   1  203.60   25.03
   9  -1   0  182.76    7.04
   9  -1   0  203.09   24.14
  -9   1   0  189.87    7.43
   9  -1   1  197.91   23.34
   9  -1   1  197.72   23.46
  -9   1  -1  200.48   23.64
   9  -1   2  281.01   13.65
   9  -1   2  269.03   14.17
  -9   1  -2  267.42   12.98
   9  -1   3   50.58    3.38
   9  -1   3   58.60    5.12
  -9   1  -3   48.19    3.09
   9  -1   4   12.74    2.30
   9  -1   4   13.48    3.13
  -9   1  -4   11.56    2.06
   9  -1   5   58.16    4.39
   9  -1   5   64.17    5.60
   9  -1   6   66.41    4.73
   9  -1   6   80.30    7.20
   9  -1   7  148.19    4.53
   9  -1   7  135.50   11.69
   9  -1   8   59.77    5.00
   9  -1   8   64.66    7.17
   9  -1   9   23.62    3.80
   9  -1   9   22.20    4.30
   9  -1  10   32.56    4.16
   9  -1  10   35.00    6.30
   9  -1  11   33.09    5.09
   9  -1  11   29.29    7.13
  -9   0  15   36.45    7.22
  -9   0  15   48.72    7.12
  -9   0  14   29.02    5.70
  -9   0  14   32.45    3.73
  -9   0  13  133.04    8.25
   9   0 -13  141.01    6.77
  -9   0  12  134.93    8.89
   9   0 -12  134.31    6.41
  -9   0  12  131.78    6.70
   9   0 -11    8.07    2.16
  -9   0  11   12.99    2.45
   9   0 -10    3.97    0.97
   9   0 -10    5.83    1.64
   9   0  -9   28.38    3.84
   9   0  -9   30.31    3.25
  -9   0   9   21.84    3.57
   9   0  -8  160.62    5.87
   9   0  -8  143.23    6.76
  -9   0   8  169.89    6.87
   9   0  -7  165.10    7.49
   9   0  -7  168.51   26.46
  -9   0   7  181.24    7.42
   9   0  -6  251.55   12.19
   9   0  -6  248.04   12.46
  -9   0   6  236.53   11.96
   9   0  -5  205.98   10.06
   9   0  -5  187.67    8.07
  -9   0   5  226.19   11.74
   9   0  -4   82.52    3.55
   9   0  -4   92.16    4.26
  -9   0   4   76.80    3.79
   9   0  -3   77.90    4.32
   9   0  -3   83.12    5.39
  -9   0   3   87.16    5.17
   9   0  -2  252.60   10.26
   9   0  -2  251.62   10.76
  -9   0   2  245.36   10.46
   9   0  -1   19.73    3.06
   9   0  -1   22.11    2.51
  -9   0   1   22.93    2.57
   9   0   0   55.51    2.17
   9   0   0   61.62    3.00
  -9   0   0   59.78    2.55
   9   0   1  780.33   22.55
   9   0   1  758.12   22.56
  -9   0  -1  726.21   22.66
   9   0   2  507.10   13.43
   9   0   2  483.45   13.53
  -9   0  -2  513.15   13.69
   9   0   3   26.23    2.14
   9   0   3   30.64    3.37
  -9   0  -3   30.42    2.25
   9   0   4    8.24    1.69
   9   0   4    9.55    2.30
  -9   0  -4    5.76    1.17
   9   0   5   86.88    4.26
   9   0   5   90.29   10.87
   9   0   6   91.64    5.99
   9   0   6   86.19    8.07
   9   0   7   98.21    3.53
   9   0   7   89.99   12.07
   9   0   8   53.84   10.29
   9   0   8   48.49    7.40
   9   0   9   26.64    3.65
   9   0   9   20.60    4.28
   9   0  10   29.63    3.88
   9   0  10   32.67    5.99
   9   0  11    6.07    2.16
  -9  -1  15   25.49    5.00
   9   1 -15   28.61    4.72
  -9  -1  15   28.59    4.77
  -9  -1  14   16.98    3.84
   9   1 -14   23.83    4.30
  -9  -1  14   25.51    4.82
  -9  -1  13   86.47   10.04
   9   1 -13   99.48    5.14
  -9  -1  13   92.12   18.68
  -9  -1  12  146.87    7.42
   9   1 -12  158.07   10.99
  -9  -1  12  178.83    8.31
  -9  -1  11   32.40    5.29
   9   1 -11   40.68    4.28
  -9  -1  11   43.63    4.70
   9   1 -10   44.62    2.22
   9   1 -10   50.77    4.39
   9   1  -9    4.19    1.62
   9   1  -9    1.28    1.72
  -9  -1   9    3.82    1.71
   9   1  -8  319.03    9.53
  -9  -1   8  292.79   12.27
   9   1  -7   43.96    2.85
  -9  -1   7   56.54    9.54
   9   1  -6  111.10    5.25
  -9  -1   6  121.98    6.30
   9   1  -5  301.07   35.25
  -9  -1   5  311.60   10.25
   9   1  -4  231.44   11.08
  -9  -1   4  257.17   12.92
   9   1  -3    6.18    1.10
   9   1  -3    7.17    2.29
  -9  -1   3   10.96    2.61
   9   1  -2    3.78    0.97
   9   1  -2    0.91    1.58
  -9  -1   2    5.53    2.26
   9   1  -1  103.20    3.82
   9   1  -1   96.85    4.50
  -9  -1   1   96.27    4.17
   9   1   0  279.34   13.30
   9   1   0  284.73   14.12
  -9  -1   0  268.97   14.07
   9   1   1  463.59   13.51
   9   1   1  464.29   14.50
  -9  -1  -1  465.12   14.00
   9   1   2  197.88    6.87
   9   1   2  211.94   12.62
  -9  -1  -2  204.71    7.31
   9   1   3   22.24    1.73
   9   1   3   34.11    3.73
  -9  -1  -3   24.58    2.23
   9   1   4   57.80    3.06
   9   1   4   65.25    6.34
  -9  -1  -4   53.24    2.66
   9   1   5  129.03    7.51
   9   1   5  139.63   12.68
   9   1   6  172.01    7.25
   9   1   6  157.16   10.73
   9   1   7   45.79    3.80
   9   1   7   42.57    6.77
   9   1   8   46.65    4.10
   9   1   8   45.03    7.39
   9   1   9   16.12    2.52
   9   1   9   19.67    3.27
   9   1  10   13.88    2.88
   9   1  10   16.75    3.87
   9   2 -15   10.59    2.57
  -9  -2  15   12.34    3.04
  -9  -2  14   33.05    5.66
   9   2 -14   31.10    5.66
  -9  -2  14   37.54    4.25
  -9  -2  13   64.38   10.22
   9   2 -13   82.98    7.55
  -9  -2  13   73.21    9.34
  -9  -2  12  155.23    8.98
   9   2 -12  151.49    7.08
  -9  -2  12  145.37    7.14
  -9  -2  11   55.75    6.51
   9   2 -11   53.11    4.55
   9   2 -10  167.58   11.22
  -9  -2  10  175.38   19.19
   9   2  -9   15.82    2.69
   9   2  -9    6.45    1.48
  -9  -2   9   13.21    2.42
   9   2  -8   43.32    6.21
   9   2  -8   44.97    3.09
  -9  -2   8   37.74    4.48
   9   2  -7  346.39   10.03
   9   2  -7  349.66   11.01
  -9  -2   7  338.16   10.89
   9   2  -6  193.32    6.56
   9   2  -6  214.52    8.26
  -9  -2   6  200.37    7.72
   9   2  -5   57.60    2.72
   9   2  -5   60.39    3.47
  -9  -2   5   63.45    3.82
   9   2  -4   87.81    3.21
   9   2  -4  100.15    4.82
  -9  -2   4   96.44    4.69
   9   2  -3    6.97    0.95
   9   2  -3    7.61    1.60
  -9  -2   3   10.82    2.41
   9   2  -2  260.21   12.23
   9   2  -2  300.92   35.46
  -9  -2   2  293.31   14.48
   9   2  -1  472.40   14.52
  -9  -2   1  457.90   13.99
   9   2   0    7.05    0.99
   9   2   0   13.68    2.50
  -9  -2   0    6.88    1.31
   9   2   1   24.54    1.58
   9   2   1   27.17    3.79
  -9  -2  -1   24.28    2.29
   9   2   2   50.64    2.98
   9   2   2   59.05    5.46
  -9  -2  -2   51.99    3.47
   9   2   3   42.59    4.37
  -9  -2  -3   43.41    5.55
   9   2   4   49.99    3.65
  -9  -2  -4   55.98    4.54
   9   2   5  127.22    5.38
   9   2   6  108.99    3.37
   9   2   7   51.86    4.23
   9   2   7   51.87    8.28
   9   2   8   27.91    5.52
   9   2   9   61.98    9.31
   9   2  10   47.68   10.02
   9   3 -14   24.80    5.64
  -9  -3  14   27.43    5.36
   9   3 -13   91.31    8.47
  -9  -3  13   75.74   11.42
   9   3 -12  105.59    7.86
  -9  -3  12  104.81    7.79
   9   3 -11   27.28    3.54
  -9  -3  11   25.55    3.49
   9   3 -10   72.46    4.69
  -9  -3  10   63.99    4.63
   9   3  -9  294.97   11.12
  -9  -3   9  313.69   12.13
   9   3  -8  126.72    7.74
  -9  -3   8  121.09    7.73
   9   3  -7  689.75   20.24
  -9  -3   7  676.33   20.33
   9   3  -6   31.00    3.62
  -9  -3   6   35.00    4.34
   9   3  -5    7.45    1.83
  -9  -3   5    8.97    2.49
   9   3  -4    5.88    1.44
  -9  -3   4    4.82    1.16
   9   3  -3  235.94    8.65
  -9  -3   3  232.78    8.75
   9   3  -2  407.44   11.55
  -9  -3   2  409.05   13.81
   9   3  -1  103.60    5.23
  -9  -3   1  110.72    5.74
   9   3   0    5.27    1.41
  -9  -3   0    8.56    1.63
   9   3   1   46.97    4.57
  -9  -3  -1   50.78    5.09
   9   3   2    4.80    1.31
  -9  -3  -2    5.69    1.40
   9   3   3   49.53    6.79
  -9  -3  -3   34.72    2.73
   9   3   4    2.01    1.39
   9   3   5   69.21    7.44
   9   3   6  106.59   13.50
   9   3   7   88.53   11.91
   9   3   8   85.30   11.46
   9   3   9  120.17   17.71
   9   3  10   16.58    4.86
   9   4 -14   17.73    3.52
  -9  -4  14   25.04    5.38
   9   4 -13   49.70    5.59
  -9  -4  13   50.64    6.14
   9   4 -12   53.22    5.85
  -9  -4  12   57.08    6.39
   9   4 -11   42.92    4.04
  -9  -4  11   47.29    4.77
   9   4 -10   70.67    6.92
  -9  -4  10   58.96    5.15
   9   4  -9  322.41    9.22
  -9  -4   9  319.77    9.54
   9   4  -8  316.62   11.99
  -9  -4   8  316.77   12.36
   9   4  -7  132.97    8.01
  -9  -4   7  142.35   16.88
   9   4  -6  103.28    5.03
  -9  -4   6  111.71    7.90
   9   4  -5  173.35    6.58
  -9  -4   5  179.49    7.58
   9   4  -4   99.30    4.97
  -9  -4   4  106.56    5.58
   9   4  -3  105.21   16.66
  -9  -4   3  110.22    9.00
   9   4  -2  338.52    9.79
  -9  -4   2  331.00    9.77
   9   4  -1  216.65    8.29
  -9  -4   1  211.18    8.57
   9   4   0   79.77    7.81
  -9  -4   0   75.60    4.15
   9   4   1  126.75   12.67
  -9  -4  -1  121.57    5.44
   9   4   2   29.83    3.99
  -9  -4  -2   22.97    3.43
   9   4   3    7.59    1.60
  -9  -4  -3    6.73    1.09
   9   4   4  133.65    9.56
   9   4   5   25.56    4.50
   9   4   6   72.56   14.68
   9   4   7  119.64    9.16
   9   4   8  107.89   13.08
   9   4   9   39.29    8.03
   9   5 -13   33.60    5.36
   9   5 -12   43.87    5.86
   9   5 -11   49.46    7.36
  -9  -5  11   72.48    6.85
   9   5 -10  103.32    7.33
  -9  -5  10   99.92    7.47
   9   5  -9   82.14    6.21
  -9  -5   9   82.96   10.59
   9   5  -8   66.89    4.01
  -9  -5   8   75.64    4.79
   9   5  -7  113.16    7.36
  -9  -5   7  124.10    6.30
   9   5  -6  276.27   10.33
  -9  -5   6  295.17   15.78
   9   5  -5  116.60    7.15
  -9  -5   5  108.14    7.11
   9   5  -4  133.34    8.16
  -9  -5   4  113.98    7.19
   9   5  -3  131.78    7.89
  -9  -5   3  116.60    7.85
   9   5  -2  506.56   21.84
  -9  -5   2  519.06   23.24
   9   5  -1  136.70    8.18
  -9  -5   1  137.52    8.28
   9   5   0  121.04   12.56
  -9  -5   0  103.07    7.52
   9   5   1  230.63   11.46
  -9  -5  -1  232.03   10.14
   9   5   2  254.66   16.08
  -9  -5  -2  236.17    9.10
   9   5   3   32.28    5.21
  -9  -5  -3   26.82    2.65
   9   5   4  212.05   17.64
   9   5   5   52.25    8.60
   9   5   6   39.85    6.37
   9   5   7   58.17    8.52
   9   5   8   78.61   23.46
   9   6 -13   47.46    6.75
  -9  -6  13   44.07    6.90
   9   6 -12   38.43    3.91
   9   6 -11   26.94    4.21
  -9  -6  11   38.27    4.58
   9   6 -10   10.43    2.91
  -9  -6  10   15.83    3.25
   9   6  -9   71.67   13.68
  -9  -6   9   67.31    6.28
   9   6  -8   63.88    4.97
  -9  -6   8   52.54    7.21
   9   6  -7   65.88    3.81
  -9  -6   7   91.68    5.46
   9   6  -6   64.02    3.76
  -9  -6   6   56.17    5.61
   9   6  -5  104.29    6.93
  -9  -6   5   96.63    6.63
   9   6  -4  245.38    9.41
  -9  -6   4  239.30    9.96
   9   6  -3   41.68    2.56
  -9  -6   3   35.43    2.33
   9   6  -2  157.19    7.03
  -9  -6   2  151.72    6.94
   9   6  -1  162.52    8.48
  -9  -6   1  164.85    7.37
   9   6   0   90.38   10.12
  -9  -6   0   81.98    5.79
   9   6   1  202.50   12.82
  -9  -6  -1  204.14   12.36
   9   6   2  164.74    9.09
  -9  -6  -2  148.10    4.38
   9   6   3   27.32    4.36
   9   6   4   65.94    8.09
   9   6   5  166.26   11.78
   9   6   6   15.98    2.96
   9   6   7   47.90    8.54
   9   7 -12    5.12    2.02
  -9  -7  12    6.01    2.42
   9   7 -11   30.96    5.60
  -9  -7  11   38.98    4.54
   9   7 -10   18.41    2.84
  -9  -7  10   19.45    3.83
   9   7  -9   33.97    4.34
  -9  -7   9   31.75    4.69
   9   7  -8  160.24    7.08
  -9  -7   8  131.21    6.71
   9   7  -7  129.94    6.08
  -9  -7   7  123.64    6.59
   9   7  -6  169.39    5.79
  -9  -7   6  173.08    6.91
   9   7  -5   72.05    5.27
  -9  -7   5   77.36    6.13
   9   7  -4   25.94    3.32
  -9  -7   4   21.36    2.97
   9   7  -3   67.87    5.18
  -9  -7   3   76.93    4.68
   9   7  -2   50.26    6.68
  -9  -7   2   54.89    4.83
   9   7  -1  162.28   12.79
  -9  -7   1  155.14    5.63
   9   7   0   53.37    7.50
  -9  -7   0   62.40    5.91
   9   7   1   67.61    6.41
  -9  -7  -1   63.79    4.68
   9   7   2   44.82    4.76
  -9  -7  -2   39.22    4.06
   9   7   3   53.26    8.56
   9   7   4   35.20    4.46
   9   7   5   58.56    7.37
   9   7   6   28.45    5.59
   9   8 -10   33.68    4.90
  -9  -8  10   35.97    5.47
  -9  -8   9   10.35    4.03
  -9  -8   8  214.18   18.12
  -9  -8   7  206.48    9.28
   9   8  -6   73.75    6.13
  -9  -8   6   78.81    7.00
   9   8  -5   24.00    3.13
  -9  -8   5   27.83    3.92
   9   8  -4   45.60    4.25
  -9  -8   4   43.18    4.27
   9   8  -3  115.04   10.04
  -9  -8   3  128.08    6.23
   9   8  -2   75.13    8.35
  -9  -8   2   86.92    6.50
   9   8  -1   44.88    5.15
  -9  -8   1   57.90    5.12
   9   8   0   48.67    6.84
  -9  -8   0   45.70    4.83
   9   8   1   95.46    9.20
  -9  -8  -1  100.90    5.00
   9   8   2  172.96   17.40
   9   8   3   42.46    7.51
   9   8   4   33.72    5.37
   9   8   5   23.96    5.36
  -9  -9   8   30.53    5.44
   9   9  -7   22.05    3.80
   9   9  -6    7.99    2.19
  -9  -9   6   11.99    3.15
   9   9  -5   20.93    4.21
  -9  -9   5   38.08    4.35
   9   9  -4   69.69    6.45
  -9  -9   4   69.06    6.67
   9   9  -3   35.17    4.19
  -9  -9   3   40.41    5.29
   9   9  -2   37.51    5.67
  -9  -9   2   38.50    4.37
   9   9  -1   29.60    5.59
  -9  -9   1   27.02    4.44
   9   9   0   81.55    8.93
  -9  -9   0   72.17    6.85
   9   9   1   78.05   11.37
  -9  -9  -1   71.71    8.74
   9   9   2   63.06    9.56
   9   9   3   65.29   13.37
  -9 -10   5   32.44    5.55
  -9 -10   4    8.69    2.90
  -9 -10   3   40.02    6.04
  -9 -10   2   27.51    4.43
  -9 -10   1   80.95    6.23
  10 -10  -4   32.36    5.10
 -10  10   4   26.52    5.73
  10 -10  -3   44.70    6.73
 -10  10   3   42.17    8.58
  10 -10  -2    6.32    2.24
 -10  10   2    3.89    1.78
  10 -10  -1    2.49    2.08
 -10  10   1    3.43    1.65
  10 -10   0   42.71    6.29
 -10  10   0   25.71    6.47
  10 -10   1    5.80    2.44
 -10  10  -1    8.47    2.46
  10  -9  -7   23.22    4.47
  10  -9  -7   19.97    3.59
 -10   9   7   22.57    4.72
  10  -9  -6   14.22    3.17
  10  -9  -6   19.30    5.34
 -10   9   6   19.23    5.53
  10  -9  -5   46.79    4.67
  10  -9  -5   38.77    3.55
 -10   9   5   34.79    6.95
  10  -9  -4   29.30    5.07
  10  -9  -4   33.17    3.52
 -10   9   4   29.26    6.11
  10  -9  -3    8.04    2.70
  10  -9  -3    4.89    1.54
 -10   9   3   11.11    3.26
  10  -9  -2    7.51    3.19
  10  -9  -2    2.98    1.33
  10  -9  -1   36.21    4.37
 -10   9   1   27.86    5.16
  10  -9   0   87.33    8.22
 -10   9   0   61.04    7.69
  10  -9   1   31.28    5.45
 -10   9  -1   26.18    6.82
  10  -9   2   15.64    3.93
 -10   9  -2   15.22    4.73
  10  -9   3   25.82    4.71
 -10   9  -3   18.82    4.50
  10  -9   4   15.87    3.71
 -10   9  -4    9.18    2.70
  10  -8  -9   12.70    3.24
  10  -8  -9   13.12    2.52
  10  -8  -8   10.41    3.46
  10  -8  -8    5.92    1.87
 -10   8   8   16.04    3.86
  10  -8  -7   33.30    3.86
  10  -8  -7   42.96    4.93
 -10   8   7   48.36    5.87
  10  -8  -6   70.50    6.86
  10  -8  -6   64.83    6.04
 -10   8   6   67.27    6.71
  10  -8  -5    1.74    1.68
  10  -8  -5    3.70    1.17
 -10   8   5    2.88    1.55
  10  -8  -4    9.49    3.02
  10  -8  -4   11.00    2.54
 -10   8   4    6.30    1.90
  10  -8  -3   12.36    3.15
 -10   8   3    9.47    2.60
  10  -8  -2   22.61    3.57
  10  -8  -2   20.51    2.88
 -10   8   2   21.88    4.56
  10  -8  -1   37.58    4.36
  10  -8  -1   34.95    3.88
 -10   8   1   30.00    5.07
  10  -8   0    9.13    2.56
  10  -8   0   10.71    3.00
 -10   8   0   14.75    2.95
  10  -8   1   13.12    3.35
  10  -8   1    8.67    2.35
 -10   8  -1   13.19    2.87
  10  -8   2   26.42    3.83
  10  -8   2   21.55    4.34
 -10   8  -2   20.41    4.27
  10  -8   3   27.69    4.82
  10  -8   3   18.24    3.95
 -10   8  -3   21.63    4.67
  10  -8   4   11.36    2.85
  10  -8   4   11.26    3.19
 -10   8  -4   12.30    2.64
  10  -8   5    2.55    1.91
  10  -8   5    1.52    1.12
 -10   8  -5    1.32    1.07
  10  -8   6   17.84    3.62
  10  -8   6   14.05    2.98
  10  -7 -10   19.94    4.00
  10  -7 -10   17.95    3.38
 -10   7  10   18.59    3.58
  10  -7  -9   57.65    7.05
  10  -7  -9   57.10    6.81
 -10   7   9   69.46    8.45
  10  -7  -8   70.52    6.95
  10  -7  -8   72.08    6.82
 -10   7   8   73.48    7.24
  10  -7  -7   61.47    6.88
  10  -7  -7   70.40    6.18
 -10   7   7   57.43    6.50
  10  -7  -6   56.74    5.16
  10  -7  -6   67.07    5.65
 -10   7   6   64.13    5.78
  10  -7  -5   15.52    2.36
  10  -7  -5   26.05    3.63
 -10   7   5   26.78    3.74
  10  -7  -4   44.82    4.32
  10  -7  -4   50.58    4.43
 -10   7   4   55.54    5.06
  10  -7  -3   11.08    2.38
  10  -7  -3    9.70    1.99
 -10   7   3    9.58    2.10
  10  -7  -2   34.78    4.34
  10  -7  -2   33.94    4.02
 -10   7   2   35.81    4.29
  10  -7  -1    1.66    2.10
  10  -7  -1    1.97    1.19
 -10   7   1    1.94    1.21
  10  -7   0   52.48    4.98
  10  -7   0   49.99    4.31
 -10   7   0   45.64    7.36
  10  -7   1   22.33    3.26
  10  -7   1   16.24    3.69
 -10   7  -1   17.47    4.06
  10  -7   2   28.30    3.73
  10  -7   2   21.79    3.32
 -10   7  -2   24.42    5.51
  10  -7   3    2.26    1.81
  10  -7   3    3.27    1.06
 -10   7  -3    4.44    1.30
  10  -7   4   10.33    3.04
  10  -7   4    6.11    1.68
 -10   7  -4    4.90    1.49
  10  -7   5    1.97    1.08
 -10   7  -5    0.85    0.96
  10  -7   6    8.80    2.76
  10  -7   7   24.00    4.66
  10  -7   7   19.46    4.39
  10  -6 -11   18.44    3.81
  10  -6 -11   11.85    2.80
 -10   6  11   12.92    3.03
  10  -6 -10   45.41    5.58
  10  -6 -10   42.77    5.26
 -10   6  10   29.28    4.95
  10  -6  -9   53.09    5.99
  10  -6  -9   39.83    7.53
 -10   6   9   44.11    4.90
  10  -6  -8   51.71    5.09
  10  -6  -8   60.57    5.32
 -10   6   8   48.84    4.63
  10  -6  -7   44.61    4.26
  10  -6  -7   47.66    4.45
 -10   6   7   49.86    5.25
  10  -6  -6   51.78    4.55
  10  -6  -6   64.71    4.84
 -10   6   6   66.12    5.05
  10  -6  -5   21.72    3.39
  10  -6  -5   22.08    2.76
 -10   6   5   17.69    2.65
  10  -6  -4   32.86    4.12
  10  -6  -4   19.22    2.42
 -10   6   4   21.57    2.91
  10  -6  -3    3.14    1.51
  10  -6  -3    0.02    1.27
 -10   6   3    1.40    1.28
  10  -6  -2   19.97    3.13
  10  -6  -2   12.33    1.99
 -10   6   2   14.16    2.00
  10  -6  -1   34.58    4.02
  10  -6  -1   32.30    3.30
 -10   6   1   28.74    3.06
  10  -6   0   30.37    3.45
  10  -6   0   35.50    3.83
 -10   6   0   35.08    3.69
  10  -6   1   42.82    4.15
  10  -6   1   31.49    5.58
 -10   6  -1   41.40    6.19
  10  -6   2    5.88    2.78
  10  -6   2    3.39    1.60
 -10   6  -2    2.12    1.04
  10  -6   3   12.08    2.92
  10  -6   3    2.14    1.40
 -10   6  -3    1.25    0.73
  10  -6   4    4.58    2.08
  10  -6   4    3.62    1.01
 -10   6  -4    2.27    0.76
  10  -6   5   14.71    2.94
  10  -6   5    9.02    2.88
 -10   6  -5    7.31    2.19
  10  -6   6    1.87    1.57
  10  -6   6    1.48    1.08
  10  -6   7   32.36    4.51
  10  -6   7   28.53    5.97
  10  -6   8   10.59    2.41
  10  -6   8    4.98    2.44
  10  -5 -12    6.15    2.45
  10  -5 -12    5.24    1.90
 -10   5  12    7.73    2.27
  10  -5 -11   17.79    2.78
  10  -5 -11   14.33    2.51
 -10   5  11   14.40    3.14
  10  -5 -10   36.02    4.43
  10  -5 -10   41.07    4.64
  10  -5  -9   61.19    5.15
  10  -5  -9   81.08    6.16
 -10   5   9   91.84    7.25
  10  -5  -8    8.87    1.96
  10  -5  -8    6.54    1.62
 -10   5   8   11.70    2.66
  10  -5  -7   11.29    2.17
  10  -5  -7    6.11    1.58
 -10   5   7   13.69    2.62
  10  -5  -6   25.04    3.16
  10  -5  -6   26.20    2.92
 -10   5   6   29.88    3.57
  10  -5  -5   17.00    2.46
  10  -5  -5   18.40    2.42
 -10   5   5   22.97    2.74
  10  -5  -4   11.64    2.32
  10  -5  -4   16.44    2.29
 -10   5   4   24.94    2.63
  10  -5  -3    7.45    1.49
 -10   5   3    8.70    2.07
  10  -5  -2    6.09    2.14
  10  -5  -2    2.18    1.46
 -10   5   2    7.73    1.97
  10  -5  -1  302.57   11.51
  10  -5  -1  307.94   11.41
 -10   5   1  301.50   11.52
  10  -5   0    7.42    2.47
  10  -5   0   11.07    1.99
  10  -5   1   42.28    3.01
  10  -5   1   36.46    5.80
 -10   5  -1   35.54    2.17
  10  -5   2   16.17    2.62
  10  -5   2   20.96    3.71
 -10   5  -2   16.86    3.81
  10  -5   3   17.32    2.35
  10  -5   3   17.68    3.85
 -10   5  -3   20.96    3.01
  10  -5   4   11.96    2.52
  10  -5   4   14.31    2.67
 -10   5  -4   11.11    2.47
  10  -5   5   31.07    3.89
  10  -5   5   28.99    3.69
  10  -5   6   10.50    2.65
  10  -5   6   12.46    3.46
  10  -5   7   43.29    5.15
  10  -5   7   31.12    5.95
  10  -5   8   45.17    6.48
  10  -5   8   35.07    5.52
  10  -4 -13    9.97    2.36
  10  -4 -13    9.29    2.14
 -10   4  13    9.10    2.36
  10  -4 -12   33.76    4.67
  10  -4 -12   33.26    4.49
 -10   4  12   39.82    4.57
  10  -4 -11   19.77    3.07
 -10   4  11   18.61    3.00
  10  -4 -10   47.23    4.33
  10  -4 -10   54.43   10.53
 -10   4  10   57.08    5.22
  10  -4  -9  121.50    7.20
  10  -4  -9  115.61    6.90
 -10   4   9  122.02    7.26
  10  -4  -8    5.02    1.80
  10  -4  -8    5.66    1.59
 -10   4   8    2.23    1.46
  10  -4  -7   41.75    5.36
  10  -4  -7   42.33    3.79
 -10   4   7   27.87    3.39
  10  -4  -6   35.76    2.54
  10  -4  -6   36.55    2.50
 -10   4   6   39.57    3.01
  10  -4  -5   15.23    2.40
  10  -4  -5    9.37    1.60
 -10   4   5   17.37    2.97
  10  -4  -4   34.23    3.06
  10  -4  -4   43.80    3.79
 -10   4   4   50.98    4.50
  10  -4  -3  172.80    7.40
  10  -4  -3  179.20    7.88
 -10   4   3  158.90    7.09
  10  -4  -2   84.08    4.58
  10  -4  -2   83.32    4.80
 -10   4   2   78.70    4.50
  10  -4  -1  228.34   10.10
  10  -4  -1  227.39   10.06
 -10   4   1  236.30   10.43
  10  -4   0  110.47    7.15
  10  -4   0  112.48    7.11
 -10   4   0  106.88   10.92
  10  -4   1   18.85    2.82
  10  -4   1   15.27    2.28
 -10   4  -1   16.67    2.40
  10  -4   2   49.92    4.15
  10  -4   2   49.89    6.64
 -10   4  -2   51.26    3.76
  10  -4   3   24.36    4.09
 -10   4  -3   22.79    4.65
  10  -4   4   70.47    5.50
  10  -4   4   68.19    6.54
 -10   4  -4   48.48    6.25
  10  -4   5  109.56    6.61
  10  -4   5  104.53    7.88
  10  -4   6  108.27    5.20
  10  -4   6   92.43   21.94
  10  -4   7   60.01    5.89
  10  -4   7   60.59    8.98
  10  -4   8   29.92    4.73
  10  -4   9    6.29    2.24
  10  -4   9    2.95    1.55
  10  -3 -13   32.87    7.08
  10  -3 -13   37.22    5.57
 -10   3  13   40.43    5.89
  10  -3 -12    4.47    1.73
  10  -3 -12    3.26    1.69
 -10   3  12    6.29    2.38
  10  -3 -11   10.27    2.51
  10  -3 -11   12.38    3.45
 -10   3  11    6.94    2.28
  10  -3 -10   41.33    4.20
  10  -3 -10   49.50    4.73
 -10   3  10   49.66    4.88
  10  -3  -9  160.77    5.61
  10  -3  -9  173.76    6.32
 -10   3   9  134.11    5.48
  10  -3  -8   45.53    5.80
  10  -3  -8   59.65    5.50
 -10   3   8   52.92    5.36
  10  -3  -7   12.78    2.02
  10  -3  -7   17.04    2.46
 -10   3   7   13.79    2.21
  10  -3  -6   48.85    4.04
  10  -3  -6   46.79    4.05
 -10   3   6   50.22    4.51
  10  -3  -5   28.48    4.04
  10  -3  -5   27.35    4.16
 -10   3   5   25.82    3.78
  10  -3  -4  105.96    5.28
  10  -3  -4  107.47    6.91
 -10   3   4  105.14    6.11
  10  -3  -3  227.45    8.24
  10  -3  -3  212.59    8.05
 -10   3   3  214.69    8.19
  10  -3  -2  120.82    5.66
  10  -3  -2  118.04    5.69
 -10   3   2  112.90    5.67
  10  -3  -1   69.21    4.21
  10  -3  -1   77.17    4.68
 -10   3   1   57.20    3.56
  10  -3   0  214.51    8.83
  10  -3   0  207.46    8.80
 -10   3   0  209.36    8.60
  10  -3   1   30.35    3.05
  10  -3   1   34.38    3.44
 -10   3  -1   41.42    3.44
  10  -3   2   42.07    2.42
  10  -3   2   44.64    4.95
 -10   3  -2   46.54    4.86
  10  -3   3   14.44    2.27
  10  -3   3   12.24    2.66
 -10   3  -3   12.91    2.03
  10  -3   4   90.98    4.92
  10  -3   4   84.14    5.66
 -10   3  -4   76.38    3.88
  10  -3   5  131.86    4.98
  10  -3   5  146.97    9.80
  10  -3   6  155.01    7.16
  10  -3   6  153.65   12.95
  10  -3   7   36.32    4.11
  10  -3   7   42.02    6.15
  10  -3   8    7.86    2.36
  10  -3   8    4.29    1.42
  10  -3   9    1.13    1.53
  10  -3   9    2.71    1.41
  10  -2 -13  112.10   14.40
  10  -2 -13  132.65   12.53
 -10   2  13  117.35   11.35
  10  -2 -12   10.74    2.97
  10  -2 -12   15.36    2.76
 -10   2  12   14.44    2.75
  10  -2 -11    6.39    2.10
  10  -2 -11    6.18    2.36
 -10   2  11    7.25    2.33
  10  -2 -10   31.29    3.86
  10  -2 -10   43.66    4.50
 -10   2  10   44.29    4.39
  10  -2  -9   90.61    4.99
  10  -2  -9  100.89    4.03
 -10   2   9   93.90   11.63
  10  -2  -8   46.75    4.94
  10  -2  -8   52.12    4.22
 -10   2   8   58.26    4.87
  10  -2  -7    7.62    1.64
  10  -2  -7    6.83    2.23
 -10   2   7    5.53    1.60
  10  -2  -6  146.45    8.59
  10  -2  -6  169.86    7.84
 -10   2   6  169.50   15.27
  10  -2  -5  142.15    6.16
  10  -2  -5  136.38    6.50
 -10   2   5  155.07    6.37
  10  -2  -4   45.87    2.97
  10  -2  -4   47.70    3.21
 -10   2   4   51.16    3.78
  10  -2  -3   43.24    5.59
  10  -2  -3   47.06    3.69
 -10   2   3   43.97    5.94
  10  -2  -2   24.59    2.91
  10  -2  -2   29.69    4.04
 -10   2   2   23.19    2.99
  10  -2  -1   82.24    4.26
  10  -2  -1   80.75    4.54
 -10   2   1   73.44    4.02
  10  -2   0  134.56    6.08
  10  -2   0  147.61   18.39
 -10   2   0  128.94    5.87
  10  -2   1  213.77    8.73
  10  -2   1  210.52    9.06
 -10   2  -1  206.23    8.37
  10  -2   2   52.42    4.04
  10  -2   2   81.03    8.03
 -10   2  -2   58.84    4.41
  10  -2   3    6.27    1.76
  10  -2   3    2.54    1.46
 -10   2  -3    4.26    1.33
  10  -2   4   98.70    3.67
  10  -2   4   90.77    8.89
 -10   2  -4   87.27    4.36
  10  -2   5  129.22   12.52
  10  -2   5  128.41    9.54
  10  -2   6   51.66    4.69
  10  -2   6   51.31    8.37
  10  -2   7   25.91    3.51
  10  -2   8    2.58    1.34
  10  -2   8   13.72    2.65
  10  -2   9    5.07    1.77
  10  -2   9   10.64    2.39
  10  -1 -14   32.07    6.59
  10  -1 -14   38.73    6.36
 -10   1  14   32.36    4.99
  10  -1 -13  131.04   16.83
  10  -1 -13  148.15   13.96
 -10   1  13  143.41   13.62
  10  -1 -12  144.75   12.12
  10  -1 -12  134.42    6.42
 -10   1  12  143.08   12.33
  10  -1 -11   16.90    2.24
  10  -1 -11   19.63    3.07
  10  -1 -10    4.92    1.34
  10  -1 -10    6.19    1.87
 -10   1  10   11.61    2.43
  10  -1  -9   36.42    4.66
  10  -1  -9   49.46    4.84
 -10   1   9   51.00    4.62
  10  -1  -8   48.16    3.62
  10  -1  -8   41.46    2.96
 -10   1   8   46.13    3.24
  10  -1  -7  243.35   10.36
  10  -1  -7  244.10   12.76
 -10   1   7  258.16   11.58
  10  -1  -6  184.71    7.49
  10  -1  -6  206.33    8.92
 -10   1   6  191.75    8.38
  10  -1  -5   91.33    4.47
  10  -1  -5   86.57    4.79
 -10   1   5   95.35   12.16
  10  -1  -4   44.42    2.52
  10  -1  -4   49.79    3.39
 -10   1   4   47.88    3.49
  10  -1  -3   97.22   12.09
  10  -1  -3  111.73    5.74
 -10   1   3   97.74    4.95
  10  -1  -2   25.06    2.90
  10  -1  -2   26.83    3.72
 -10   1   2   28.34    3.73
  10  -1  -1   32.71    3.61
  10  -1  -1   38.91    4.76
 -10   1   1   36.43    4.01
  10  -1   0  252.64   30.97
  10  -1   0  267.16    9.14
 -10   1   0  256.63   31.55
  10  -1   1  211.30    7.48
  10  -1   1  215.17    8.25
 -10   1  -1  213.73    7.71
  10  -1   2   91.84    4.46
  10  -1   2   83.68    5.49
 -10   1  -2   82.49    4.12
  10  -1   3   21.61    1.49
  10  -1   3   29.82    4.14
 -10   1  -3   22.77    1.53
  10  -1   4   52.28    4.17
  10  -1   4   59.45    8.63
  10  -1   5  105.02    5.94
  10  -1   5   98.01    8.10
  10  -1   6    6.37    1.25
  10  -1   6    3.87    1.56
  10  -1   7   20.82    3.46
  10  -1   7   18.06    3.89
  10  -1   8   19.24    2.81
  10  -1   8   31.54    6.05
  10  -1   9   18.28    3.30
  10  -1   9   21.98    5.81
  10   0 -14   39.19    8.87
 -10   0  14   62.84    8.88
  10   0 -13   70.35   10.28
  10   0 -13  118.12   11.51
 -10   0  13  102.41   10.14
  10   0 -12   72.00   10.87
  10   0 -12   89.29    9.12
 -10   0  12  107.64    5.74
  10   0 -11    1.51    1.00
  10   0 -11    1.96    1.62
 -10   0  11    5.06    1.76
  10   0 -10    9.52    1.63
  10   0 -10   17.14    3.02
 -10   0  10   16.48    2.69
  10   0  -9   47.57    3.84
  10   0  -9   50.79    4.38
 -10   0   9   50.27    4.69
  10   0  -8   95.85    6.55
 -10   0   8   90.22    6.36
  10   0  -7   45.28    3.51
  10   0  -7   44.09    4.25
 -10   0   7   39.75    3.66
  10   0  -6   93.23    4.48
  10   0  -6   84.38    4.92
 -10   0   6  101.47    7.01
  10   0  -5   46.32    2.55
  10   0  -5   33.10    3.85
 -10   0   5   49.82    3.31
  10   0  -4    7.81    1.54
  10   0  -4    8.66    2.17
 -10   0   4    9.54    2.59
  10   0  -3   11.91    2.27
  10   0  -3   14.09    2.63
 -10   0   3   11.52    2.49
  10   0  -2  152.30   18.72
  10   0  -2  157.61    6.50
 -10   0   2  164.86    6.60
  10   0  -1    8.82    1.66
  10   0  -1   10.69    2.36
 -10   0   1    7.41    1.71
  10   0   0   54.99    2.94
  10   0   0   53.91    3.39
 -10   0   0   57.59    3.25
  10   0   1   60.58    3.06
  10   0   1   61.39    4.11
 -10   0  -1   53.76    3.05
  10   0   2   83.38    4.09
  10   0   2   80.20    7.22
 -10   0  -2   78.00    3.93
  10   0   3   51.76    3.79
  10   0   3   61.12    6.76
 -10   0  -3   56.42    3.98
  10   0   4   33.69    3.29
  10   0   4   41.07    6.77
  10   0   5  119.20    6.65
  10   0   5  121.53   11.88
  10   0   6   20.39    2.81
  10   0   6   26.59    4.53
  10   0   7   23.01    3.64
  10   0   7   30.71    4.13
  10   0   8   24.52    3.80
  10   0   8   23.73    4.96
  10   0   9   12.87    3.93
  10   1 -14   24.68    4.38
 -10  -1  14   30.26    5.05
  10   1 -13   46.08    4.98
 -10  -1  13   35.43    6.10
  10   1 -12   35.15    3.93
 -10  -1  12   41.60    5.26
  10   1 -11   18.01    2.79
 -10  -1  11   19.23    3.31
  10   1 -10  125.02    7.64
 -10  -1  10  130.62    5.86
  10   1  -9   13.11    1.63
  10   1  -9   18.55    2.62
 -10  -1   9   17.53    2.67
  10   1  -8  199.51    7.31
 -10  -1   8  230.26    9.41
  10   1  -7  107.47    6.27
 -10  -1   7  129.72    8.32
  10   1  -6   32.53    2.60
 -10  -1   6   34.51    3.36
  10   1  -5   21.42    2.34
 -10  -1   5   25.88    3.45
  10   1  -4    5.01    1.79
 -10  -1   4    7.30    2.39
  10   1  -3  104.11    5.11
 -10  -1   3   95.69   12.07
  10   1  -2  285.55    9.32
 -10  -1   2  271.76    8.92
  10   1  -1   27.46    3.72
 -10  -1   1   22.47    2.89
  10   1   0   10.03    3.26
 -10  -1   0    5.54    1.34
  10   1   1   47.66    5.38
 -10  -1  -1   50.96    4.00
  10   1   2   22.78    3.76
 -10  -1  -2   21.42    5.13
  10   1   3   38.00    3.73
 -10  -1  -3   35.16    1.72
  10   1   4   85.19   10.60
  10   1   5   76.69    9.39
  10   1   6   91.68   12.35
  10   1   7   23.15    4.52
  10   1   8   39.51    5.88
  10   1   9   47.90    9.01
  10   2 -13   36.46    4.83
  10   2 -12   45.44    5.24
  10   2 -11   12.28    2.91
 -10  -2  11   16.17    3.04
  10   2 -10  171.94    7.75
 -10  -2  10  159.40    7.58
  10   2  -9  293.85    8.67
 -10  -2   9  301.75    9.11
  10   2  -8  221.93    6.97
 -10  -2   8  207.40    6.73
  10   2  -7  395.16   14.55
 -10  -2   7  384.49   18.18
  10   2  -6    7.26    2.43
 -10  -2   6   11.20    2.42
  10   2  -5    6.34    2.33
 -10  -2   5    3.29    1.68
  10   2  -4  223.82   10.08
 -10  -2   4  222.46   22.20
  10   2  -3  360.65   11.27
 -10  -2   3  356.06   11.71
  10   2  -2  128.11    5.96
 -10  -2   2  112.18    5.35
  10   2  -1   85.05    4.49
 -10  -2   1   79.07    4.20
  10   2   0   27.14    3.83
 -10  -2   0   25.33    3.53
  10   2   1  112.62    9.26
 -10  -2  -1  114.84    9.45
  10   2   2   37.90    3.31
 -10  -2  -2   34.54    2.01
 -10  -2  -3   21.22    2.13
  10   2   7   79.52   10.28
  10   2   8  111.28   13.97
  10   3 -13   33.78    6.44
 -10  -3  13   40.03    6.11
  10   3 -12   26.22    5.03
  10   3 -11   26.37    5.30
 -10  -3  11   27.12    5.99
  10   3 -10  173.48    7.96
  10   3  -9  436.16   40.67
 -10  -3   9  433.63   13.49
  10   3  -8    2.85    1.65
 -10  -3   8    3.14    1.52
  10   3  -7   79.65    4.75
 -10  -3   7   79.16    5.58
  10   3  -6  235.60    9.18
 -10  -3   6  245.63    9.90
  10   3  -5  245.99    9.72
 -10  -3   5  238.96   14.08
  10   3  -4  163.50    7.21
 -10  -3   4  164.18    7.46
  10   3  -3  210.48    9.12
 -10  -3   3  200.20    8.49
  10   3  -2  166.07    7.34
 -10  -3   2  177.12   11.69
  10   3  -1  155.95    6.87
 -10  -3   1  134.02    8.86
  10   3   0  176.14   17.24
 -10  -3   0  164.00    8.73
  10   3   1  153.19    9.75
 -10  -3  -1  144.90    6.33
  10   3   2   24.89    3.65
 -10  -3  -2   22.59    2.39
  10   3   3   62.60    7.13
  10   3   4   32.20    5.13
  10   3   5   11.11    2.55
  10   3   6   57.22   10.27
  10   3   7  140.70   15.39
  10   3   8   41.03    6.43
  10   4 -13   23.93    5.16
 -10  -4  13   18.03    3.97
  10   4 -12   97.04   13.06
 -10  -4  12  100.80   12.25
  10   4 -11  179.29   15.20
 -10  -4  11  139.24   12.10
  10   4 -10   51.97    5.96
 -10  -4  10   33.82    4.58
  10   4  -9   14.75    2.23
 -10  -4   9   23.98    3.87
  10   4  -8   51.58    4.50
 -10  -4   8   48.01    4.39
  10   4  -7  131.05    4.86
 -10  -4   7  117.25    4.86
  10   4  -6  326.19    9.17
 -10  -4   6  329.15    9.69
  10   4  -5   56.20    4.37
 -10  -4   5   59.52    6.26
  10   4  -4   64.78    4.83
 -10  -4   4   64.10    5.05
  10   4  -3  170.97    7.43
 -10  -4   3  181.09    7.45
  10   4  -2  180.34    7.39
 -10  -4   2  193.85    8.14
  10   4  -1  111.51    7.28
 -10  -4   1   99.08    6.47
  10   4   0   68.42    8.99
 -10  -4   0   76.83    7.80
  10   4   1  120.20   11.29
 -10  -4  -1  113.75   10.54
  10   4   2   56.64    5.62
 -10  -4  -2   40.00    4.87
  10   4   3   27.53    3.88
  10   4   5   39.96    5.40
  10   4   6   48.72    7.80
  10   4   7   41.50    5.81
  10   5 -12   88.55    6.69
 -10  -5  12   88.26    7.06
  10   5 -11   30.13    4.24
 -10  -5  11   29.78    4.50
  10   5 -10   17.12    2.86
 -10  -5  10   19.59    3.42
  10   5  -9   84.80    7.13
 -10  -5   9   86.67    9.31
  10   5  -8  190.41    8.34
 -10  -5   8  206.49    9.47
  10   5  -7   86.31    5.22
  10   5  -6   26.76    3.24
 -10  -5   6   41.89    5.86
  10   5  -5   36.52    3.89
 -10  -5   5   38.78    4.52
  10   5  -4   84.21    4.94
 -10  -5   4   82.05    5.46
  10   5  -3   64.31    4.28
 -10  -5   3   63.43    3.93
  10   5  -2   91.25    5.88
 -10  -5   2   88.45    4.88
  10   5  -1   27.43    3.78
 -10  -5   1   31.78    3.49
  10   5   0   41.54    6.65
 -10  -5   0   44.45    3.79
  10   5   1  102.55    8.50
 -10  -5  -1   74.40    7.07
  10   5   2   79.97   10.01
 -10  -5  -2   60.82    7.92
  10   5   3   15.80    3.08
  10   5   4  194.37   10.00
  10   5   5   32.53    4.45
  10   5   6    6.19    2.37
  10   6 -11    9.18    2.27
 -10  -6  11   13.29    3.23
  10   6 -10   19.16    3.66
 -10  -6  10   25.43    5.09
  10   6  -9   96.87    8.46
 -10  -6   9  103.50    9.24
  10   6  -8   67.52    5.79
 -10  -6   8   60.12    9.04
  10   6  -7   77.90    6.55
 -10  -6   7   87.83    7.64
  10   6  -6   50.69    4.50
 -10  -6   6   53.76   10.61
  10   6  -5   35.64    3.95
 -10  -6   5   33.08    4.02
  10   6  -4   55.97    4.67
 -10  -6   4   60.72    5.10
  10   6  -3   32.41    3.86
 -10  -6   3   28.95    3.75
  10   6  -2   47.23    4.22
 -10  -6   2   44.93    4.11
  10   6  -1   78.61    7.93
 -10  -6   1   85.30    9.24
  10   6   0   70.60    8.24
 -10  -6   0   62.95    5.54
  10   6   1   78.05   10.17
 -10  -6  -1   83.85    6.24
  10   6   2  113.16   10.02
  10   6   3   27.32    5.23
  10   6   4    7.23    2.44
  10   6   5   60.55   10.44
  10   7 -10    5.26    2.05
 -10  -7  10    3.17    1.80
  10   7  -9    3.61    1.43
 -10  -7   9    1.55    1.76
  10   7  -8   98.83    9.53
 -10  -7   8   85.50    8.53
  10   7  -7   32.32    3.58
 -10  -7   7   37.33    5.10
  10   7  -6   27.67    3.67
 -10  -7   6   25.56    5.26
  10   7  -5   26.02    3.32
 -10  -7   5   38.44    4.97
  10   7  -4   67.22    7.99
 -10  -7   4   63.54    7.77
  10   7  -3   98.30    4.74
 -10  -7   3  111.88    7.81
  10   7  -2   17.05    3.60
 -10  -7   2   19.29    4.40
 -10  -7   1   65.77    6.96
  10   7   0   84.99    9.92
 -10  -7   0   72.19    7.60
  10   7   1  152.31   16.00
 -10  -7  -1  131.63   12.16
  10   7   2   97.46   11.98
  10   7   3   68.57   11.59
  10   7   4   27.74    5.25
  10   8  -8   16.52    3.20
 -10  -8   8   17.09    3.74
  10   8  -7    9.38    2.16
 -10  -8   7    5.88    2.03
  10   8  -6   27.97    4.78
 -10  -8   6   32.38    4.37
  10   8  -5   68.96    8.08
 -10  -8   5   65.98    8.25
  10   8  -4   52.46    5.79
 -10  -8   4   50.41    5.69
  10   8  -3   39.46    8.36
 -10  -8   3   55.86   10.73
  10   8  -2   41.79    6.72
 -10  -8   2   58.24    6.74
  10   8  -1   57.05    7.26
 -10  -8   1   62.14    7.43
  10   8   0   94.29   11.81
 -10  -8   0  101.04    9.62
  10   8   1   75.29   11.98
  10   8   2  143.27   15.13
 -10  -9   5   33.94    5.45
  10   9  -4   11.49    2.67
 -10  -9   4   13.16    2.96
  10   9  -3   25.26    4.77
 -10  -9   3   23.02    4.48
  10   9  -2  108.21   12.38
 -10  -9   2  122.71    9.48
  11  -9  -3   28.26    4.95
 -11   9   3   23.21    5.43
  11  -9  -2   19.93    4.14
 -11   9   2   18.17    5.13
  11  -9  -1    3.09    2.40
 -11   9   1    8.52    2.30
  11  -8  -7    3.70    2.58
  11  -8  -7    5.60    2.28
 -11   8   7    2.75    1.93
  11  -8  -6   14.36    3.12
  11  -8  -6   23.24    4.23
 -11   8   6   18.54    3.90
  11  -8  -5    6.69    2.48
  11  -8  -5    7.97    2.14
 -11   8   5    5.21    1.67
  11  -8  -4   47.55    5.04
  11  -8  -4   37.16    4.67
 -11   8   4   41.64    4.18
  11  -8  -3   16.72    3.62
  11  -8  -3   11.10    2.18
 -11   8   3   14.34    3.07
  11  -8  -2    6.60    1.98
  11  -8  -2    4.89    1.47
 -11   8   2    6.96    1.87
  11  -8  -1    6.65    1.82
  11  -8  -1    3.95    1.16
 -11   8   1    3.88    1.28
  11  -8   0    4.99    1.97
  11  -8   0    6.43    1.73
 -11   8   0    7.79    1.92
  11  -8   1   19.71    4.07
  11  -8   1   15.85    3.80
 -11   8  -1   14.23    3.56
  11  -8   2   25.04    4.58
  11  -8   2   10.13    3.27
 -11   8  -2   17.19    4.77
  11  -8   3   15.83    3.36
  11  -8   3   13.36    3.50
 -11   8  -3   12.05    2.93
  11  -7  -8    0.98    1.66
  11  -7  -8    6.20    2.28
 -11   7   8    5.56    2.30
  11  -7  -7    5.85    1.82
  11  -7  -7    4.03    1.40
 -11   7   7    2.62    1.56
  11  -7  -6   85.40    8.15
  11  -7  -6   74.03    6.88
 -11   7   6   98.86    9.18
  11  -7  -5   57.14   11.09
  11  -7  -5   49.26    5.54
 -11   7   5   53.97    6.13
  11  -7  -4   17.13    2.87
  11  -7  -4   14.67    2.23
 -11   7   4   24.10    4.00
  11  -7  -3    8.65    2.63
  11  -7  -3    4.28    1.31
 -11   7   3    5.84    1.84
  11  -7  -2   12.76    3.19
  11  -7  -2   16.77    2.82
 -11   7   2   18.73    3.46
  11  -7  -1    7.03    2.01
  11  -7  -1   10.60    2.44
 -11   7   1   14.02    2.99
  11  -7   0   39.77    5.18
  11  -7   0   24.38    6.71
 -11   7   0   27.20    6.46
  11  -7   1   13.86    2.58
  11  -7   1   14.29    2.49
 -11   7  -1    9.50    2.90
  11  -7   2    6.48    2.04
 -11   7  -2   13.90    2.85
  11  -7   3    7.30    2.41
  11  -7   3    4.98    2.56
 -11   7  -3    4.78    1.59
  11  -7   4    2.59    1.77
  11  -7   4    2.22    1.50
  11  -6 -10   10.45    2.33
 -11   6  10   17.40    3.62
  11  -6  -9    9.83    2.83
  11  -6  -9    7.53    2.22
 -11   6   9    2.74    1.67
  11  -6  -8   15.43    3.39
  11  -6  -8   10.43    3.19
 -11   6   8   19.24    5.57
  11  -6  -7   30.85    5.05
  11  -6  -7   44.37    5.06
 -11   6   7   37.83    4.10
  11  -6  -6   56.39    6.29
 -11   6   6   78.08    6.97
  11  -6  -5   33.73    4.44
  11  -6  -5   32.69    4.28
 -11   6   5   32.19    4.48
  11  -6  -4   15.38    2.36
  11  -6  -4   33.14    4.31
 -11   6   4   19.92    3.01
  11  -6  -3   38.30    4.31
  11  -6  -3   45.82    4.57
 -11   6   3   47.05    4.69
  11  -6  -2   35.30    4.62
  11  -6  -2   28.20    3.25
 -11   6   2   31.26    3.73
  11  -6  -1   45.22    4.31
  11  -6  -1   45.32    8.37
 -11   6   1   46.13    4.34
  11  -6   0   11.36    3.40
  11  -6   0    5.31    2.04
 -11   6   0    7.57    2.08
  11  -6   1   23.06    4.11
  11  -6   1   25.32    4.28
 -11   6  -1   23.74    5.62
  11  -6   2   16.26    3.38
 -11   6  -2   17.20    4.32
  11  -6   3   13.21    2.65
  11  -6   3   12.57    2.16
 -11   6  -3    9.90    3.18
  11  -6   4    3.64    2.00
  11  -6   4    5.65    2.74
  11  -6   5   21.98    4.24
  11  -6   5    9.38    3.70
  11  -5 -10   24.70    4.48
  11  -5 -10   36.41    5.57
 -11   5  10   26.34    4.90
  11  -5  -9   39.32    7.77
  11  -5  -9   44.18    5.27
 -11   5   9   32.30    4.14
  11  -5  -8    3.08    1.39
  11  -5  -8    2.68    1.54
 -11   5   8    7.45    2.35
  11  -5  -7   21.27    3.50
  11  -5  -7   20.98    3.50
 -11   5   7   27.49    4.15
  11  -5  -6   20.38    3.18
  11  -5  -6   17.65    3.70
 -11   5   6   22.28    3.56
  11  -5  -5   18.00    3.00
  11  -5  -5   18.31    2.70
 -11   5   5   16.99    2.42
  11  -5  -4   21.08    3.14
  11  -5  -4   21.73    3.26
 -11   5   4   24.11    3.59
  11  -5  -3   47.99    4.25
  11  -5  -3   52.37    4.75
 -11   5   3   48.81    4.55
  11  -5  -2    4.16    1.79
  11  -5  -2    0.46    1.32
 -11   5   2    1.62    1.24
  11  -5  -1  118.37    7.02
  11  -5  -1  115.30    6.72
 -11   5   1  118.02    6.98
  11  -5   0   12.56    2.29
  11  -5   0   27.88    5.86
 -11   5   0   21.27    2.97
  11  -5   1   17.07    2.61
  11  -5   1   22.28    3.55
 -11   5  -1   23.68    3.32
  11  -5   2   12.56    2.38
  11  -5   2   21.97    3.82
  11  -5   3    9.08    2.32
  11  -5   3    4.27    1.65
 -11   5  -3    9.61    2.38
  11  -5   4   18.33    3.09
  11  -5   4   26.19    5.22
  11  -5   5   83.74    8.27
  11  -5   5   71.16   14.15
  11  -5   6   46.93    6.62
  11  -5   6   48.41    9.48
  11  -4 -11   11.64    2.47
  11  -4 -11   16.56    3.53
  11  -4 -10   27.66    4.95
  11  -4 -10   36.53    4.80
 -11   4  10   42.31    5.00
  11  -4  -9   65.67    6.29
  11  -4  -9   77.97    7.29
 -11   4   9   74.26    7.45
  11  -4  -8    6.83    2.08
  11  -4  -8    6.75    1.89
 -11   4   8   16.19    3.34
  11  -4  -7   41.06    8.05
  11  -4  -7   46.79    4.52
 -11   4   7   34.67    4.19
  11  -4  -6   27.83    3.31
  11  -4  -6   40.89    4.71
 -11   4   6   42.57    5.13
  11  -4  -5   19.40    2.66
  11  -4  -5   24.23    3.10
 -11   4   5   16.72    3.10
  11  -4  -4   11.74    2.23
  11  -4  -4   18.47    3.06
 -11   4   4   12.08    2.12
  11  -4  -3   27.54    3.28
  11  -4  -3   27.85    3.46
 -11   4   3   31.01    3.63
  11  -4  -2    6.90    1.91
  11  -4  -2    5.98    1.36
 -11   4   2    8.01    1.82
  11  -4  -1  105.37    6.56
  11  -4  -1  112.96    6.96
 -11   4   1   99.72    5.92
  11  -4   0  215.35    7.55
  11  -4   0  212.81    7.21
 -11   4   0  193.13    6.51
  11  -4   1    7.82    2.13
  11  -4   1    1.81    1.57
 -11   4  -1    2.76    1.12
  11  -4   2   18.17    2.81
  11  -4   2   14.85    2.45
 -11   4  -2   14.83    2.08
  11  -4   3   12.55    2.11
  11  -4   3   14.82    3.43
 -11   4  -3   12.17    3.36
  11  -4   4   73.18    6.24
  11  -4   4   79.09   10.25
  11  -4   5  109.97    9.61
  11  -4   5  100.62   10.76
  11  -4   6   35.80    4.77
  11  -4   6   29.98    4.88
  11  -4   7    4.36    1.94
  11  -4   7    3.03    1.77
  11  -3 -12    4.91    1.97
  11  -3 -12    6.60    3.10
 -11   3  12    5.30    2.36
  11  -3 -11   14.69    3.01
  11  -3 -11   16.82    3.51
 -11   3  11   16.48    3.99
  11  -3 -10   25.91    4.07
  11  -3 -10   39.63    4.74
 -11   3  10   28.09    5.05
  11  -3  -9   32.64    4.23
  11  -3  -9   35.63    4.16
 -11   3   9   26.00    3.91
  11  -3  -8   44.44    4.20
  11  -3  -8   30.93    6.43
 -11   3   8   33.91    3.98
  11  -3  -7   61.26    4.69
  11  -3  -7   60.58    4.83
 -11   3   7   61.06    4.93
  11  -3  -6  197.16    6.50
 -11   3   6  208.43    7.31
  11  -3  -5   20.41    2.43
  11  -3  -5   19.71    2.83
 -11   3   5   19.30    2.83
  11  -3  -4    9.00    1.65
  11  -3  -4   12.25    1.97
 -11   3   4   17.85    2.60
  11  -3  -3   51.67    4.64
  11  -3  -3   41.68    5.40
 -11   3   3   46.27    4.18
  11  -3  -2   39.42    4.07
  11  -3  -2   43.32    4.08
 -11   3   2   45.56    4.15
  11  -3  -1   19.56    2.45
  11  -3  -1   16.90    2.63
 -11   3   1   22.55    2.64
  11  -3   0  237.60    7.00
  11  -3   0  247.35    7.74
 -11   3   0  239.53    6.97
  11  -3   1   15.76    2.53
  11  -3   1   14.96    3.81
 -11   3  -1   15.47    2.45
  11  -3   2   13.35    2.15
  11  -3   2   27.04    4.09
 -11   3  -2   23.32    2.75
  11  -3   3   29.82    3.34
  11  -3   3   31.28    4.60
 -11   3  -3   33.54    3.50
  11  -3   4   37.66    4.08
  11  -3   4   40.73    5.80
  11  -3   5    9.80    2.52
  11  -3   5   11.52    3.05
  11  -3   6    9.89    2.39
  11  -3   6   12.28    2.98
  11  -3   7   29.39    4.46
  11  -3   7   26.74    5.44
  11  -2 -12    8.40    2.29
  11  -2 -12    9.17    2.17
  11  -2 -11    2.68    1.19
  11  -2 -11    2.65    1.60
 -11   2  11    5.76    2.50
  11  -2 -10    1.77    1.40
  11  -2 -10    2.81    2.18
 -11   2  10    4.14    1.71
  11  -2  -9   12.32    2.73
  11  -2  -9   14.53    2.81
 -11   2   9   13.75    2.92
  11  -2  -8   74.40    5.39
  11  -2  -8   96.54    7.18
 -11   2   8   85.41    6.42
  11  -2  -7   44.64    3.86
  11  -2  -7   46.48    4.53
 -11   2   7   49.60    4.75
  11  -2  -6   59.13    4.71
  11  -2  -6   65.64    4.11
 -11   2   6   49.34    4.40
  11  -2  -5    7.37    1.37
  11  -2  -5    8.20    2.29
 -11   2   5    5.75    1.52
  11  -2  -4   18.12    2.39
  11  -2  -4   17.71    2.68
 -11   2   4   17.71    2.52
  11  -2  -3   39.35    2.29
  11  -2  -3   42.70    3.07
 -11   2   3   46.04    2.94
  11  -2  -2   25.57    1.94
  11  -2  -2   31.36    2.84
 -11   2   2   26.55    2.51
  11  -2  -1   42.31    3.64
  11  -2  -1   32.18    3.43
 -11   2   1   39.35    4.01
  11  -2   0   93.65   11.32
  11  -2   0   96.57    4.16
 -11   2   0   96.15    3.71
  11  -2   1  112.77    3.84
  11  -2   1  100.88    6.25
 -11   2  -1   98.96    3.63
  11  -2   2   41.60    4.54
  11  -2   2   45.28    5.14
 -11   2  -2   46.82    3.94
  11  -2   3   30.36    3.31
  11  -2   3   33.25    5.39
 -11   2  -3   26.86    3.38
  11  -2   4   21.40    2.91
  11  -2   4   26.82    4.39
  11  -2   5   43.67    4.64
  11  -2   5   50.46    6.58
  11  -2   6   17.65    2.77
  11  -2   6   19.15    3.59
  11  -2   7   15.14    3.08
  11  -2   7   14.31    3.46
  11  -1 -12   45.21    5.79
  11  -1 -11    0.94    1.21
  11  -1 -11    4.62    1.85
 -11   1  11    3.96    2.36
  11  -1 -10   24.76    3.26
  11  -1 -10   42.02    4.73
 -11   1  10   31.15    4.23
  11  -1  -9   57.32    4.61
 -11   1   9   69.32    6.36
  11  -1  -8   49.02    3.97
  11  -1  -8   55.72    5.34
 -11   1   8   63.08    5.27
  11  -1  -7   32.74    3.74
  11  -1  -7   28.76    4.01
 -11   1   7   33.01    4.16
  11  -1  -6    3.83    0.98
  11  -1  -6    7.36    2.34
 -11   1   6    1.45    1.32
  11  -1  -5    3.15    1.34
  11  -1  -5    3.57    1.53
 -11   1   5    2.64    1.28
  11  -1  -4   27.90    1.83
  11  -1  -4   33.18    2.97
 -11   1   4   36.53    3.40
  11  -1  -3   92.90    5.91
  11  -1  -3  101.20    6.78
 -11   1   3  107.11    7.17
  11  -1  -2   28.89    1.59
  11  -1  -2   24.94    2.22
 -11   1   2   28.97    1.98
  11  -1  -1    3.66    0.82
  11  -1  -1   11.34    2.09
 -11   1   1    6.14    1.42
  11  -1   0   90.05    4.68
  11  -1   0   81.59    4.66
 -11   1   0   86.44    4.59
  11  -1   1   75.28    3.90
  11  -1   1   70.43    9.16
 -11   1  -1   83.52    4.43
  11  -1   2   18.47    2.74
  11  -1   2   17.28    3.32
 -11   1  -2   15.31    2.31
  11  -1   3   35.08    3.87
  11  -1   3   48.87    5.28
  11  -1   4   37.41    5.46
  11  -1   5   85.42   10.69
  11  -1   6   16.51    3.64
  11   0 -12   33.36    4.62
 -11   0  12   39.05    4.55
  11   0 -11   52.80    6.05
 -11   0  11   52.01    6.03
  11   0 -10  137.32    6.39
 -11   0  10  132.32    6.71
  11   0  -9   91.21    6.74
 -11   0   9   81.01    6.16
  11   0  -8  101.29    6.21
 -11   0   8   99.79    6.26
  11   0  -7   51.07    4.42
 -11   0   7   48.90    4.34
  11   0  -6   10.18    1.82
 -11   0   6    7.74    1.62
  11   0  -5    7.48    1.61
 -11   0   5    9.44    2.06
  11   0  -4  115.61    5.58
 -11   0   4  121.79    5.90
  11   0  -3  112.04    7.50
 -11   0   3  115.74    5.49
  11   0  -2   58.53    4.58
 -11   0   2   51.13    4.06
  11   0  -1   18.59    2.62
 -11   0   1   17.81    2.37
  11   0   0   54.61    4.87
 -11   0   0   61.98    3.58
  11   0   1   19.52    3.99
 -11   0  -1   27.92    3.03
  11   0   2    0.13    1.25
 -11   0  -2    4.50    1.01
  11   0   3   28.68    4.60
  11   0   4   34.26    4.66
  11   0   5   62.34    8.33
  11   0   6   43.71    6.30
  11   0   7   30.63    5.45
  11   1 -12   45.74    6.73
 -11  -1  12   28.68    4.97
  11   1 -11   31.89    6.57
 -11  -1  11   35.74    4.10
  11   1 -10   72.25    6.32
 -11  -1  10   72.78    6.51
  11   1  -9   59.23   10.50
 -11  -1   9   83.50    6.53
 -11  -1   8  143.54    6.96
 -11  -1   7   73.59    5.69
 -11  -1   6   51.88    4.50
  11   1  -5   50.04    4.35
 -11  -1   5   41.94    5.42
  11   1  -4  136.05    4.73
 -11  -1   4  139.88    4.76
  11   1  -3  100.73    3.87
 -11  -1   3  108.83    4.05
  11   1  -2   50.53    4.43
 -11  -1   2   48.53    4.23
  11   1  -1  102.81    3.80
 -11  -1   1  113.40    3.78
  11   1   0   22.47    2.86
 -11  -1   0   22.04    2.47
  11   1   1   38.12    5.84
 -11  -1  -1   29.33    4.66
  11   1   2   15.60    2.83
 -11  -1  -2    8.01    1.41
  11   1   3   34.62    6.64
  11   1   4   31.40    6.48
  11   1   5    8.24    2.41
  11   1   6   83.61    9.82
  11   1   7   87.90   13.71
  11   2 -12   14.45    2.89
 -11  -2  12   21.79    4.27
  11   2 -11   35.59    4.61
 -11  -2  11   39.06    4.41
  11   2 -10   86.41    8.08
 -11  -2  10   85.34    8.17
  11   2  -9   63.81    7.59
 -11  -2   9   70.14    6.68
  11   2  -8   12.13    2.66
 -11  -2   8    6.66    2.20
  11   2  -7  323.32   10.28
  11   2  -6   79.35    5.85
 -11  -2   6   80.58    6.30
  11   2  -5   41.64    5.47
 -11  -2   5   41.40    5.46
  11   2  -4   93.82   11.61
 -11  -2   4   79.40    4.62
  11   2  -3  180.29    5.98
 -11  -2   3  178.12    5.79
  11   2  -2   46.93    4.13
 -11  -2   2   47.62    4.13
  11   2  -1  141.44    4.84
 -11  -2   1  150.76   18.09
  11   2   0   88.38    7.34
 -11  -2   0  109.89    6.23
  11   2   1   65.77    9.41
 -11  -2  -1   61.89    4.58
  11   2   6  106.19   12.30
  11   3 -12   77.99    6.36
 -11  -3  12   67.96    5.71
  11   3 -11   27.09    4.93
 -11  -3  11   44.53    5.07
  11   3 -10    7.69    2.79
 -11  -3  10    6.30    2.58
  11   3  -9  148.49    7.03
 -11  -3   9  145.85   11.30
 -11  -3   8   65.27    7.33
  11   3  -7  205.99    9.01
 -11  -3   7  197.91    9.04
  11   3  -6   79.40    5.84
 -11  -3   6   92.05    5.78
  11   3  -5   10.26    2.09
 -11  -3   5    8.67    1.98
  11   3  -4   79.42    5.90
 -11  -3   4   79.48   11.48
  11   3  -3  185.92    6.59
 -11  -3   3  167.66    6.10
  11   3  -2   90.71    5.49
 -11  -3   2   89.02    5.38
  11   3  -1   88.61    5.40
 -11  -3   1   97.71    7.62
  11   3   0  161.11    9.48
 -11  -3   0  158.04    5.50
  11   3   1   41.12    9.62
 -11  -3  -1   37.83    3.88
  11   3   2   19.69    3.41
  11   3   3   54.83    9.21
  11   3   4  117.20   12.46
  11   3   5   26.59    6.62
  11   3   6   18.24    3.68
  11   4 -11    5.25    2.48
 -11  -4  11    6.06    2.62
  11   4 -10   26.48    4.65
  11   4  -9  249.40   20.68
 -11  -4   9  262.11   48.77
  11   4  -8  212.83    8.95
 -11  -4   8  222.40   12.21
  11   4  -7    3.62    2.06
 -11  -4   7    4.92    2.14
  11   4  -6   67.07    5.67
 -11  -4   6   67.06    7.21
  11   4  -5   17.19    2.59
 -11  -4   5   22.61    3.58
  11   4  -4   97.05    7.01
 -11  -4   4   92.51   11.82
  11   4  -3   84.06    6.42
 -11  -4   3   73.52    5.66
  11   4  -2   67.49    5.87
 -11  -4   2   61.16    5.80
  11   4  -1   36.13    4.02
 -11  -4   1   44.72    4.75
  11   4   0   72.91    9.28
 -11  -4   0   61.67    5.49
  11   4   1   12.22    2.91
 -11  -4  -1   14.24    2.49
  11   4   2   40.78    5.63
  11   4   3   53.15    8.60
  11   4   4   56.49    8.58
  11   4   5    3.28    2.22
  11   5 -10   97.45    7.17
 -11  -5  10   97.40    9.13
  11   5  -9   70.85    8.36
 -11  -5   9   63.77    7.86
  11   5  -8   54.75    6.01
 -11  -5   8   48.20    5.85
  11   5  -7   20.08    3.13
 -11  -5   7   21.18    3.66
  11   5  -6   37.39    4.11
 -11  -5   6   33.65    4.41
  11   5  -5   52.51    5.84
 -11  -5   5   46.13    4.96
  11   5  -4   61.47    6.50
 -11  -5   4   59.24    6.57
  11   5  -3   19.36    3.67
 -11  -5   3   23.92    3.34
  11   5  -2   50.19    5.46
 -11  -5   2   34.69    4.43
  11   5  -1   24.23    5.11
 -11  -5   1   29.88    3.79
  11   5   0   66.89    8.86
 -11  -5   0   64.72    6.70
  11   5   1  105.32   14.78
  11   5   2   70.71    8.43
  11   5   3    3.36    1.54
  11   5   4   14.36    3.46
  11   6  -9   13.38    2.76
 -11  -6   9   23.11    4.48
  11   6  -8   13.03    2.80
 -11  -6   8   11.11    2.66
  11   6  -7   16.89    3.49
 -11  -6   7   22.27    4.42
  11   6  -6   16.30    2.73
 -11  -6   6   21.46    3.97
  11   6  -5   26.51    4.30
 -11  -6   5   28.23    4.65
  11   6  -4   37.02    3.92
 -11  -6   4   40.92    4.88
  11   6  -3   37.71    4.10
 -11  -6   3   37.44    4.64
  11   6  -2   17.62    3.55
 -11  -6   2   10.15    2.73
  11   6  -1  101.65   12.30
 -11  -6   1   94.46   17.72
  11   6   0  119.56   13.66
 -11  -6   0  109.32    9.47
  11   6   1   79.05   22.65
  11   6   2   68.70   10.65
  11   6   3   74.14    7.85
  11   7  -7    4.20    1.63
 -11  -7   7    5.83    2.38
  11   7  -6   15.94    3.18
 -11  -7   6   29.92    6.26
  11   7  -5   14.91    3.13
 -11  -7   5   21.91    4.76
  11   7  -4   27.58    4.89
 -11  -7   4   28.15    5.38
  11   7  -3   91.28    9.38
 -11  -7   3   88.85    8.69
  11   7  -2   39.43    6.62
 -11  -7   2   41.99    4.38
  11   7  -1   65.81    8.90
 -11  -7   1   67.95    7.90
  11   7   0   30.23    5.10
  12  -7  -5    7.45    2.26
  12  -7  -5    1.21    1.47
 -12   7   5   10.68    2.52
  12  -7  -4    1.73    1.66
  12  -7  -4    2.13    1.45
 -12   7   4    1.25    1.45
  12  -7  -3   24.67    4.23
  12  -7  -3   25.27    3.93
 -12   7   3   36.79    5.80
  12  -7  -2   34.80    5.52
  12  -7  -2   47.62    6.63
 -12   7   2   44.37    6.32
  12  -7  -1   37.64    5.63
  12  -7  -1   46.15    6.53
 -12   7   1   23.92    7.37
  12  -7   0   21.03    4.21
  12  -7   0   11.24    3.10
 -12   7   0   11.74    3.49
  12  -6  -7   19.13    3.71
  12  -6  -7   16.97    3.29
 -12   6   7   25.47    4.50
  12  -6  -6   11.97    2.84
  12  -6  -6   19.04    3.71
 -12   6   6   17.55    3.72
  12  -6  -5   23.86    4.41
  12  -6  -5   30.75    4.25
 -12   6   5   27.20    4.99
  12  -6  -4   13.91    3.22
  12  -6  -4   16.25    3.26
 -12   6   4   25.93    4.81
  12  -6  -3   43.23    4.32
  12  -6  -3   40.45    3.75
 -12   6   3   43.75    4.40
  12  -6  -2   21.60    4.43
  12  -6  -2   36.32    4.87
 -12   6   2   31.87    4.42
  12  -6  -1   40.12    4.18
  12  -6  -1   44.30    4.42
 -12   6   1   33.56    4.40
  12  -6   0    3.99    2.01
  12  -6   0    2.01    1.31
 -12   6   0    0.86    1.17
  12  -6   1    2.62    1.41
 -12   6  -1    4.49    1.59
  12  -6   2    7.92    2.21
  12  -6   2    7.53    2.14
 -12   6  -2    5.55    1.92
  12  -5  -8   22.88    4.09
  12  -5  -8   37.46    5.42
 -12   5   8   32.49    5.12
  12  -5  -7   56.33    6.75
  12  -5  -7   61.12    7.46
 -12   5   7   73.44    8.79
  12  -5  -6   40.85    4.01
  12  -5  -6   30.75    4.03
 -12   5   6   33.21    4.63
  12  -5  -5   23.32    3.94
  12  -5  -5   28.26    4.74
 -12   5   5   19.52    2.99
  12  -5  -4    8.92    2.45
  12  -5  -4   11.01    2.62
 -12   5   4   18.32    3.43
  12  -5  -3   22.66    3.92
  12  -5  -3   17.31    2.74
 -12   5   3   21.21    3.75
  12  -5  -2   14.59    2.68
  12  -5  -2   12.90    2.30
 -12   5   2    7.60    2.20
  12  -5  -1   57.05   10.96
  12  -5  -1   56.49   11.47
 -12   5   1   69.79    6.83
  12  -5   0   13.91    2.51
 -12   5   0   20.37    3.02
  12  -5   1    8.02    2.48
  12  -5   1    3.99    1.47
 -12   5  -1    1.17    1.22
  12  -5   2    4.57    1.52
  12  -5   2    8.33    2.72
 -12   5  -2    6.71    2.01
  12  -5   3   27.33    4.45
  12  -5   3   15.93    4.33
  12  -4  -9   34.75    5.20
  12  -4  -9   29.84    4.81
 -12   4   9   38.42    5.64
  12  -4  -8   47.82    4.47
  12  -4  -8   59.35    7.07
 -12   4   8   58.11    7.25
  12  -4  -7   35.16    3.76
  12  -4  -7   35.96    3.89
 -12   4   7   23.93    3.98
  12  -4  -6    6.85    1.85
  12  -4  -6    9.84    2.77
 -12   4   6    8.94    2.72
  12  -4  -5    1.27    1.31
  12  -4  -5    3.79    1.47
 -12   4   5    2.40    1.44
  12  -4  -4   12.75    3.09
  12  -4  -4   10.74    2.94
 -12   4   4   13.68    2.89
  12  -4  -3   28.19    3.79
  12  -4  -3   33.51    4.24
 -12   4   3   30.89    4.17
  12  -4  -2   15.86    2.78
  12  -4  -2   17.32    3.23
 -12   4   2   17.88    3.24
  12  -4  -1   16.94    3.18
  12  -4  -1   26.87    4.33
 -12   4   1   24.58    3.42
  12  -4   0  108.62    9.52
  12  -4   0  105.68    9.37
 -12   4   0  102.18    8.91
  12  -4   1    3.73    1.91
  12  -4   1    2.73    1.25
 -12   4  -1   -0.26    1.07
  12  -4   2   39.03    7.58
  12  -4   2   35.46    5.97
 -12   4  -2   39.28    7.60
  12  -4   3   29.99    3.99
  12  -4   3   27.27    5.88
  12  -4   4    5.01    1.83
  12  -4   4    5.04    2.70
  12  -3 -10   10.61    2.23
  12  -3 -10   19.51    3.80
 -12   3  10   21.74    4.10
  12  -3  -9   15.82    3.34
  12  -3  -9   21.01    5.60
 -12   3   9   30.85    4.60
  12  -3  -8   39.42    4.47
  12  -3  -8   43.25    5.19
 -12   3   8   52.79    6.18
  12  -3  -7    6.81    2.53
 -12   3   7    1.92    1.47
  12  -3  -6    5.60    1.82
 -12   3   6    6.89    2.38
  12  -3  -5    7.74    2.11
  12  -3  -4   14.25    2.54
  12  -3  -4   13.21    2.76
 -12   3   4   18.79    3.54
  12  -3  -3   10.13    2.42
  12  -3  -3   16.01    3.22
 -12   3   3   16.33    3.06
  12  -3  -2    9.24    2.18
  12  -3  -2   10.22    2.80
 -12   3   2   10.99    3.06
  12  -3  -1    3.58    1.77
  12  -3  -1    3.64    1.62
 -12   3   1    7.05    2.12
  12  -3   0  111.62    5.08
  12  -3   0  111.97    5.53
 -12   3   0  130.13    5.90
  12  -3   1   30.90    4.05
  12  -3   1   30.44    6.17
 -12   3  -1   29.42    3.76
  12  -3   2    2.77    1.32
  12  -3   2    8.44    2.59
 -12   3  -2    1.10    1.22
  12  -3   3   12.85    3.15
  12  -3   4   20.30    4.07
  12  -3   5   42.59    7.79
  12  -2 -10   56.91    9.56
 -12   2  10   69.61    5.65
  12  -2  -9   27.57    4.88
 -12   2   9   23.48    4.32
  12  -2  -8   31.37    5.06
 -12   2   8   36.23    4.49
  12  -2  -7    2.10    1.59
 -12   2   7    3.04    1.51
  12  -2  -6    3.82    2.23
 -12   2   6    0.48    1.43
  12  -2  -5   20.72    3.78
 -12   2   5   18.72    3.32
  12  -2  -4   26.61    4.04
 -12   2   4   23.48    3.43
  12  -2  -3   11.34    1.94
 -12   2   3   12.07    1.97
  12  -2  -2    8.92    2.17
 -12   2   2    9.12    1.71
  12  -2  -1   41.00    8.08
 -12   2   1   36.92    4.16
  12  -2   0   11.89    2.97
 -12   2   0   16.19    2.81
  12  -2   1    2.31    1.16
 -12   2  -1    3.62    1.60
  12  -2   2    4.56    1.79
  12  -2   3   72.70    9.20
  12  -2   4   58.56    8.51
  12  -2   5   23.51    5.87
  12  -1 -10   70.57    5.72
 -12   1  10   66.52    5.70
  12  -1  -9   36.40    4.85
 -12   1   9   40.80    4.56
  12  -1  -8   32.96    3.87
 -12   1   8   34.25    3.89
  12  -1  -7   18.49    3.30
  12  -1  -6    5.96    2.49
 -12   1   6    0.86    1.41
  12  -1  -5   50.72    5.07
 -12   1   5   50.48    4.94
  12  -1  -4   90.58    7.20
 -12   1   4   79.61    6.30
  12  -1  -3   87.46    6.66
 -12   1   3  104.97    7.62
  12  -1  -2   66.94    5.68
 -12   1   2   58.89    4.97
  12  -1  -1   23.56    3.32
 -12   1   1   23.13    3.22
  12  -1   0    7.08    2.41
 -12   1   0   10.24    2.52
  12  -1   1    7.38    1.99
 -12   1  -1    4.52    1.50
  12  -1   2   37.43    5.33
  12  -1   3   58.10   13.56
  12  -1   4   16.11    3.96
  12  -1   5   18.83    4.07
  12   0 -10   45.49    4.80
 -12   0  10   48.27    4.98
  12   0  -9   45.99    4.85
 -12   0   9   44.84    4.91
  12   0  -8   77.37    7.33
 -12   0   8   74.07    7.26
  12   0  -7   40.45    4.64
 -12   0   7   36.72    4.23
  12   0  -6   39.57    4.71
 -12   0   6   41.86    4.75
  12   0  -5   68.00    5.82
 -12   0   5   51.84    4.84
  12   0  -4  196.61    8.95
 -12   0   4  198.51    8.93
  12   0  -3  147.81    7.01
 -12   0   3  141.44    6.62
 -12   0   2   75.22    8.74
 -12   0   1   34.73    3.83
  12   0   0   41.72    4.77
 -12   0   0   46.28    4.82
  12   0   1   34.06    5.58
 -12   0  -1   25.20    3.23
  12   0   2   30.53    5.70
  12   0   3   40.15    7.78
  12   0   4    4.89    1.39
  12   0   5   19.54    4.85
  12   1 -10   28.59    4.67
 -12  -1  10   33.64    5.17
  12   1  -9   48.39    4.98
 -12  -1   9   46.63    4.97
 -12  -1   8   90.96    8.69
 -12  -1   7   70.77    6.87
 -12  -1   6   31.73    4.20
  12   1  -5  101.04    5.06
 -12  -1   5  100.37    5.41
  12   1  -4  180.51    8.27
 -12  -1   4  171.32    7.80
  12   1  -3   74.90    5.65
 -12  -1   3   71.21    6.00
  12   1  -2   25.31    3.75
 -12  -1   2   26.80    3.69
  12   1  -1   72.92    6.36
 -12  -1   1   95.94    4.53
  12   1   0   33.74    4.87
 -12  -1   0   29.86    5.37
  12   1   1   33.40    4.74
  12   1   2   41.61    7.11
  12   1   3   43.79    6.17
  12   1   4   32.88    6.07
  12   2 -10   29.27    5.09
 -12  -2  10   34.69    5.44
  12   2  -9   96.74    9.39
 -12  -2   9   90.46    8.93
  12   2  -8    6.74    2.36
 -12  -2   8    5.57    1.87
  12   2  -7   69.33    6.79
 -12  -2   7   90.10    8.52
  12   2  -6   16.78    3.10
 -12  -2   6   16.50    3.25
  12   2  -5   46.86    5.02
 -12  -2   5   52.21    5.74
  12   2  -4   61.58    6.56
 -12  -2   4   62.05    6.72
  12   2  -3   31.72    4.10
 -12  -2   3   31.86    4.12
 -12  -2   2    5.46    1.86
  12   2  -1   56.89    6.42
 -12  -2   1   52.60    5.64
  12   2   0   51.66    6.09
 -12  -2   0   56.95    5.94
  12   2   1   12.35    3.11
  12   3  -9  140.65   10.17
 -12  -3   9  134.28    9.83
  12   3  -8   14.18    3.08
 -12  -3   8   16.28    3.71
  12   3  -7   10.74    2.81
 -12  -3   7    7.34    2.37
  12   3  -6   94.96   17.94
 -12  -3   6   96.58    8.73
  12   3  -5    9.61    2.32
 -12  -3   5   13.39    2.47
  12   3  -4   33.59    3.74
 -12  -3   4   30.95    5.94
  12   3  -3   40.94    4.56
 -12  -3   3   40.61    4.43
  12   3  -2   31.79    5.02
 -12  -3   2   33.76    3.70
  12   3  -1   31.41    5.26
 -12  -3   1   30.29    4.75
  12   3   0   37.19    5.71
 -12  -3   0   38.62    3.97
  12   3   1   22.76    4.50
  12   3   2   61.55   10.28
  12   3   3   11.92    3.14
  12   4  -8   69.05    5.51
 -12  -4   8   82.03    6.42
  12   4  -7    2.03    1.65
 -12  -4   7    4.34    1.99
  12   4  -6  108.78   10.42
 -12  -4   6   99.38    9.89
  12   4  -5   33.79    3.66
 -12  -4   5   34.81    4.89
  12   4  -4   36.60    3.82
 -12  -4   4   36.68    4.10
  12   4  -3   28.07    4.51
 -12  -4   3   34.95    3.92
  12   4  -2   26.14    4.17
 -12  -4   2   26.15    4.36
  12   4  -1   39.83    6.30
 -12  -4   1   32.03    5.77
  12   4   0  153.44   16.52
  12   4   1   98.79   14.30
  12   4   2    9.33    2.42
  12   5  -7   30.14    4.61
 -12  -5   7   24.91    5.45
  12   5  -6   31.41    5.07
 -12  -5   6   18.10    4.03
  12   5  -5   55.28    6.61
 -12  -5   5   50.05   13.39
  12   5  -4   23.25    4.17
 -12  -5   4   21.89    4.09
  12   5  -3   16.68    3.36
 -12  -5   3   15.20    3.25
  12   5  -2   42.70    5.93
 -12  -5   2   48.63    4.47
  12   5  -1  122.77   11.64
 -12  -5   1  105.85    7.62
  12   5   0   79.38    8.33
  13  -4  -5    9.22    2.12
 -13   4   5   15.04    2.92
  13  -4  -4    9.05    2.30
 -13   4   4    2.48    1.56
  13  -4  -3    2.77    1.61
 -13   4   3    4.16    1.81
  13  -4  -2    9.25    2.28
 -13   4   2   11.05    2.58
  13  -4  -1    5.44    2.39
 -13   4   1    2.76    1.62
  13  -4   0   30.62    7.80
 -13   4   0   47.89    6.62
  13  -3  -6   11.62    2.78
 -13   3   6    9.38    2.33
  13  -3  -5   22.01    4.42
 -13   3   5   17.16    3.50
  13  -3  -4    9.21    2.36
 -13   3   4   10.99    2.71
  13  -3  -3    6.49    2.02
 -13   3   3   10.41    3.21
  13  -3  -2   51.74    7.21
 -13   3   2   52.08    6.27
  13  -3  -1    9.25    2.61
 -13   3   1    4.40    1.63
  13  -3   0    6.45    2.88
 -13   3   0    6.11    2.11
  13  -3   1    3.38    1.52
  13  -2  -7    4.17    1.84
 -13   2   7    5.02    2.22
  13  -2  -6    4.69    2.33
 -13   2   6    2.30    1.61
  13  -2  -5   41.13    4.18
 -13   2   5   33.31    4.51
  13  -2  -4   34.84    4.96
 -13   2   4   36.55    4.81
  13  -2  -3   34.57    4.54
 -13   2   3   25.27    4.54
  13  -2  -2   20.85    4.05
 -13   2   2   29.60    3.91
  13  -2  -1   11.46    2.90
 -13   2   1    1.82    1.17
  13  -2   0    2.08    1.48
 -13   2   0    3.96    1.32
  13  -2   1   48.28    8.92
  13  -1  -7   10.30    2.23
 -13   1   7   17.39    3.63
  13  -1  -6    4.87    2.14
 -13   1   6   10.49    3.56
  13  -1  -5  108.51   10.54
 -13   1   5  131.39   12.50
  13  -1  -4   74.45    8.69
 -13   1   4   53.45    6.55
 -13   1   3    3.92    1.32
  13  -1  -2   15.79    3.31
 -13   1   2    5.34    1.64
  13  -1  -1   41.79    4.11
 -13   1   1   46.37    4.21
  13  -1   0   35.34    7.42
 -13   1   0   43.04    4.04
  13  -1   1   31.50    5.12
 -13   0   7   30.80    4.98
  13   0  -6   81.08    8.10
 -13   0   6   75.52    8.95
  13   0  -5   60.46    7.28
 -13   0   5   42.71    4.21
  13   0  -4   35.31    5.07
 -13   0   4   32.79    4.22
  13   0  -3   14.29    3.17
 -13   0   3   18.69    3.60
  13   0  -2   81.74    8.14
 -13   0   2   73.60    8.50
  13   0  -1   89.79    8.82
 -13   0   1   74.94    8.59
  13   0   0   20.78    4.10
 -13   0   0   22.53    4.02
  13   0   1   18.40    3.96
 -13  -1   7   38.30    5.69
 -13  -1   6   27.90    4.42
  13   1  -5   21.39    3.97
 -13  -1   5   26.88    5.04
  13   1  -4   25.95    4.57
 -13  -1   4   36.02    4.73
  13   1  -3   39.87    3.97
 -13  -1   3   34.61    4.69
  13   1  -2   32.76    4.36
 -13  -1   2   38.07    3.76
  13   1  -1   47.42    4.57
 -13  -1   1   46.31    4.19
  13   1   0    8.27    2.58
  13   1   1   22.71    5.48
  13   2  -6   23.64    4.64
 -13  -2   6   11.23    2.82
  13   2  -5   18.72    3.81
 -13  -2   5   21.71    4.25
  13   2  -4   20.02    3.72
 -13  -2   4   10.56    2.40
 -13  -2   3   28.45    4.46
  13   2  -2   11.25    2.50
 -13  -2   2   15.97    2.97
  13   2  -1   28.99    6.88
 -13  -2   1   35.11    3.19
  13   2   0   52.03    9.41
 -13  -3   5    7.56    2.19
  13   3  -4   19.99    3.78
 -13  -3   4   13.20    2.70
  13   3  -3   19.65    3.91
  13   3  -2   36.47    5.28
 -13  -3   2   22.73    4.09

_computing_structure_solution     'SHELXT 2014/4 (Sheldrick, 2014)'
_computing_structure_solution     'SHELXT 2014/4 (Sheldrick, 2014)'
;
_shelx_hkl_checksum              94435
_olex2_submission_special_instructions 'No special instructions were received'
loop_
_space_group_symop_operation_xyz
'x, y, z'
'-x, -y, -z'
loop_
_atom_site_label
_atom_site_type_symbol
_atom_site_fract_x
_atom_site_fract_y
_atom_site_fract_z
_atom_site_U_iso_or_equiv
_atom_site_adp_type
_atom_site_occupancy
_atom_site_site_symmetry_order
_atom_site_calc_flag
_atom_site_refinement_flags_posn
_atom_site_refinement_flags_adp
_atom_site_refinement_flags_occupancy
_atom_site_disorder_assembly
_atom_site_disorder_group
Rh1 Rh 0.5000 0.5000 0.5000 0.02811(12) Uani 1 2 d S T P . .
N29 N 0.3651(2) 0.3865(2) 0.54321(15) 0.0351(4) Uani 1 1 d . . . . .
N30 N 0.3925(2) 0.4901(2) 0.36181(15) 0.0342(4) Uani 1 1 d . . . . .
C1 C 0.3674(3) 0.3478(2) 0.63660(18) 0.0356(5) Uani 1 1 d . . . . .
C2 C 0.2524(3) 0.2687(2) 0.63637(19) 0.0387(6) Uani 1 1 d . . . . .
H2 H 0.2300 0.2313 0.6904 0.046 Uiso 1 1 calc R . . . .
C3 C 0.1836(3) 0.2589(2) 0.54371(19) 0.0381(5) Uani 1 1 d . . . . .
H3 H 0.1061 0.2124 0.5217 0.046 Uiso 1 1 calc R . . . .
C4 C 0.2525(2) 0.3337(2) 0.48502(18) 0.0333(5) Uani 1 1 d . . . . .
C5 C 0.2118(2) 0.3489(2) 0.38473(17) 0.0303(5) Uani 1 1 d . . . . .
C6 C 0.2766(2) 0.4229(2) 0.32885(17) 0.0319(5) Uani 1 1 d . . . . .
C7 C 0.2324(3) 0.4425(2) 0.22601(17) 0.0353(5) Uani 1 1 d . . . . .
H7 H 0.1565 0.4081 0.1863 0.042 Uiso 1 1 calc R . . . .
C8 C 0.3215(3) 0.5200(2) 0.19808(18) 0.0360(5) Uani 1 1 d . . . . .
H8 H 0.3179 0.5492 0.1358 0.043 Uiso 1 1 calc R . . . .
C9 C 0.4222(2) 0.5487(2) 0.28208(17) 0.0338(5) Uani 1 1 d . . . . .
C10 C 0.5349(3) 0.6232(2) 0.28211(18) 0.0342(5) Uani 1 1 d . . . . .
C11 C 0.0913(2) 0.2753(2) 0.33270(17) 0.0282(4) Uani 1 1 d . . . . .
C12 C -0.0308(2) 0.3237(2) 0.32070(18) 0.0339(5) Uani 1 1 d . . . . .
C13 C -0.1403(2) 0.2519(3) 0.2739(2) 0.0414(6) Uani 1 1 d . . . . .
H13 H -0.2217 0.2837 0.2653 0.050 Uiso 1 1 calc R . . . .
C14 C -0.1305(3) 0.1343(3) 0.2398(2) 0.0472(7) Uani 1 1 d . . . . .
C15 C -0.0086(3) 0.0886(3) 0.2517(2) 0.0433(6) Uani 1 1 d . . . . .
H15 H -0.0011 0.0100 0.2283 0.052 Uiso 1 1 calc R . . . .
C16 C 0.1027(2) 0.1572(2) 0.29779(18) 0.0328(5) Uani 1 1 d . . . . .
C17 C -0.0456(3) 0.4522(3) 0.3563(3) 0.0505(7) Uani 1 1 d . . . . .
H17A H 0.0117 0.4714 0.4184 0.076 Uiso 1 1 calc GR . . . .
H17B H -0.1342 0.4609 0.3646 0.076 Uiso 1 1 calc GR . . . .
H17C H -0.0237 0.5057 0.3086 0.076 Uiso 1 1 calc GR . . . .
C18 C -0.2508(4) 0.0553(4) 0.1897(4) 0.0758(12) Uani 1 1 d . . . . .
H18A H -0.3139 0.0522 0.2328 0.114 Uiso 1 1 calc GR . . . .
H18B H -0.2261 -0.0245 0.1755 0.114 Uiso 1 1 calc GR . . . .
H18C H -0.2880 0.0886 0.1292 0.114 Uiso 1 1 calc GR . . . .
C19 C 0.2335(3) 0.1033(3) 0.3096(2) 0.0466(6) Uani 1 1 d . . . . .
H19A H 0.2935 0.1539 0.2818 0.070 Uiso 1 1 calc GR . . . .
H19B H 0.2238 0.0247 0.2759 0.070 Uiso 1 1 calc GR . . . .
H19C H 0.2665 0.0969 0.3785 0.070 Uiso 1 1 calc GR . . . .
C20 C 0.5508(2) 0.6736(2) 0.18466(17) 0.0312(5) Uani 1 1 d . . . . .
C21 C 0.6122(2) 0.6074(2) 0.11927(18) 0.0336(5) Uani 1 1 d . . . . .
C22 C 0.6269(3) 0.6550(3) 0.03022(19) 0.0391(6) Uani 1 1 d . . . . .
H22 H 0.6681 0.6113 -0.0135 0.047 Uiso 1 1 calc R . . . .
C23 C 0.5822(3) 0.7657(2) 0.00469(18) 0.0370(5) Uani 1 1 d . . . . .
C24 C 0.5200(3) 0.8287(2) 0.0700(2) 0.0373(5) Uani 1 1 d . . . . .
H24 H 0.4876 0.9022 0.0533 0.045 Uiso 1 1 calc R . . . .
C25 C 0.5044(3) 0.7849(2) 0.16067(19) 0.0352(5) Uani 1 1 d . . . . .
C26 C 0.6016(4) 0.8142(3) -0.0926(2) 0.0563(8) Uani 1 1 d . . . . .
H26A H 0.5184 0.8176 -0.1345 0.084 Uiso 1 1 calc R . . . .
H26B H 0.6544 0.7622 -0.1243 0.084 Uiso 1 1 calc R . . . .
H26C H 0.6443 0.8935 -0.0807 0.084 Uiso 1 1 calc R . . . .
C27 C 0.4390(4) 0.8582(3) 0.2312(3) 0.0583(9) Uani 1 1 d . . . . .
H27A H 0.3584 0.8165 0.2384 0.087 Uiso 1 1 calc GR . . . .
H27B H 0.4216 0.9350 0.2055 0.087 Uiso 1 1 calc GR . . . .
H27C H 0.4953 0.8698 0.2944 0.087 Uiso 1 1 calc GR . . . .
C28 C 0.6628(3) 0.4866(3) 0.1423(2) 0.0492(7) Uani 1 1 d . . . . .
H28A H 0.7503 0.4976 0.1788 0.074 Uiso 1 1 calc GR . . . .
H28B H 0.6624 0.4393 0.0818 0.074 Uiso 1 1 calc GR . . . .
H28C H 0.6080 0.4458 0.1811 0.074 Uiso 1 1 calc GR . . . .
O1 O 0.6228(4) 0.3668(4) 0.3751(3) 0.0463(9) Uani 0.5 1 d . . . A 1
N31 N 0.5996(5) 0.2789(4) 0.5142(4) 0.0440(11) Uani 0.5 1 d . . . A 1
H31 H 0.5664 0.2826 0.5672 0.053 Uiso 0.5 1 calc R . . A 1
C29 C 0.5824(5) 0.3722(5) 0.4525(4) 0.0334(10) Uani 0.5 1 d . . . A 1
C30 C 0.6718(9) 0.1734(7) 0.4940(6) 0.0494(14) Uani 0.5 1 d . . . A 1
H30A H 0.6602 0.1571 0.4230 0.059 Uiso 0.5 1 calc R . . A 1
H30B H 0.6329 0.1045 0.5209 0.059 Uiso 0.5 1 calc R . . A 1
C31 C 0.8135(13) 0.1838(18) 0.5342(13) 0.068(4) Uani 0.5 1 d . . . A 1
H31A H 0.8272 0.2020 0.6051 0.082 Uiso 0.5 1 calc R . . A 1
H31B H 0.8552 0.2492 0.5049 0.082 Uiso 0.5 1 calc R . . A 1
C32 C 0.8764(15) 0.0638(13) 0.5113(12) 0.128(5) Uani 0.5 1 d . . . A 1
H32A H 0.8131 0.0102 0.4685 0.192 Uiso 0.5 1 calc GR . . A 1
H32B H 0.9049 0.0268 0.5718 0.192 Uiso 0.5 1 calc GR . . A 1
H32C H 0.9498 0.0807 0.4794 0.192 Uiso 0.5 1 calc GR . . A 1
O3 O 1.0855(8) 0.8354(6) 0.1393(6) 0.204(3) Uani 1 1 d . U . . .
C33 C 0.9952(10) 0.7309(9) 0.1408(8) 0.166(3) Uani 1 1 d . U . . .
H33A H 1.0218 0.6885 0.1997 0.199 Uiso 1 1 calc R . . . .
H33B H 0.9079 0.7564 0.1413 0.199 Uiso 1 1 calc R . . . .
C34 C 0.9964(7) 0.6551(6) 0.0559(6) 0.116(2) Uani 1 1 d . U . . .
H34A H 0.9089 0.6384 0.0186 0.139 Uiso 1 1 calc R . . . .
H34B H 1.0326 0.5795 0.0737 0.139 Uiso 1 1 calc R . . . .
C35 C 1.0794(14) 0.7222(12) -0.0018(9) 0.215(5) Uani 1 1 d . U . . .
H35A H 1.1620 0.6859 0.0002 0.258 Uiso 1 1 calc R . . . .
H35B H 1.0365 0.7218 -0.0702 0.258 Uiso 1 1 calc R . . . .
C36 C 1.0999(11) 0.8416(8) 0.0414(7) 0.158(3) Uani 1 1 d . U . . .
H36A H 1.1867 0.8747 0.0374 0.190 Uiso 1 1 calc R . . . .
H36B H 1.0366 0.8924 0.0076 0.190 Uiso 1 1 calc R . . . .
C39 C 0.6364(10) 0.1144(9) 0.4715(9) 0.084(3) Uani 0.5 1 d . . . B 2
H39A H 0.5921 0.0888 0.5240 0.101 Uiso 0.5 1 calc R . . B 2
H39B H 0.6407 0.0455 0.4262 0.101 Uiso 0.5 1 calc R . . B 2
C37 C 0.7504(5) 0.2939(6) 0.5288(5) 0.0511(14) Uani 0.5 1 d . . . B 2
H37A H 0.8267 0.3425 0.5189 0.061 Uiso 0.5 1 calc R . . B 2
H37B H 0.7376 0.3104 0.5963 0.061 Uiso 0.5 1 calc R . . B 2
O2 O 0.6367(4) 0.3250(4) 0.4606(3) 0.0425(9) Uani 0.5 1 d . . . B 2
C38 C 0.7702(11) 0.1705(16) 0.5127(14) 0.063(4) Uani 0.5 1 d . . . B 2
H38A H 0.8059 0.1365 0.5741 0.076 Uiso 0.5 1 calc R . . B 2
H38B H 0.8290 0.1589 0.4660 0.076 Uiso 0.5 1 calc R . . B 2
C40 C 0.5677(6) 0.2132(6) 0.4183(6) 0.0581(17) Uani 0.5 1 d . . . B 2
H40A H 0.5696 0.2037 0.3481 0.070 Uiso 0.5 1 calc R . . B 2
H40B H 0.4775 0.2115 0.4274 0.070 Uiso 0.5 1 calc R . . B 2
loop_
_atom_site_aniso_label
_atom_site_aniso_U_11
_atom_site_aniso_U_22
_atom_site_aniso_U_33
_atom_site_aniso_U_23
_atom_site_aniso_U_13
_atom_site_aniso_U_12
Rh1 0.03302(17) 0.03019(17) 0.02021(15) 0.00200(10) 0.00568(10) -0.00906(10)
N29 0.0401(11) 0.0406(11) 0.0216(9) 0.0028(8) 0.0035(8) -0.0174(9)
N30 0.0403(10) 0.0376(11) 0.0220(9) 0.0030(8) 0.0032(8) -0.0149(8)
C1 0.0440(13) 0.0371(12) 0.0254(11) 0.0060(9) 0.0089(10) -0.0129(10)
C2 0.0438(13) 0.0426(14) 0.0281(12) 0.0065(10) 0.0071(10) -0.0175(11)
C3 0.0387(12) 0.0428(14) 0.0311(12) 0.0048(10) 0.0060(10) -0.0138(10)
C4 0.0354(11) 0.0344(12) 0.0284(11) 0.0025(9) 0.0054(9) -0.0116(9)
C5 0.0315(11) 0.0316(11) 0.0255(11) -0.0002(8) 0.0028(8) -0.0075(9)
C6 0.0361(11) 0.0347(12) 0.0226(10) -0.0002(9) 0.0023(9) -0.0072(9)
C7 0.0388(12) 0.0411(13) 0.0231(11) 0.0029(9) 0.0007(9) -0.0095(10)
C8 0.0420(13) 0.0401(13) 0.0240(11) 0.0043(9) 0.0035(9) -0.0074(10)
C9 0.0420(12) 0.0378(12) 0.0202(10) 0.0026(9) 0.0058(9) -0.0102(10)
C10 0.0442(13) 0.0350(12) 0.0229(11) 0.0043(9) 0.0076(9) -0.0088(10)
C11 0.0279(10) 0.0296(11) 0.0258(10) 0.0027(8) 0.0025(8) -0.0047(8)
C12 0.0351(12) 0.0354(12) 0.0327(12) 0.0072(9) 0.0077(9) 0.0034(9)
C13 0.0303(11) 0.0502(15) 0.0432(14) 0.0112(12) 0.0031(10) 0.0015(10)
C14 0.0370(13) 0.0512(16) 0.0470(15) 0.0027(13) -0.0044(12) -0.0161(12)
C15 0.0476(14) 0.0331(13) 0.0448(15) -0.0047(11) 0.0016(12) -0.0078(11)
C16 0.0335(11) 0.0328(12) 0.0318(12) 0.0027(9) 0.0051(9) -0.0002(9)
C17 0.0583(17) 0.0413(15) 0.0531(17) 0.0000(13) 0.0117(14) 0.0115(13)
C18 0.0499(19) 0.076(3) 0.087(3) -0.005(2) -0.0159(19) -0.0263(18)
C19 0.0426(14) 0.0447(15) 0.0532(17) 0.0002(12) 0.0096(12) 0.0085(12)
C20 0.0342(11) 0.0352(12) 0.0229(10) 0.0049(9) 0.0042(9) -0.0090(9)
C21 0.0341(11) 0.0393(13) 0.0274(11) 0.0090(9) 0.0038(9) 0.0018(9)
C22 0.0441(13) 0.0473(15) 0.0299(12) 0.0086(10) 0.0139(10) 0.0089(11)
C23 0.0435(13) 0.0422(13) 0.0276(11) 0.0117(10) 0.0101(10) 0.0014(10)
C24 0.0474(14) 0.0301(12) 0.0373(13) 0.0102(10) 0.0128(11) 0.0022(10)
C25 0.0447(13) 0.0308(12) 0.0324(12) 0.0018(9) 0.0152(10) -0.0033(10)
C26 0.076(2) 0.0628(19) 0.0394(15) 0.0247(14) 0.0248(15) 0.0155(16)
C27 0.090(2) 0.0405(16) 0.0553(18) 0.0066(13) 0.0417(18) 0.0106(16)
C28 0.0586(17) 0.0474(16) 0.0463(16) 0.0167(13) 0.0132(13) 0.0160(13)
O1 0.057(2) 0.050(2) 0.039(2) 0.0137(17) 0.0212(18) 0.0212(18)
N31 0.057(3) 0.039(2) 0.042(3) 0.012(2) 0.019(2) 0.017(2)
C29 0.024(2) 0.042(3) 0.033(2) 0.008(2) 0.0000(19) 0.001(2)
C30 0.053(4) 0.040(4) 0.058(4) 0.002(3) 0.016(3) 0.010(3)
C31 0.041(7) 0.075(8) 0.098(11) 0.026(8) 0.027(7) 0.026(7)
C32 0.133(11) 0.122(10) 0.146(13) 0.033(9) 0.063(10) 0.009(8)
O3 0.230(6) 0.163(5) 0.219(6) -0.064(5) 0.087(5) -0.047(4)
C33 0.170(6) 0.157(6) 0.174(7) -0.030(6) 0.072(6) -0.035(5)
C34 0.117(4) 0.092(4) 0.133(5) -0.012(4) 0.019(4) -0.017(3)
C35 0.281(9) 0.219(8) 0.150(7) -0.012(7) 0.072(7) -0.008(7)
C36 0.211(7) 0.137(6) 0.132(6) 0.000(5) 0.063(6) -0.029(5)
C39 0.079(6) 0.056(5) 0.105(8) 0.003(5) -0.006(5) -0.019(5)
C37 0.034(3) 0.051(3) 0.063(4) -0.001(3) -0.004(3) 0.007(2)
O2 0.036(2) 0.043(2) 0.045(2) -0.0028(19) 0.0020(18) -0.0085(19)
C38 0.052(10) 0.053(5) 0.084(7) 0.017(4) 0.001(6) 0.014(6)
C40 0.047(3) 0.056(4) 0.066(4) -0.023(3) 0.006(3) -0.006(3)
loop_
_atom_type_symbol
_atom_type_description
_atom_type_scat_dispersion_real
_atom_type_scat_dispersion_imag
_atom_type_scat_source
C C 0.0033 0.0016 'International Tables Vol C Tables 4.2.6.8 and 6.1.1.4'
H H 0.0000 0.0000 'International Tables Vol C Tables 4.2.6.8 and 6.1.1.4'
N N 0.0061 0.0033 'International Tables Vol C Tables 4.2.6.8 and 6.1.1.4'
O O 0.0106 0.0060 'International Tables Vol C Tables 4.2.6.8 and 6.1.1.4'
Rh Rh -1.1178 0.9187 'International Tables Vol C Tables 4.2.6.8 and 6.1.1.4'
loop_
_geom_angle_atom_site_label_1
_geom_angle_atom_site_label_2
_geom_angle_atom_site_label_3
_geom_angle
_geom_angle_site_symmetry_1
_geom_angle_site_symmetry_3
N29 Rh1 N29 180.0 . 2_666
N29 Rh1 N30 90.24(9) 2_666 .
N29 Rh1 N30 90.24(9) . 2_666
N29 Rh1 N30 89.76(9) 2_666 2_666
N29 Rh1 N30 89.76(9) . .
N30 Rh1 N30 180.0 . 2_666
C29 Rh1 N29 88.62(18) 2_666 .
C29 Rh1 N29 88.62(18) . 2_666
C29 Rh1 N29 91.38(18) . .
C29 Rh1 N29 91.38(18) 2_666 2_666
C29 Rh1 N30 95.37(17) 2_666 .
C29 Rh1 N30 84.63(17) 2_666 2_666
C29 Rh1 N30 84.63(17) . .
C29 Rh1 N30 95.37(17) . 2_666
C29 Rh1 C29 180.0 2_666 .
C1 N29 Rh1 126.53(18) . .
C1 N29 C4 106.7(2) . .
C4 N29 Rh1 126.79(17) . .
C6 N30 Rh1 126.91(16) . .
C6 N30 C9 106.6(2) . .
C9 N30 Rh1 126.52(17) . .
N29 C1 C2 109.0(2) . .
N29 C1 C10 126.0(2) . 2_666
C10 C1 C2 125.0(2) 2_666 .
C1 C2 H2 126.2 . .
C3 C2 C1 107.6(2) . .
C3 C2 H2 126.2 . .
C2 C3 H3 126.3 . .
C2 C3 C4 107.3(2) . .
C4 C3 H3 126.3 . .
N29 C4 C3 109.4(2) . .
N29 C4 C5 125.7(2) . .
C5 C4 C3 124.9(2) . .
C4 C5 C11 117.4(2) . .
C6 C5 C4 124.9(2) . .
C6 C5 C11 117.7(2) . .
N30 C6 C5 125.9(2) . .
N30 C6 C7 109.0(2) . .
C5 C6 C7 125.1(2) . .
C6 C7 H7 126.3 . .
C8 C7 C6 107.5(2) . .
C8 C7 H7 126.3 . .
C7 C8 H8 126.3 . .
C7 C8 C9 107.3(2) . .
C9 C8 H8 126.3 . .
N30 C9 C8 109.7(2) . .
N30 C9 C10 125.5(2) . .
C10 C9 C8 124.8(2) . .
C1 C10 C9 125.1(2) 2_666 .
C1 C10 C20 118.2(2) 2_666 .
C9 C10 C20 116.6(2) . .
C12 C11 C5 120.7(2) . .
C16 C11 C5 119.1(2) . .
C16 C11 C12 120.2(2) . .
C11 C12 C17 121.3(2) . .
C13 C12 C11 118.9(2) . .
C13 C12 C17 119.8(2) . .
C12 C13 H13 119.3 . .
C14 C13 C12 121.4(2) . .
C14 C13 H13 119.3 . .
C13 C14 C18 121.3(3) . .
C15 C14 C13 118.7(3) . .
C15 C14 C18 120.0(3) . .
C14 C15 H15 119.2 . .
C14 C15 C16 121.6(3) . .
C16 C15 H15 119.2 . .
C11 C16 C19 121.1(2) . .
C15 C16 C11 119.1(2) . .
C15 C16 C19 119.8(2) . .
C12 C17 H17A 109.5 . .
C12 C17 H17B 109.5 . .
C12 C17 H17C 109.5 . .
H17A C17 H17B 109.5 . .
H17A C17 H17C 109.5 . .
H17B C17 H17C 109.5 . .
C14 C18 H18A 109.5 . .
C14 C18 H18B 109.5 . .
C14 C18 H18C 109.5 . .
H18A C18 H18B 109.5 . .
H18A C18 H18C 109.5 . .
H18B C18 H18C 109.5 . .
C16 C19 H19A 109.5 . .
C16 C19 H19B 109.5 . .
C16 C19 H19C 109.5 . .
H19A C19 H19B 109.5 . .
H19A C19 H19C 109.5 . .
H19B C19 H19C 109.5 . .
C21 C20 C10 119.2(2) . .
C21 C20 C25 120.4(2) . .
C25 C20 C10 120.3(2) . .
C20 C21 C28 122.0(2) . .
C22 C21 C20 118.6(2) . .
C22 C21 C28 119.4(2) . .
C21 C22 H22 119.0 . .
C23 C22 C21 122.1(2) . .
C23 C22 H22 119.0 . .
C22 C23 C26 120.1(2) . .
C24 C23 C22 118.2(2) . .
C24 C23 C26 121.7(2) . .
C23 C24 H24 119.2 . .
C23 C24 C25 121.6(2) . .
C25 C24 H24 119.2 . .
C20 C25 C24 119.0(2) . .
C20 C25 C27 121.1(2) . .
C24 C25 C27 119.9(2) . .
C23 C26 H26A 109.5 . .
C23 C26 H26B 109.5 . .
C23 C26 H26C 109.5 . .
H26A C26 H26B 109.5 . .
H26A C26 H26C 109.5 . .
H26B C26 H26C 109.5 . .
C25 C27 H27A 109.5 . .
C25 C27 H27B 109.5 . .
C25 C27 H27C 109.5 . .
H27A C27 H27B 109.5 . .
H27A C27 H27C 109.5 . .
H27B C27 H27C 109.5 . .
C21 C28 H28A 109.5 . .
C21 C28 H28B 109.5 . .
C21 C28 H28C 109.5 . .
H28A C28 H28B 109.5 . .
H28A C28 H28C 109.5 . .
H28B C28 H28C 109.5 . .
C29 N31 H31 118.3 . .
C29 N31 C30 123.5(5) . .
C30 N31 H31 118.3 . .
O1 C29 Rh1 125.4(5) . .
O1 C29 N31 119.7(6) . .
N31 C29 Rh1 114.8(4) . .
N31 C30 H30A 108.3 . .
N31 C30 H30B 108.3 . .
N31 C30 C31 116.0(10) . .
H30A C30 H30B 107.4 . .
C31 C30 H30A 108.3 . .
C31 C30 H30B 108.3 . .
C30 C31 H31A 109.6 . .
C30 C31 H31B 109.6 . .
C30 C31 C32 110.5(13) . .
H31A C31 H31B 108.1 . .
C32 C31 H31A 109.6 . .
C32 C31 H31B 109.6 . .
C31 C32 H32A 109.5 . .
C31 C32 H32B 109.5 . .
C31 C32 H32C 109.5 . .
H32A C32 H32B 109.5 . .
H32A C32 H32C 109.5 . .
H32B C32 H32C 109.5 . .
C36 O3 C33 105.6(8) . .
O3 C33 H33A 110.1 . .
O3 C33 H33B 110.1 . .
H33A C33 H33B 108.4 . .
C34 C33 O3 108.2(7) . .
C34 C33 H33A 110.1 . .
C34 C33 H33B 110.1 . .
C33 C34 H34A 110.8 . .
C33 C34 H34B 110.8 . .
C33 C34 C35 105.0(7) . .
H34A C34 H34B 108.8 . .
C35 C34 H34A 110.8 . .
C35 C34 H34B 110.8 . .
C34 C35 H35A 110.3 . .
C34 C35 H35B 110.3 . .
H35A C35 H35B 108.6 . .
C36 C35 C34 106.9(9) . .
C36 C35 H35A 110.3 . .
C36 C35 H35B 110.3 . .
O3 C36 C35 106.5(8) . .
O3 C36 H36A 110.4 . .
O3 C36 H36B 110.4 . .
C35 C36 H36A 110.4 . .
C35 C36 H36B 110.4 . .
H36A C36 H36B 108.6 . .
H39A C39 H39B 108.9 . .
C38 C39 H39A 110.9 . .
C38 C39 H39B 110.9 . .
C38 C39 C40 104.1(9) . .
C40 C39 H39A 110.9 . .
C40 C39 H39B 110.9 . .
H37A C37 H37B 108.2 . .
O2 C37 H37A 109.7 . .
O2 C37 H37B 109.7 . .
C38 C37 H37A 109.7 . .
C38 C37 H37B 109.7 . .
C38 C37 O2 109.7(7) . .
C40 O2 C37 106.8(5) . .
C39 C38 H38A 111.0 . .
C39 C38 H38B 111.0 . .
C37 C38 C39 104.0(9) . .
C37 C38 H38A 111.0 . .
C37 C38 H38B 111.0 . .
H38A C38 H38B 109.0 . .
C39 C40 H40A 110.4 . .
C39 C40 H40B 110.4 . .
O2 C40 C39 106.5(6) . .
O2 C40 H40A 110.4 . .
O2 C40 H40B 110.4 . .
H40A C40 H40B 108.6 . .
loop_
_geom_bond_atom_site_label_1
_geom_bond_atom_site_label_2
_geom_bond_distance
_geom_bond_site_symmetry_2
Rh1 N29 2.027(2) 2_666
Rh1 N29 2.027(2) .
Rh1 N30 2.029(2) 2_666
Rh1 N30 2.029(2) .
Rh1 C29 1.852(6) .
Rh1 C29 1.852(6) 2_666
N29 C1 1.376(3) .
N29 C4 1.383(3) .
N30 C6 1.378(3) .
N30 C9 1.380(3) .
C1 C2 1.448(3) .
C1 C10 1.387(4) 2_666
C2 H2 0.9300 .
C2 C3 1.347(4) .
C3 H3 0.9300 .
C3 C4 1.439(3) .
C4 C5 1.396(3) .
C5 C6 1.385(3) .
C5 C11 1.507(3) .
C6 C7 1.444(3) .
C7 H7 0.9300 .
C7 C8 1.352(4) .
C8 H8 0.9300 .
C8 C9 1.430(3) .
C9 C10 1.400(3) .
C10 C1 1.388(4) 2_666
C10 C20 1.515(3) .
C11 C12 1.399(3) .
C11 C16 1.397(3) .
C12 C13 1.395(4) .
C12 C17 1.514(4) .
C13 H13 0.9300 .
C13 C14 1.384(4) .
C14 C15 1.384(4) .
C14 C18 1.527(4) .
C15 H15 0.9300 .
C15 C16 1.387(4) .
C16 C19 1.510(3) .
C17 H17A 0.9600 .
C17 H17B 0.9600 .
C17 H17C 0.9600 .
C18 H18A 0.9600 .
C18 H18B 0.9600 .
C18 H18C 0.9600 .
C19 H19A 0.9600 .
C19 H19B 0.9600 .
C19 H19C 0.9600 .
C20 C21 1.395(3) .
C20 C25 1.395(4) .
C21 C22 1.392(3) .
C21 C28 1.506(4) .
C22 H22 0.9300 .
C22 C23 1.387(4) .
C23 C24 1.381(3) .
C23 C26 1.513(3) .
C24 H24 0.9300 .
C24 C25 1.397(3) .
C25 C27 1.510(4) .
C26 H26A 0.9600 .
C26 H26B 0.9600 .
C26 H26C 0.9600 .
C27 H27A 0.9600 .
C27 H27B 0.9600 .
C27 H27C 0.9600 .
C28 H28A 0.9600 .
C28 H28B 0.9600 .
C28 H28C 0.9600 .
O1 C29 1.211(6) .
N31 H31 0.8600 .
N31 C29 1.381(7) .
N31 C30 1.472(7) .
C30 H30A 0.9700 .
C30 H30B 0.9700 .
C30 C31 1.482(12) .
C31 H31A 0.9700 .
C31 H31B 0.9700 .
C31 C32 1.56(2) .
C32 H32A 0.9600 .
C32 H32B 0.9600 .
C32 H32C 0.9600 .
O3 C33 1.459(10) .
O3 C36 1.386(10) .
C33 H33A 0.9700 .
C33 H33B 0.9700 .
C33 C34 1.406(10) .
C34 H34A 0.9700 .
C34 H34B 0.9700 .
C34 C35 1.474(13) .
C35 H35A 0.9700 .
C35 H35B 0.9700 .
C35 C36 1.418(12) .
C36 H36A 0.9700 .
C36 H36B 0.9700 .
C39 H39A 0.9700 .
C39 H39B 0.9700 .
C39 C38 1.500(14) .
C39 C40 1.505(13) .
C37 H37A 0.9700 .
C37 H37B 0.9700 .
C37 O2 1.452(7) .
C37 C38 1.415(18) .
O2 C40 1.444(7) .
C38 H38A 0.9700 .
C38 H38B 0.9700 .
C40 H40A 0.9700 .
C40 H40B 0.9700 .
loop_
_geom_torsion_atom_site_label_1
_geom_torsion_atom_site_label_2
_geom_torsion_atom_site_label_3
_geom_torsion_atom_site_label_4
_geom_torsion
_geom_torsion_site_symmetry_1
_geom_torsion_site_symmetry_4
Rh1 N29 C1 C2 179.39(18) . .
Rh1 N29 C1 C10 -2.2(4) . 2_666
Rh1 N29 C4 C3 179.80(18) . .
Rh1 N29 C4 C5 0.4(4) . .
Rh1 N30 C6 C5 -0.2(4) . .
Rh1 N30 C6 C7 179.51(17) . .
Rh1 N30 C9 C8 -179.17(17) . .
Rh1 N30 C9 C10 2.0(4) . .
N29 Rh1 C29 O1 137.1(5) . .
N29 Rh1 C29 O1 -42.9(5) 2_666 .
N29 Rh1 C29 N31 135.6(4) 2_666 .
N29 Rh1 C29 N31 -44.4(4) . .
N29 C1 C2 C3 0.9(3) . .
N29 C4 C5 C6 -2.3(4) . .
N29 C4 C5 C11 175.2(2) . .
N30 Rh1 C29 O1 -132.5(5) 2_666 .
N30 Rh1 C29 O1 47.5(5) . .
N30 Rh1 C29 N31 -134.1(4) . .
N30 Rh1 C29 N31 45.9(4) 2_666 .
N30 C6 C7 C8 0.3(3) . .
N30 C9 C10 C1 -1.8(4) . 2_666
N30 C9 C10 C20 177.0(2) . .
C1 N29 C4 C3 -0.7(3) . .
C1 N29 C4 C5 179.9(2) . .
C1 C2 C3 C4 -1.3(3) . .
C1 C10 C20 C21 90.7(3) 2_666 .
C1 C10 C20 C25 -89.4(3) 2_666 .
C2 C3 C4 N29 1.3(3) . .
C2 C3 C4 C5 -179.3(3) . .
C3 C4 C5 C6 178.5(3) . .
C3 C4 C5 C11 -4.1(4) . .
C4 N29 C1 C2 -0.1(3) . .
C4 N29 C1 C10 178.3(3) . 2_666
C4 C5 C6 N30 2.1(4) . .
C4 C5 C6 C7 -177.5(2) . .
C4 C5 C11 C12 96.0(3) . .
C4 C5 C11 C16 -83.0(3) . .
C5 C6 C7 C8 -180.0(2) . .
C5 C11 C12 C13 -178.7(2) . .
C5 C11 C12 C17 2.0(4) . .
C5 C11 C16 C15 178.6(2) . .
C5 C11 C16 C19 -1.2(4) . .
C6 N30 C9 C8 1.3(3) . .
C6 N30 C9 C10 -177.5(2) . .
C6 C5 C11 C12 -86.4(3) . .
C6 C5 C11 C16 94.6(3) . .
C6 C7 C8 C9 0.5(3) . .
C7 C8 C9 N30 -1.2(3) . .
C7 C8 C9 C10 177.6(3) . .
C8 C9 C10 C1 179.5(3) . 2_666
C8 C9 C10 C20 -1.6(4) . .
C9 N30 C6 C5 179.3(2) . .
C9 N30 C6 C7 -1.0(3) . .
C9 C10 C20 C21 -88.3(3) . .
C9 C10 C20 C25 91.7(3) . .
C10 C1 C2 C3 -177.5(3) 2_666 .
C10 C20 C21 C22 -179.6(2) . .
C10 C20 C21 C28 0.3(4) . .
C10 C20 C25 C24 -179.7(2) . .
C10 C20 C25 C27 0.7(4) . .
C11 C5 C6 N30 -175.3(2) . .
C11 C5 C6 C7 5.1(4) . .
C11 C12 C13 C14 0.4(4) . .
C12 C11 C16 C15 -0.4(4) . .
C12 C11 C16 C19 179.8(2) . .
C12 C13 C14 C15 -0.9(5) . .
C12 C13 C14 C18 179.3(3) . .
C13 C14 C15 C16 0.8(5) . .
C14 C15 C16 C11 -0.2(4) . .
C14 C15 C16 C19 179.7(3) . .
C16 C11 C12 C13 0.3(4) . .
C16 C11 C12 C17 -179.0(2) . .
C17 C12 C13 C14 179.6(3) . .
C18 C14 C15 C16 -179.3(3) . .
C20 C21 C22 C23 -0.2(4) . .
C21 C20 C25 C24 0.3(4) . .
C21 C20 C25 C27 -179.3(3) . .
C21 C22 C23 C24 -0.8(4) . .
C21 C22 C23 C26 179.5(3) . .
C22 C23 C24 C25 1.5(4) . .
C23 C24 C25 C20 -1.3(4) . .
C23 C24 C25 C27 178.4(3) . .
C25 C20 C21 C22 0.4(4) . .
C25 C20 C21 C28 -179.6(3) . .
C26 C23 C24 C25 -178.7(3) . .
C28 C21 C22 C23 179.9(3) . .
N31 C30 C31 C32 177.6(10) . .
C29 N31 C30 C31 90.0(11) . .
C30 N31 C29 Rh1 -175.1(6) . .
C30 N31 C29 O1 3.5(9) . .
O3 C33 C34 C35 -5.6(12) . .
C33 O3 C36 C35 -28.4(13) . .
C33 C34 C35 C36 -11.7(13) . .
C34 C35 C36 O3 25.3(14) . .
C36 O3 C33 C34 21.3(12) . .
C37 O2 C40 C39 5.8(8) . .
O2 C37 C38 C39 -27.2(15) . .
C38 C39 C40 O2 -21.8(12) . .
C38 C37 O2 C40 13.7(11) . .
C40 C39 C38 C37 29.6(15) . .
