#------------------------------------------------------------------------------
#$Date: 2019-11-26 01:47:57 +0200 (Tue, 26 Nov 2019) $
#$Revision: 242315 $
#$URL: file:///home/coder/svn-repositories/cod/cif/4/13/23/4132331.cif $
#------------------------------------------------------------------------------
#
# This file is available in the Crystallography Open Database (COD),
# http://www.crystallography.net/
#
# All data on this site have been placed in the public domain by the
# contributors.
#
data_4132331
loop_
_publ_author_name
'Bhunia, Sarmistha'
'Rana, Atanu'
'Roy, Pronay'
'Martin, Daniel J.'
'Pegis, Michael L.'
'Roy, Bijan'
'Dey, Abhishek'
_publ_section_title
;
 Rational Design of Mononuclear Iron Porphyrins for Facile and Selective
 4e<sup>-</sup>/4H<sup>+</sup> O<sub>2</sub> Reduction: Activation of O-O
 Bond by 2nd Sphere Hydrogen Bonding.
;
_journal_issue                   30
_journal_name_full               'Journal of the American Chemical Society'
_journal_page_first              9444
_journal_page_last               9457
_journal_paper_doi               10.1021/jacs.8b02983
_journal_volume                  140
_journal_year                    2018
_chemical_formula_moiety         'C64 H53 N5 O2 Zn'
_chemical_formula_sum            'C64 H53 N5 O2 Zn'
_chemical_formula_weight         989.48
_space_group_crystal_system      monoclinic
_space_group_IT_number           9
_space_group_name_Hall           'C -2yc'
_space_group_name_H-M_alt        'C 1 c 1'
_atom_sites_solution_hydrogens   geom
_audit_creation_method           SHELXL-2013
_cell_angle_alpha                90
_cell_angle_beta                 93.370(7)
_cell_angle_gamma                90
_cell_formula_units_Z            4
_cell_length_a                   17.481(6)
_cell_length_b                   13.530(5)
_cell_length_c                   21.851(8)
_cell_measurement_reflns_used    4263
_cell_measurement_temperature    293(2)
_cell_measurement_theta_max      21.74
_cell_measurement_theta_min      2.33
_cell_volume                     5159(3)
_computing_cell_refinement       'Bruker SAINT'
_computing_data_collection       'Bruker APEX2'
_computing_data_reduction        'Bruker SAINT'
_computing_molecular_graphics    'Bruker SHELXTL'
_computing_publication_material  'Bruker SHELXTL'
_computing_structure_refinement  'SHELXL-2013 (Sheldrick, 2013)'
_computing_structure_solution    'SHELXS-97 (Sheldrick 2008)'
_diffrn_ambient_temperature      293(2)
_diffrn_measured_fraction_theta_full 0.998
_diffrn_measured_fraction_theta_max 0.821
_diffrn_measurement_device_type  'Bruker APEX-II CCD'
_diffrn_measurement_method       '\f and \w scans'
_diffrn_radiation_type           MoK\a
_diffrn_radiation_wavelength     0.71073
_diffrn_reflns_av_R_equivalents  0.0737
_diffrn_reflns_av_unetI/netI     0.1423
_diffrn_reflns_Laue_measured_fraction_full 0.998
_diffrn_reflns_Laue_measured_fraction_max 0.821
_diffrn_reflns_limit_h_max       22
_diffrn_reflns_limit_h_min       -23
_diffrn_reflns_limit_k_max       19
_diffrn_reflns_limit_k_min       -17
_diffrn_reflns_limit_l_max       29
_diffrn_reflns_limit_l_min       -29
_diffrn_reflns_number            24455
_diffrn_reflns_point_group_measured_fraction_full 0.998
_diffrn_reflns_point_group_measured_fraction_max 0.821
_diffrn_reflns_theta_full        25.242
_diffrn_reflns_theta_max         30.737
_diffrn_reflns_theta_min         1.867
_exptl_absorpt_coefficient_mu    0.527
_exptl_crystal_colour            blue
_exptl_crystal_density_diffrn    1.274
_exptl_crystal_description       needle
_exptl_crystal_F_000             2072
_exptl_crystal_size_max          0.35
_exptl_crystal_size_mid          0.22
_exptl_crystal_size_min          0.20
_refine_diff_density_max         0.659
_refine_diff_density_min         -0.626
_refine_diff_density_rms         0.060
_refine_ls_abs_structure_details
;
 Refined as an inversion twin.
;
_refine_ls_abs_structure_Flack   0.02(2)
_refine_ls_extinction_method     none
_refine_ls_goodness_of_fit_ref   1.044
_refine_ls_hydrogen_treatment    constr
_refine_ls_matrix_type           full
_refine_ls_number_parameters     650
_refine_ls_number_reflns         11662
_refine_ls_number_restraints     2
_refine_ls_restrained_S_all      1.043
_refine_ls_R_factor_all          0.1585
_refine_ls_R_factor_gt           0.0803
_refine_ls_shift/su_max          0.000
_refine_ls_shift/su_mean         0.000
_refine_ls_structure_factor_coef Fsqd
_refine_ls_weighting_details
'w=1/[\s^2^(Fo^2^)+(0.0521P)^2^] where P=(Fo^2^+2Fc^2^)/3'
_refine_ls_weighting_scheme      calc
_refine_ls_wR_factor_gt          0.1303
_refine_ls_wR_factor_ref         0.1541
_reflns_Friedel_coverage         0.999
_reflns_Friedel_fraction_full    0.998
_reflns_Friedel_fraction_max     0.821
_reflns_number_gt                6631
_reflns_number_total             11662
_reflns_threshold_expression     'I > 2\s(I)'
_cod_data_source_file            ja8b02983_si_003.cif
_cod_data_source_block           ZnL1
_cod_original_sg_symbol_H-M      'C c'
_cod_database_code               4132331
_shelx_space_group_comment
;
The symmetry employed for this shelxl refinement is uniquely defined
by the following loop, which should always be used as a source of
symmetry information in preference to the above space-group names.
They are only intended as comments.
;
_shelxl_version_number           2013-4
_shelx_res_file
;
TITL SBZNDB_0m in Cc
CELL  0.71073  17.4806  13.5297  21.8508   90.000   93.370   90.000
ZERR     4.00   0.0064   0.0048   0.0080    0.000    0.007    0.000
LATT  -7
SYMM    X, - Y, 1/2 + Z
SFAC  C    ZN   O    N    H
UNIT  256  4    8    20   212
MERG   2
FMAP   2
PLAN   60
ACTA
BOND
TWIN
L.S.   10
WGHT    0.052100
BASF   0.02319
FVAR       0.04194
C2    1    0.191293    0.546529    0.828126    11.00000    0.09866    0.17728 =
         0.07921   -0.06523    0.02790    0.00570
AFIX  43
H2    5    0.175730    0.556831    0.867598    11.00000   -1.20000
AFIX   0
C3    1    0.163229    0.605518    0.781299    11.00000    0.06380    0.12653 =
         0.11280   -0.05589    0.01322    0.00018
AFIX  43
H3    5    0.128320    0.655372    0.788674    11.00000   -1.20000
AFIX   0
C62   1    0.569836    0.496314    0.660937    11.00000    0.08972    0.13555 =
         0.11914   -0.02917   -0.02335   -0.01565
C63   1    0.593060    0.497484    0.599708    11.00000    0.20723    0.29929 =
         0.11398    0.00423    0.06389   -0.01753
AFIX  33
H63A  5    0.574777    0.556790    0.579649    11.00000   -1.50000
H63B  5    0.572114    0.440996    0.578057    11.00000   -1.50000
H63C  5    0.647979    0.495458    0.600048    11.00000   -1.50000
AFIX   0
C64   1    0.591365    0.411051    0.697615    11.00000    0.25288    0.21098 =
         0.12818    0.05484   -0.04287   -0.08790
AFIX  33
H64A  5    0.570164    0.416650    0.737010    11.00000   -1.50000
H64B  5    0.646207    0.407387    0.702819    11.00000   -1.50000
H64C  5    0.572059    0.352350    0.677435    11.00000   -1.50000
AFIX   0
O2    3    0.536569    0.566891    0.680735    11.00000    0.19826    0.19898 =
         0.17845   -0.04605   -0.02773    0.04080
C1    1    0.242642    0.471618    0.817383    11.00000    0.09851    0.13328 =
         0.05141   -0.01917    0.01011   -0.01648
AFIX  43
H1    5    0.260975    0.432372    0.849972    11.00000   -1.20000
AFIX   0
C4    1    0.186547    0.590855    0.724378    11.00000    0.04608    0.08690 =
         0.09303   -0.03643    0.00378    0.00343
AFIX  43
H4    5    0.168572    0.631852    0.692533    11.00000   -1.20000
AFIX   0
C5    1    0.236845    0.515570    0.712927    11.00000    0.05400    0.07603 =
         0.05600   -0.01493    0.00376   -0.00734
AFIX  43
H5    5    0.251016    0.505501    0.673041    11.00000   -1.20000
AFIX   0
C6    1    0.267310    0.453590    0.759882    11.00000    0.05557    0.07547 =
         0.04841   -0.02468    0.00788   -0.00978
C7    1    0.324521    0.375843    0.746681    11.00000    0.06579    0.08594 =
         0.04304   -0.00843   -0.01239   -0.00455
AFIX  23
H7A   5    0.374152    0.406579    0.742896    11.00000   -1.20000
H7B   5    0.329059    0.330020    0.780843    11.00000   -1.20000
AFIX   0
C8    1    0.231898    0.264889    0.691415    11.00000    0.03850    0.07584 =
         0.04865   -0.00744   -0.00787    0.00582
AFIX  23
H8A   5    0.220604    0.235560    0.651394    11.00000   -1.20000
H8B   5    0.190955    0.311003    0.698775    11.00000   -1.20000
AFIX   0
C9    1    0.231076    0.184297    0.738849    11.00000    0.03924    0.06867 =
         0.04740    0.00047   -0.00510   -0.00278
C10   1    0.197367    0.199773    0.793513    11.00000    0.07930    0.09144 =
         0.07714   -0.00010    0.02506    0.00713
AFIX  43
H10   5    0.172835    0.259350    0.800537    11.00000   -1.20000
AFIX   0
C11   1    0.200027    0.125647    0.838633    11.00000    0.11074    0.11712 =
         0.05216    0.00387    0.02643   -0.00478
AFIX  43
H11   5    0.177244    0.136790    0.875414    11.00000   -1.20000
AFIX   0
C12   1    0.234840    0.039279    0.829478    11.00000    0.07690    0.13142 =
         0.06570    0.02498    0.00142   -0.01128
AFIX  43
H12   5    0.236671   -0.008892    0.859890    11.00000   -1.20000
AFIX   0
C13   1    0.267513    0.022236    0.775554    11.00000    0.07164    0.06924 =
         0.07965    0.00955   -0.00140    0.00203
AFIX  43
H13   5    0.291431   -0.037831    0.768719    11.00000   -1.20000
AFIX   0
C14   1    0.264963    0.094718    0.730967    11.00000    0.06486    0.07012 =
         0.05387   -0.00528    0.00067    0.00110
AFIX  43
H14   5    0.287204    0.081968    0.694149    11.00000   -1.20000
AFIX   0
C15   1    0.362581    0.272289    0.660766    11.00000    0.03764    0.05252 =
         0.04630    0.00410   -0.01033    0.00332
C16   1    0.425087    0.228464    0.693407    11.00000    0.05215    0.07364 =
         0.05809    0.00590   -0.02316    0.01105
AFIX  43
H16   5    0.427857    0.229508    0.736037    11.00000   -1.20000
AFIX   0
C17   1    0.481672    0.184459    0.663215    11.00000    0.04364    0.07945 =
         0.10084    0.00527   -0.02990    0.01648
AFIX  43
H17   5    0.522445    0.155566    0.685896    11.00000   -1.20000
AFIX   0
C18   1    0.480777    0.181155    0.600535    11.00000    0.04276    0.05682 =
         0.09342   -0.00443   -0.00840    0.01474
AFIX  43
H18   5    0.519757    0.150014    0.580675    11.00000   -1.20000
AFIX   0
C19   1    0.419712    0.225858    0.567512    11.00000    0.04473    0.04972 =
         0.05652   -0.00049   -0.00087    0.00372
AFIX  43
H19   5    0.418010    0.225007    0.524896    11.00000   -1.20000
AFIX   0
C20   1    0.361765    0.271334    0.596958    11.00000    0.03399    0.04016 =
         0.04151    0.00064   -0.00717   -0.00037
C21   1    0.299589    0.325803    0.560243    11.00000    0.03307    0.03537 =
         0.03461    0.00096   -0.00591    0.00095
C22   1    0.242399    0.271688    0.527288    11.00000    0.03338    0.04097 =
         0.03536   -0.00205   -0.00752    0.00504
C23   1    0.239116    0.167096    0.521508    11.00000    0.04857    0.03884 =
         0.06149    0.00310   -0.01575    0.01119
AFIX  43
H23   5    0.274270    0.122449    0.539257    11.00000   -1.20000
AFIX   0
C24   1    0.176828    0.144178    0.486194    11.00000    0.04614    0.03243 =
         0.04632   -0.00625   -0.00790    0.00254
AFIX  43
H24   5    0.160915    0.080878    0.474780    11.00000   -1.20000
AFIX   0
C25   1    0.139007    0.234363    0.469087    11.00000    0.04162    0.03623 =
         0.03026   -0.00716    0.00072    0.00037
C26   1    0.068747    0.242142    0.434913    11.00000    0.03706    0.04492 =
         0.02676   -0.00485   -0.00263   -0.00230
C27   1    0.027588    0.149177    0.417338    11.00000    0.04039    0.04091 =
         0.04241   -0.00915   -0.01408    0.00097
C28   1    0.049264    0.089262    0.370631    11.00000    0.07185    0.07523 =
         0.08144   -0.03733    0.00685   -0.00921
AFIX  43
H28   5    0.091615    0.106374    0.349059    11.00000   -1.20000
AFIX   0
C29   1    0.008901    0.003499    0.355116    11.00000    0.07821    0.07587 =
         0.10729   -0.05343    0.00659   -0.01111
AFIX  43
H29   5    0.025092   -0.036137    0.323598    11.00000   -1.20000
AFIX   0
C30   1   -0.052166   -0.022938    0.384312    11.00000    0.07666    0.05587 =
         0.08825   -0.01374   -0.02593   -0.01463
AFIX  43
H30   5   -0.078628   -0.080571    0.373506    11.00000   -1.20000
AFIX   0
C31   1   -0.075653    0.035454    0.430368    11.00000    0.08399    0.07880 =
         0.07722   -0.01454   -0.00165   -0.03513
AFIX  43
H31   5   -0.118578    0.017764    0.451072    11.00000   -1.20000
AFIX   0
C32   1   -0.036182    0.120603    0.446472    11.00000    0.07772    0.07673 =
         0.04850   -0.02053    0.00575   -0.01470
AFIX  43
H32   5   -0.053228    0.159714    0.477914    11.00000   -1.20000
AFIX   0
C33   1    0.031664    0.331950    0.419100    11.00000    0.04333    0.03753 =
         0.03717    0.00198   -0.00670    0.00413
C34   1   -0.035114    0.339708    0.377599    11.00000    0.05230    0.05394 =
         0.04416   -0.01259   -0.02459   -0.00316
AFIX  43
H34   5   -0.061921    0.287263    0.359057    11.00000   -1.20000
AFIX   0
C35   1   -0.051781    0.435371    0.370418    11.00000    0.05853    0.05649 =
         0.05245   -0.00468   -0.02986    0.00606
AFIX  43
H35   5   -0.092004    0.462043    0.346012    11.00000   -1.20000
AFIX   0
C36   1    0.004649    0.489490    0.407829    11.00000    0.04375    0.04126 =
         0.03453    0.00134   -0.01168   -0.00253
C37   1    0.009039    0.592843    0.412312    11.00000    0.03946    0.04744 =
         0.03724    0.00619   -0.00841    0.00006
C38   1   -0.050198    0.651714    0.375147    11.00000    0.04152    0.03943 =
         0.04466   -0.00085   -0.01844    0.00451
C39   1   -0.027956    0.699073    0.322592    11.00000    0.06557    0.07012 =
         0.04328    0.00788   -0.00611    0.02038
AFIX  43
H39   5    0.022486    0.695579    0.311399    11.00000   -1.20000
AFIX   0
C40   1   -0.082947    0.752162    0.286805    11.00000    0.11290    0.06889 =
         0.04148    0.00142   -0.02654    0.03167
AFIX  43
H40   5   -0.069433    0.780371    0.250159    11.00000   -1.20000
AFIX   0
C41   1   -0.155012    0.763138    0.304446    11.00000    0.08265    0.06227 =
         0.06984   -0.00806   -0.04546    0.02838
AFIX  43
H41   5   -0.190045    0.801202    0.281044    11.00000   -1.20000
AFIX   0
C42   1   -0.176367    0.718798    0.356174    11.00000    0.04956    0.06028 =
         0.10813   -0.00464   -0.03384    0.01029
AFIX  43
H42   5   -0.226117    0.726447    0.368343    11.00000   -1.20000
AFIX   0
C43   1   -0.124358    0.661993    0.391117    11.00000    0.05121    0.05649 =
         0.06730   -0.00155   -0.01348   -0.00120
AFIX  43
H43   5   -0.140069    0.630309    0.426003    11.00000   -1.20000
AFIX   0
C44   1    0.065922    0.645552    0.447231    11.00000    0.04740    0.03776 =
         0.02671    0.00351   -0.00157    0.00488
C45   1    0.068002    0.752193    0.451923    11.00000    0.05774    0.03547 =
         0.04820    0.00665   -0.01045    0.00530
AFIX  43
H45   5    0.031806    0.796544    0.435329    11.00000   -1.20000
AFIX   0
C46   1    0.132210    0.773833    0.484792    11.00000    0.05103    0.04448 =
         0.04753    0.00230   -0.00990    0.00787
AFIX  43
H46   5    0.149154    0.837161    0.495118    11.00000   -1.20000
AFIX   0
C47   1    0.171254    0.683472    0.501811    11.00000    0.04530    0.02636 =
         0.03501   -0.00280   -0.01200   -0.00595
C48   1    0.242211    0.677574    0.534466    11.00000    0.03929    0.03060 =
         0.03887    0.00511   -0.00432   -0.00515
C49   1    0.281807    0.770680    0.552076    11.00000    0.03571    0.03666 =
         0.05596    0.00684   -0.00915    0.00146
C50   1    0.312741    0.829374    0.508310    11.00000    0.06513    0.05371 =
         0.05886    0.00983   -0.01187   -0.00813
AFIX  43
H50   5    0.308341    0.810474    0.467333    11.00000   -1.20000
AFIX   0
C51   1    0.350452    0.916565    0.524919    11.00000    0.06378    0.05490 =
         0.09905    0.02366   -0.01166   -0.01529
AFIX  43
H51   5    0.372048    0.955322    0.495306    11.00000   -1.20000
AFIX   0
C52   1    0.355675    0.945288    0.585487    11.00000    0.06974    0.04518 =
         0.11292   -0.01118   -0.02773   -0.00131
AFIX  43
H52   5    0.378590    1.005140    0.596724    11.00000   -1.20000
AFIX   0
C53   1    0.327186    0.885746    0.628724    11.00000    0.07494    0.05454 =
         0.07243   -0.01369   -0.01198   -0.00738
AFIX  43
H53   5    0.333307    0.903851    0.669778    11.00000   -1.20000
AFIX   0
C54   1    0.289875    0.800167    0.613330    11.00000    0.06957    0.05381 =
         0.05403   -0.00584   -0.00379   -0.00801
AFIX  43
H54   5    0.269765    0.761353    0.643624    11.00000   -1.20000
AFIX   0
C55   1    0.279085    0.587296    0.551168    11.00000    0.03712    0.03197 =
         0.03476   -0.00305   -0.00333   -0.00856
C56   1    0.352364    0.578513    0.583463    11.00000    0.04078    0.03929 =
         0.04867   -0.00449   -0.00775   -0.00951
AFIX  43
H56   5    0.383751    0.630491    0.597078    11.00000   -1.20000
AFIX   0
C57   1    0.367465    0.483500    0.590481    11.00000    0.03764    0.04523 =
         0.04851    0.00711   -0.01489    0.00268
AFIX  43
H57   5    0.411556    0.456763    0.609803    11.00000   -1.20000
AFIX   0
C58   1    0.304153    0.428626    0.563173    11.00000    0.03111    0.03994 =
         0.03111    0.00328   -0.00786    0.00079
C59   1    0.055254    0.394519    0.617183    11.00000    0.03450    0.05627 =
         0.04269    0.00623   -0.00646    0.00155
C60   1    0.036329    0.416563    0.681034    11.00000    0.05890    0.09348 =
         0.05237    0.00103    0.00415   -0.01264
AFIX  33
H60A  5    0.054930    0.481200    0.692292    11.00000   -1.50000
H60B  5    0.060038    0.368326    0.708219    11.00000   -1.50000
H60C  5   -0.018233    0.414434    0.683926    11.00000   -1.50000
AFIX   0
C61   1    0.031215    0.297486    0.591825    11.00000    0.08291    0.06298 =
         0.07857   -0.01491    0.02112   -0.01199
AFIX  33
H61A  5    0.046428    0.292027    0.550455    11.00000   -1.50000
H61B  5   -0.023474    0.291487    0.592231    11.00000   -1.50000
H61C  5    0.055061    0.245851    0.616300    11.00000   -1.50000
AFIX   0
ZN1   2    0.145573    0.458087    0.497970    11.00000    0.03551    0.03905 =
         0.02911   -0.00006   -0.01234    0.00069
O1    3    0.089128    0.454870    0.587404    11.00000    0.05275    0.05873 =
         0.04252    0.00342    0.00021   -0.00488
N1    4    0.303169    0.320208    0.689593    11.00000    0.04246    0.06692 =
         0.03596   -0.00235   -0.00928    0.00292
N2    4    0.179732    0.312617    0.493509    11.00000    0.03537    0.04760 =
         0.02947   -0.00453   -0.00760    0.00248
N3    4    0.054523    0.424206    0.436904    11.00000    0.03858    0.03307 =
         0.03691    0.00026   -0.01628    0.00206
N4    4    0.127460    0.604773    0.477531    11.00000    0.03098    0.04940 =
         0.02539    0.00512   -0.01442   -0.00145
N5    4    0.250679    0.494399    0.538394    11.00000    0.03884    0.03485 =
         0.03630    0.00314   -0.01182    0.00165
HKLF    4

REM  SBZNDB_0m in Cc
REM R1 =  0.0803 for    6631 Fo > 4sig(Fo)  and  0.1585 for all   11662 data
REM    650 parameters refined using      2 restraints

END

WGHT      0.0491      0.0145

REM Highest difference peak  0.659,  deepest hole -0.626,  1-sigma level  0.060
Q1    1   0.2100  0.4613  0.5101  11.00000  0.05    0.66
Q2    1   0.1326  0.5500  0.5016  11.00000  0.05    0.58
Q3    1   0.0816  0.4581  0.4842  11.00000  0.05    0.56
Q4    1   0.1721  0.5463  0.4907  11.00000  0.05    0.52
Q5    1   0.1878  0.4572  0.4663  11.00000  0.05    0.51
Q6    1   0.1038  0.4542  0.5316  11.00000  0.05    0.49
Q7    1   0.1403  0.3638  0.5015  11.00000  0.05    0.44
Q8    1   0.1587  0.4170  0.5265  11.00000  0.05    0.43
Q9    1   0.1198  0.3729  0.5088  11.00000  0.05    0.43
Q10   1   0.1896  0.3799  0.4823  11.00000  0.05    0.42
Q11   1   0.1308  0.4183  0.4700  11.00000  0.05    0.37
Q12   1   0.1501  0.4993  0.5264  11.00000  0.05    0.35
Q13   1   0.1321  0.4991  0.4695  11.00000  0.05    0.34
Q14   1   0.1384  0.5134  0.5710  11.00000  0.05    0.32
Q15   1   0.0875  0.3865  0.5585  11.00000  0.05    0.30
Q16   1   0.2106  0.5005  0.5591  11.00000  0.05    0.28
Q17   1   0.1991  0.5392  0.4400  11.00000  0.05    0.28
Q18   1   0.2494  0.7789  0.5865  11.00000  0.05    0.27
Q19   1   0.1569  0.5587  0.5464  11.00000  0.05    0.26
Q20   1   0.1246  0.3187  0.5802  11.00000  0.05    0.24
Q21   1   0.0263  0.4173  0.4787  11.00000  0.05    0.24
Q22   1   0.1258  0.4026  0.5555  11.00000  0.05    0.24
Q23   1   0.0998  0.5495  0.5917  11.00000  0.05    0.23
Q24   1   0.1597  0.3565  0.5500  11.00000  0.05    0.22
Q25   1   0.2618  0.5478  0.4676  11.00000  0.05    0.22
Q26   1  -0.1381  0.1144  0.4590  11.00000  0.05    0.21
Q27   1   0.2623  0.3885  0.7398  11.00000  0.05    0.21
Q28   1   0.2332  0.7865  0.6409  11.00000  0.05    0.21
Q29   1   0.2710  0.4796  0.5079  11.00000  0.05    0.21
Q30   1   0.2110  0.5871  0.5413  11.00000  0.05    0.21
Q31   1   0.0878  0.4908  0.4296  11.00000  0.05    0.20
Q32   1   0.2005  0.3783  0.4408  11.00000  0.05    0.20
Q33   1   0.1094  0.4093  0.6075  11.00000  0.05    0.20
Q34   1   0.2809  0.4704  0.5599  11.00000  0.05    0.20
Q35   1  -0.2682  0.7259  0.4309  11.00000  0.05    0.20
Q36   1   0.3209  0.3537  0.7087  11.00000  0.05    0.20
Q37   1   0.3761  0.7918  0.4805  11.00000  0.05    0.20
Q38   1   0.1606  0.4872  0.9276  11.00000  0.05    0.20
Q39   1   0.2513  0.5055  0.5832  11.00000  0.05    0.20
Q40   1   0.2616  0.8463  0.5840  11.00000  0.05    0.19
Q41   1   0.1003  0.3635  0.5851  11.00000  0.05    0.19
Q42   1   0.2362  0.6438  0.5621  11.00000  0.05    0.19
Q43   1   0.1326  0.3719  0.4274  11.00000  0.05    0.19
Q44   1   0.1390  0.5626  0.4508  11.00000  0.05    0.19
Q45   1   0.3670  0.3772  0.6717  11.00000  0.05    0.19
Q46   1   0.2543  0.4170  0.5847  11.00000  0.05    0.19
Q47   1   0.3327  0.7457  0.4403  11.00000  0.05    0.19
Q48   1   0.1533  0.5852  0.4570  11.00000  0.05    0.19
Q49   1   0.2299  0.4320  0.5503  11.00000  0.05    0.19
Q50   1   0.5229  0.2435  0.5377  11.00000  0.05    0.19
Q51   1   0.2970  0.2602  0.4931  11.00000  0.05    0.19
Q52   1  -0.0910 -0.0016  0.4636  11.00000  0.05    0.19
Q53   1   0.3066  0.4691  0.6006  11.00000  0.05    0.19
Q54   1   0.1970  0.3094  0.5024  11.00000  0.05    0.19
Q55   1   0.5080  0.1123  0.5417  11.00000  0.05    0.19
Q56   1   0.1680  0.6289  0.5593  11.00000  0.05    0.18
Q57   1   0.0884  0.2718  0.5718  11.00000  0.05    0.18
Q58   1   0.2114  0.4182  0.5590  11.00000  0.05    0.18
Q59   1   0.5299  0.0459  0.5288  11.00000  0.05    0.18
Q60   1  -0.1692 -0.0816  0.4605  11.00000  0.05    0.18
;
_shelx_res_checksum              45204
_shelx_hkl_file
;
   2   0   0   30.75    1.74
  -2   0   0   32.63    1.75
   4   0   0   23.26    1.40
  -4   0   0   27.22    1.45
   6   0   0    4.74    0.31
  -6   0   0    3.98    0.44
  -8   0   0    9.87    0.75
   8   0   0   10.61    0.63
  10   0   0   46.91    2.57
 -10   0   0   44.90    2.65
  12   0   0    4.72    0.43
 -12   0   0    4.65    0.58
  14   0   0    5.46    0.50
 -14   0   0    4.84    0.67
 -16   0   0    0.14    0.53
  16   0   0    0.00    0.31
 -18   0   0    2.16    0.68
  18   0   0    4.07    0.52
 -20   0   0   -0.75    0.61
  20   0   0   -0.04    0.43
 -22   0   0    0.12    0.73
  22   0   0    1.51    0.57
   1  -1   0  100.49    4.84
  -1  -1   0   87.43    4.84
   1   1   0   81.85    4.83
  -1   1   0   84.47    4.83
   3  -1   0   11.59    0.62
  -3  -1   0   11.81    0.66
  -3   1   0    9.61    0.64
   3   1   0   10.80    0.62
  -5  -1   0   13.25    0.83
   5  -1   0   13.07    0.75
   5   1   0   13.26    0.76
  -5   1   0   12.67    0.83
   7  -1   0   23.76    1.44
  -7  -1   0   27.16    1.51
  -7   1   0   27.36    1.51
   7   1   0   24.40    1.44
  -9  -1   0    7.88    0.71
   9  -1   0    8.89    0.56
   9   1   0    8.18    0.56
  -9   1   0    8.57    0.72
 -11  -1   0    6.56    0.69
  11  -1   0    7.29    0.52
 -11   1   0    7.21    0.70
  11   1   0    7.29    0.52
  13  -1   0    4.65    0.43
 -13  -1   0    3.99    0.58
 -13   1   0    4.35    0.61
  13   1   0    4.34    0.45
  15  -1   0    0.87    0.29
 -15  -1   0    0.31    0.50
 -15   1   0    0.56    0.55
  15   1   0    0.99    0.31
 -17  -1   0    0.67    0.56
  17  -1   0    1.04    0.36
  17   1   0    0.67    0.38
 -17   1   0    1.09    0.59
  19  -1   0    2.96    0.49
 -19  -1   0    1.05    0.64
  19   1   0    2.38    0.51
 -19   1   0    0.95    0.66
  21  -1   0    0.97    0.51
 -21  -1   0   -0.35    0.66
  21   1   0    1.26    0.52
 -21   1   0    0.17    0.74
   0  -2   0    1.86    0.14
   0   2   0    1.82    0.12
   2  -2   0   49.59    2.51
  -2  -2   0   47.39    2.51
  -2   2   0   44.04    2.49
  -2   2   0   45.65    2.51
   2   2   0   40.97    2.49
   4  -2   0    1.63    0.17
   4  -2   0    1.81    0.22
   4   2   0    1.79    0.19
  -6  -2   0    1.52    0.28
  -6   2   0    1.38    0.25
   8  -2   0   15.90    0.99
  -8  -2   0   17.46    1.10
  -8   2   0   19.31    1.09
   8   2   0   16.27    1.00
  10  -2   0    7.82    0.51
 -10  -2   0    6.24    0.68
  10   2   0    7.27    0.53
 -10   2   0    7.27    0.69
  12  -2   0    1.07    0.22
 -12  -2   0   -0.24    0.38
  12   2   0    0.61    0.24
 -12   2   0    0.24    0.42
 -14  -2   0    1.09    0.48
  14  -2   0    2.06    0.30
 -14   2   0    1.68    0.55
  14   2   0    2.14    0.34
  16  -2   0    4.58    0.49
 -16  -2   0    3.29    0.65
 -16   2   0    4.17    0.71
  16   2   0    5.07    0.52
 -18  -2   0    0.85    0.59
  18  -2   0    1.57    0.41
  18   2   0    1.57    0.45
 -18   2   0    0.60    0.62
  20  -2   0    2.84    0.52
 -20  -2   0    2.01    0.71
  20   2   0    2.35    0.52
 -20   2   0    1.27    0.68
  22  -2   0   -0.07    0.53
 -22  -2   0   -0.25    0.71
  22   2   0   -0.46    0.53
 -22   2   0   -0.03    0.70
  -1  -3   0   62.35    3.69
   1  -3   0   73.76    3.71
  -1  -3   0   68.57    3.71
  -1   3   0   62.56    3.68
   1   3   0   69.44    3.68
   3  -3   0   53.98    2.77
  -3  -3   0   52.42    2.78
   3   3   0   48.44    2.75
  -3   3   0   47.89    2.75
  -3   3   0   47.96    2.78
  -5  -3   0    0.17    0.22
   5  -3   0   -0.07    0.09
   5  -3   0   -0.05    0.12
  -5   3   0    0.00    0.18
   5   3   0    0.14    0.11
   7  -3   0    4.70    0.32
   7   3   0    4.98    0.35
  -7   3   0    3.60    0.38
   9  -3   0    8.69    0.58
  -9  -3   0    9.14    0.75
   9   3   0    8.12    0.60
  -9   3   0   10.07    0.72
  11  -3   0    1.57    0.23
 -11  -3   0    0.97    0.40
 -11   3   0    1.51    0.42
  11   3   0    1.02    0.24
 -13  -3   0    1.33    0.47
  13  -3   0    2.62    0.30
 -13   3   0    1.84    0.52
  13   3   0    2.65    0.34
  15  -3   0    2.62    0.36
 -15  -3   0    1.43    0.54
  15   3   0    1.93    0.38
 -15   3   0    2.18    0.59
 -17  -3   0    1.41    0.59
  17  -3   0    2.09    0.41
 -17   3   0    1.33    0.59
  17   3   0    1.85    0.43
 -19  -3   0    0.05    0.60
  19  -3   0    0.97    0.43
 -19   3   0    0.16    0.58
  19   3   0    0.93    0.47
 -21  -3   0    0.46    0.70
  21  -3   0    1.49    0.52
 -21   3   0    0.02    0.62
  21   3   0    1.13    0.56
   0  -4   0   32.84    1.88
   0  -4   0   37.49    1.91
   0   4   0   32.92    1.86
   0   4   0   32.24    1.86
  -2  -4   0    4.35    0.34
  -2  -4   0    4.10    0.36
   2  -4   0    4.93    0.36
  -2   4   0    3.68    0.30
   2   4   0    4.31    0.29
  -2   4   0    3.78    0.29
   2   4   0    4.47    0.28
  -4  -4   0    5.35    0.42
   4  -4   0    5.35    0.38
  -4   4   0    4.44    0.39
   4   4   0    4.79    0.33
  -4   4   0    5.30    0.34
  -6  -4   0   15.84    0.94
   6  -4   0   15.60    0.92
   6  -4   0   15.50    0.93
  -6  -4   0   17.89    1.00
   6   4   0   15.26    0.93
  -6   4   0   16.26    0.97
   8  -4   0   11.97    0.70
   8  -4   0   11.50    0.70
  -8  -4   0   12.71    0.85
  -8   4   0    9.42    0.75
   8   4   0   11.99    0.72
 -10  -4   0    4.32    0.52
  10  -4   0    3.26    0.33
  10   4   0    3.24    0.38
 -10   4   0    2.85    0.40
 -12  -4   0    3.25    0.55
  12  -4   0    4.32    0.41
  12   4   0    4.18    0.45
 -12   4   0    4.05    0.56
  14  -4   0    7.87    0.60
 -14  -4   0    6.12    0.81
  14   4   0    7.98    0.66
 -14   4   0    6.78    0.80
 -16  -4   0   -0.08    0.50
  16  -4   0    0.13    0.30
 -16   4   0    0.47    0.54
  16   4   0   -0.07    0.36
  18  -4   0    1.26    0.40
 -18  -4   0    0.83    0.60
 -18   4   0    0.89    0.60
  18   4   0    1.34    0.48
  20  -4   0    0.23    0.43
 -20  -4   0    0.19    0.64
 -20   4   0   -0.18    0.57
  20   4   0   -0.22    0.47
 -22   4   0   -0.15    0.69
  22   4   0    0.15    0.59
  -1  -5   0    1.14    0.17
  -1  -5   0    1.05    0.21
   1  -5   0    1.23    0.21
  -1   5   0    1.16    0.13
  -1   5   0    1.12    0.14
   1   5   0    1.17    0.14
   1   5   0    1.10    0.12
  -3  -5   0    5.00    0.41
  -3  -5   0    5.31    0.42
   3  -5   0    5.47    0.41
   3   5   0    5.26    0.34
  -3   5   0    5.00    0.35
  -3   5   0    5.38    0.35
  -5  -5   0    9.62    0.65
   5  -5   0    9.29    0.60
   5  -5   0    9.11    0.54
  -5   5   0    8.88    0.55
   5   5   0    9.38    0.56
  -5   5   0    7.86    0.60
   7  -5   0    1.23    0.18
   7  -5   0    1.37    0.23
  -7  -5   0    1.28    0.24
  -7  -5   0    2.15    0.39
  -7   5   0    1.49    0.29
   7   5   0    1.58    0.21
   9  -5   0    1.91    0.22
  -9  -5   0    1.86    0.41
   9  -5   0    1.66    0.23
   9   5   0    2.07    0.25
  -9   5   0    2.64    0.36
  11  -5   0    3.77    0.37
 -11  -5   0    3.37    0.52
  11   5   0    4.64    0.42
 -11   5   0    2.59    0.40
  13  -5   0    0.33    0.23
 -13  -5   0   -0.22    0.43
 -13   5   0    0.10    0.37
  13   5   0    0.28    0.28
 -15  -5   0    1.43    0.55
  15  -5   0    3.08    0.38
 -15   5   0    1.84    0.55
  15   5   0    2.82    0.43
 -17  -5   0   -0.20    0.53
  17  -5   0    0.49    0.34
  17   5   0    0.41    0.41
 -17   5   0    0.46    0.53
  19  -5   0    1.04    0.42
 -19  -5   0    0.08    0.61
  19   5   0    0.04    0.47
 -19   5   0    0.94    0.58
  21  -5   0    0.01    0.42
 -21  -5   0   -0.44    0.65
  21   5   0   -0.65    0.51
 -21   5   0    0.22    0.89
   0  -6   0    0.83    0.22
   0  -6   0    0.43    0.17
   0   6   0    0.83    0.13
   0   6   0    0.86    0.15
   2  -6   0    0.49    0.22
  -2  -6   0    0.45    0.22
  -2  -6   0    0.26    0.19
   2   6   0    0.50    0.12
   2   6   0    0.41    0.15
  -2   6   0    0.68    0.13
  -2   6   0    0.63    0.15
  -4  -6   0   30.98    1.76
  -4  -6   0   32.13    1.77
   4  -6   0   28.95    1.75
  -4   6   0   29.50    1.71
   4   6   0   30.19    1.71
  -4   6   0   32.30    1.72
   6  -6   0    0.89    0.24
   6  -6   0    1.00    0.15
  -6  -6   0    0.97    0.24
  -6  -6   0    1.45    0.36
  -6   6   0    1.16    0.20
  -6   6   0    0.96    0.26
   6   6   0    1.02    0.19
  -8  -6   0    1.32    0.26
  -8  -6   0    1.51    0.39
   8  -6   0    1.38    0.19
   8  -6   0    1.24    0.24
   8   6   0    1.51    0.22
  -8   6   0    1.49    0.30
  10  -6   0    1.43    0.23
  10  -6   0    1.50    0.21
 -10  -6   0    1.25    0.42
 -10   6   0    0.65    0.34
  10   6   0    1.84    0.25
 -12  -6   0    0.24    0.44
  12  -6   0    0.29    0.21
  12  -6   0    0.18    0.19
 -12   6   0    0.42    0.38
  12   6   0    0.46    0.26
 -14  -6   0    5.41    0.77
 -14   6   0    4.30    0.54
  16  -6   0    0.46    0.30
 -16  -6   0    0.03    0.53
 -16   6   0    0.53    0.36
  16   6   0    0.23    0.39
 -18  -6   0   -0.38    0.56
  18  -6   0    0.24    0.35
  18   6   0   -0.10    0.43
 -18   6   0    0.32    0.74
  20  -6   0    0.16    0.40
 -20  -6   0   -0.30    0.64
  20   6   0   -0.20    0.48
   1  -7   0    4.62    0.46
  -1  -7   0    4.91    0.41
  -1  -7   0    4.90    0.48
   1   7   0    4.58    0.33
   1   7   0    4.76    0.36
  -1   7   0    5.45    0.34
  -1   7   0    5.00    0.36
   3  -7   0    0.14    0.23
  -3  -7   0   -0.12    0.22
  -3  -7   0    0.00    0.26
  -3   7   0    0.00    0.13
  -3   7   0   -0.02    0.17
   3   7   0    0.06    0.13
  -5  -7   0    3.10    0.46
   5  -7   0    3.68    0.38
  -5  -7   0    3.66    0.44
   5   7   0    3.20    0.30
  -7  -7   0    0.93    0.29
   7  -7   0    1.13    0.26
   7  -7   0    0.95    0.16
  -7  -7   0    0.62    0.34
   7   7   0    1.23    0.20
  -9  -7   0    0.80    0.31
   9  -7   0    1.13    0.24
   9  -7   0    1.21    0.19
  -9  -7   0    0.64    0.40
   9   7   0    1.28    0.22
  -9   7   0    0.89    0.30
 -11  -7   0    0.77    0.44
  11  -7   0    0.57    0.20
  11  -7   0    0.53    0.21
  11   7   0    0.59    0.25
 -11   7   0    0.51    0.34
 -13  -7   0   -0.15    0.47
  13  -7   0    0.12    0.22
 -13   7   0   -0.46    0.39
  13   7   0   -0.13    0.28
  15  -7   0    0.87    0.29
 -15  -7   0    0.33    0.53
  15   7   0    0.46    0.37
 -17  -7   0   -0.22    0.57
  17  -7   0    0.14    0.30
  17   7   0   -0.48    0.39
 -19  -7   0   -0.43    0.62
  19  -7   0    0.57    0.36
  19   7   0   -0.28    0.47
  21   7   0   -0.55    0.51
   0  -8   0    3.36    0.38
   0   8   0    2.97    0.30
   0   8   0    3.16    0.27
   2  -8   0    2.18    0.33
  -2  -8   0    1.61    0.28
  -2  -8   0    1.95    0.33
  -2   8   0    1.88    0.20
  -2   8   0    1.89    0.23
   2   8   0    2.17    0.22
   2   8   0    2.47    0.24
  -4  -8   0   -0.15    0.26
  -4  -8   0    0.25    0.29
   4  -8   0    0.13    0.25
  -4   8   0    0.19    0.16
  -4   8   0    0.16    0.19
   4   8   0    0.33    0.15
  -6  -8   0    7.05    0.59
   6  -8   0    6.22    0.42
  -6  -8   0    5.74    0.59
   6  -8   0    5.53    0.53
  -6   8   0    6.58    0.45
   6   8   0    5.79    0.44
  -8  -8   0    1.34    0.42
  -8  -8   0    1.63    0.37
   8  -8   0    1.57    0.20
   8  -8   0    1.12    0.28
   8   8   0    1.45    0.23
  10  -8   0    0.41    0.17
  10  -8   0    0.34    0.23
 -10  -8   0   -0.40    0.32
 -10  -8   0   -0.23    0.40
  10   8   0    0.19    0.22
 -10   8   0    0.45    0.36
 -12  -8   0    0.87    0.52
  12  -8   0    0.72    0.24
  12  -8   0    1.47    0.25
  12   8   0    1.28    0.29
 -14  -8   0    0.06    0.53
  14  -8   0    0.35    0.25
  14   8   0   -0.06    0.29
 -16  -8   0    0.06    0.57
  16  -8   0    1.06    0.33
  16   8   0    0.57    0.38
 -18  -8   0   -0.47    0.61
  18  -8   0    0.42    0.34
  18   8   0    0.74    0.45
  20  -8   0    0.66    0.43
  -1  -9   0    8.42    0.59
  -1  -9   0    7.57    0.66
   1  -9   0    7.56    0.65
  -1   9   0    8.84    0.52
  -1   9   0    8.71    0.55
   1   9   0    7.88    0.54
  -3  -9   0    1.51    0.35
  -3  -9   0    1.49    0.30
   3  -9   0    1.70    0.34
  -3   9   0    1.59    0.20
   3   9   0    1.65    0.19
   3   9   0    1.86    0.24
  -3   9   0    1.71    0.23
  -5  -9   0    3.80    0.51
   5  -9   0    4.68    0.53
  -5  -9   0    6.00    0.55
   5   9   0    5.03    0.40
  -5   9   0    5.04    0.40
   5   9   0    4.64    0.37
   7  -9   0    7.53    0.64
  -7  -9   0    6.97    0.70
  -7  -9   0    8.92    0.70
   7  -9   0    8.53    0.53
   7   9   0    7.46    0.54
  -9  -9   0    4.09    0.59
   9  -9   0    4.65    0.48
  -9  -9   0    4.94    0.53
   9  -9   0    3.62    0.35
   9   9   0    4.79    0.43
 -11  -9   0    2.45    0.55
  11  -9   0    3.19    0.36
  11  -9   0    1.93    0.33
  11   9   0    2.73    0.34
 -13  -9   0   -0.62    0.50
  13  -9   0    0.28    0.23
  13   9   0    0.20    0.32
 -15  -9   0    0.84    0.57
 -17  -9   0   -0.05    0.60
  17  -9   0    1.31    0.36
  19  -9   0    0.67    0.38
 -19  -9   0   -0.72    0.65
   0 -10   0    1.82    0.38
   0  10   0    2.01    0.21
   0  10   0    2.66    0.27
  -2 -10   0    1.77    0.32
  -2 -10   0    1.93    0.40
   2 -10   0    1.46    0.36
  -2  10   0    2.11    0.23
   2  10   0    2.23    0.27
  -2  10   0    2.45    0.26
   4 -10   0    7.42    0.66
  -4 -10   0    7.70    0.71
  -4 -10   0    7.31    0.63
  -4  10   0    7.79    0.53
   4  10   0    7.99    0.54
   4  10   0    7.51    0.57
  -4  10   0    8.01    0.54
  -6 -10   0    1.25    0.43
  -6 -10   0    1.35    0.38
   6 -10   0    0.73    0.16
   6 -10   0    0.69    0.33
  -6  10   0    1.28    0.26
   8 -10   0    0.48    0.32
   8 -10   0    0.31    0.18
  -8 -10   0    0.39    0.40
  -8 -10   0    0.35    0.42
  -8  10   0    0.60    0.24
 -10 -10   0    2.54    0.58
 -10 -10   0    3.29    0.60
  10 -10   0    2.55    0.38
 -10  10   0    2.78    0.34
 -12 -10   0    0.86    0.56
  12 -10   0    0.79    0.29
  12 -10   0    1.61    0.26
 -14 -10   0    0.58    0.57
 -16 -10   0    0.65    0.61
  16 -10   0    1.45    0.34
  18 -10   0    0.68    0.35
 -18 -10   0   -0.34    0.62
   1 -11   0    0.17    0.34
  -1 -11   0    0.35    0.37
  -1  11   0    0.14    0.22
   1  11   0   -0.11    0.22
   3 -11   0    2.98    0.45
  -3 -11   0    2.93    0.43
  -3 -11   0    2.90    0.49
  -3  11   0    3.15    0.32
   3  11   0    3.23    0.34
   5 -11   0    1.92    0.42
  -5 -11   0    3.13    0.50
  -5 -11   0    1.80    0.41
  -5  11   0    2.10    0.30
   5  11   0    2.25    0.32
  -7 -11   0    0.42    0.41
   7 -11   0    0.08    0.33
   7 -11   0    0.23    0.20
  -7 -11   0   -0.10    0.46
  -9 -11   0    1.92    0.54
   9 -11   0    2.82    0.33
   9 -11   0    1.96    0.39
  -9 -11   0    1.13    0.40
  -9  11   0    2.46    0.31
 -11 -11   0    0.68    0.56
  11 -11   0    1.07    0.32
 -13 -11   0   -0.36    0.57
  13 -11   0    1.76    0.29
  15 -11   0    1.23    0.31
 -15 -11   0    0.48    0.66
  17 -11   0    1.14    0.36
 -17 -11   0    0.12    0.67
   0 -12   0   -0.12    0.39
   0  12   0    0.41    0.26
   2 -12   0    2.39    0.47
  -2 -12   0    2.51    0.50
  -2  12   0    2.45    0.33
   2  12   0    2.74    0.34
   4 -12   0    5.90    0.68
  -4 -12   0    6.63    0.76
  -4  12   0    6.76    0.52
  -6 -12   0    4.08    0.65
   6 -12   0    2.09    0.46
  -8 -12   0    0.66    0.56
  -8 -12   0    0.60    0.47
   8 -12   0    0.54    0.37
  10 -12   0    0.00    0.32
 -10 -12   0    0.34    0.54
 -10  12   0    0.40    0.27
 -12 -12   0    0.33    0.59
  12 -12   0    0.14    0.30
 -14 -12   0   -0.75    0.63
 -16 -12   0   -0.10    0.68
   1 -13   0    2.14    0.53
  -1 -13   0    3.23    0.57
   1  13   0    3.17    0.37
  -1  13   0    2.97    0.37
  -3 -13   0    6.80    0.82
   3 -13   0    5.30    0.73
  -3  13   0    6.32    0.54
   3  13   0    7.51    0.57
   5 -13   0    1.31    0.47
  -5 -13   0    1.09    0.53
   5  13   0    1.40    0.35
  -5  13   0    1.16    0.30
   7 -13   0    4.62    0.62
  -7 -13   0    5.16    0.70
   7  13   0    5.30    0.49
  -7  13   0    3.75    0.42
  -9 -13   0    0.06    0.53
   9 -13   0   -0.36    0.35
  -9  13   0    0.48    0.27
  11 -13   0    0.09    0.34
 -11  13   0    0.15    0.27
 -13  13   0    0.54    0.29
 -15 -13   0    0.00    0.68
   0 -14   0    1.14    0.52
   2 -14   0    1.57    0.53
  -2 -14   0    2.54    0.57
   2  14   0    2.42    0.38
  -2  14   0    2.03    0.34
  -4 -14   0    0.46    0.56
   4 -14   0    0.50    0.46
   4  14   0    1.10    0.34
  -4  14   0    1.09    0.30
  -6 -14   0    0.77    0.59
   6 -14   0    0.54    0.47
   6  14   0    1.27    0.36
  -6  14   0    1.17    0.31
  -8 -14   0   -0.64    0.55
   8 -14   0   -0.19    0.40
  -8  14   0    0.00    0.27
  10 -14   0   -0.23    0.38
  12 -14   0    0.38    0.39
 -12  14   0    0.64    0.29
   1 -15   0   -0.61    0.50
  -1 -15   0   -0.64    0.52
  -1  15   0    0.49    0.30
   1  15   0    0.30    0.31
  -3 -15   0    0.45    0.55
   3 -15   0   -0.41    0.49
  -3  15   0    0.09    0.27
   5 -15   0    0.08    0.51
  -5 -15   0   -0.13    0.57
  -5  15   0    0.36    0.30
   5  15   0    0.89    0.37
   7 -15   0   -0.15    0.46
  -7 -15   0   -0.83    0.58
  -7  15   0    0.25    0.29
   7  15   0    0.19    0.37
   9 -15   0   -0.15    0.43
  -9 -15   0   -0.02    0.62
  -9  15   0    0.23    0.28
  11 -15   0   -0.65    0.39
 -11  15   0   -0.36    0.29
   0 -16   0    0.11    0.57
   0  16   0    0.67    0.35
   2 -16   0   -0.26    0.53
  -2 -16   0   -0.68    0.55
  -2  16   0   -0.24    0.31
  -4 -16   0   -0.29    0.59
   4 -16   0   -0.77    0.54
   4  16   0    0.22    0.35
   6 -16   0   -1.16    0.48
  -6 -16   0   -0.46    0.61
   6  16   0    0.26    0.38
   8 -16   0    0.65    0.49
  -8 -16   0   -0.05    0.68
   8  16   0    0.69    0.41
  -8  16   0    0.27    0.30
  10 -16   0   -0.74    0.44
 -10  16   0    0.08    0.31
  -1 -17   0   -0.79    0.59
   1 -17   0   -0.67    0.60
  -1  17   0   -0.08    0.32
   1  17   0   -0.33    0.35
  -3 -17   0   -0.19    0.61
   3 -17   0   -0.39    0.61
   3  17   0    0.37    0.37
  -3  17   0   -0.05    0.32
  -5 -17   0   -0.27    0.64
   5  17   0   -0.32    0.40
  -5  17   0   -0.04    0.31
  -7 -17   0   -0.79    0.66
  -7  17   0    0.50    0.32
   7  17   0    0.25    0.42
  -9  17   0    0.17    0.30
 -11  17   0   -0.07    0.32
   0  18   0    0.16    0.36
   2  18   0    0.44    0.42
  -2  18   0    0.37    0.38
  -4  18   0    0.59    0.36
  -6  18   0    0.21    0.35
   8  18   0    0.84    0.48
  -1  19   0   -0.01    0.39
   1  19   0   -0.01    0.38
  -3  19   0    0.71    0.38
  -5  19   0    0.17    0.38
 -22   0   1   -0.50    0.74
  22   0  -1    0.07    0.49
  20   0  -1   -0.42    0.44
 -20   0   1   -0.21    0.64
 -18   0   1    0.35    0.57
  18   0  -1   -0.08    0.37
 -16   0   1   -0.18    0.51
  16   0  -1    0.11    0.30
  14   0  -1    0.31    0.24
 -14   0   1   -0.41    0.43
  12   0  -1   -0.04    0.18
 -12   0   1   -0.13    0.38
 -10   0   1   -0.07    0.36
  10   0  -1   -0.03    0.17
   8   0  -1   -0.07    0.13
  -8   0   1    0.03    0.28
  -6   0   1    0.06    0.23
   6   0  -1    0.01    0.10
  -4   0   1   -0.23    0.23
   4   0  -1   -0.12    0.10
   2   0  -1   -0.03    0.03
  -2   0   1   -0.04    0.07
   2   0   1   -0.26    0.04
  -2   0  -1   -0.13    0.09
   2   0   1   -0.21    0.05
  -4   0  -1   -0.20    0.26
   4   0   1    0.00    0.13
  -6   0  -1   -0.20    0.23
   6   0   1   -0.07    0.11
   8   0   1   -0.23    0.14
  -8   0  -1   -0.06    0.31
  10   0   1    0.15    0.18
 -10   0  -1   -0.20    0.38
  12   0   1   -0.13    0.19
 -12   0  -1    0.05    0.41
 -14   0  -1    0.09    0.47
  14   0   1   -0.10    0.24
  16   0   1   -0.12    0.31
 -16   0  -1   -0.11    0.54
  18   0   1   -0.19    0.37
 -18   0  -1   -0.80    0.57
 -20   0  -1   -0.31    0.65
  20   0   1   -0.22    0.43
  22   0   1   -0.07    0.51
 -22   0  -1   -0.07    0.77
  21  -1  -1    0.40    0.46
 -21  -1   1   -0.65    0.66
  21   1  -1   -0.58    0.46
 -21   1   1   -1.04    0.70
  19  -1  -1    1.06    0.41
 -19  -1   1    0.23    0.59
  19   1  -1    1.10    0.46
 -19   1   1    0.39    0.62
 -17  -1   1    0.12    0.51
  17  -1  -1    0.31    0.34
  17   1  -1    0.40    0.36
 -17   1   1    0.31    0.56
  15  -1  -1    1.46    0.31
 -15  -1   1    1.15    0.51
 -15   1   1    0.73    0.50
  15   1  -1    1.64    0.32
 -13  -1   1   -0.10    0.40
  13  -1  -1    0.11    0.20
  13   1  -1    0.16    0.22
 -13   1   1   -0.51    0.42
  11  -1  -1    0.96    0.21
 -11  -1   1    1.10    0.39
 -11   1   1    0.98    0.40
  11   1  -1    1.38    0.23
  -9  -1   1    1.42    0.37
   9  -1  -1    1.36    0.20
   9   1  -1    1.63    0.22
  -9   1   1    1.83    0.38
   7  -1  -1    7.86    0.50
  -7  -1   1    8.16    0.60
  -7   1   1    8.55    0.60
   7   1  -1    7.91    0.50
  -5  -1   1   44.03    2.37
   5  -1  -1   41.78    2.32
  -5   1   1   43.79    2.36
   5   1  -1   38.91    2.32
   3  -1  -1   20.76    1.13
  -3  -1   1   22.47    1.16
   3   1  -1   18.03    1.13
  -1  -1   1   24.62    1.46
   1  -1  -1   29.71    1.46
  -1   1   1   24.92    1.45
  -1  -1  -1   10.01    0.59
   1  -1   1   11.58    0.58
   1   1   1    9.72    0.58
   3  -1   1   10.95    0.62
  -3  -1  -1   11.34    0.67
   3  -1   1   10.22    0.62
  -3   1  -1   11.72    0.67
   3   1   1   10.28    0.62
  -5  -1  -1    6.00    0.51
   5  -1   1    5.71    0.37
   5   1   1    5.36    0.38
  -5   1  -1    5.69    0.50
  -7  -1  -1   -0.03    0.27
   7  -1   1    0.57    0.13
  -7   1  -1   -0.24    0.25
   7   1   1    0.16    0.13
  -9  -1  -1    6.12    0.64
   9  -1   1    5.87    0.45
  -9   1  -1    6.31    0.64
   9   1   1    6.04    0.46
 -11  -1  -1    4.52    0.63
  11  -1   1    5.43    0.43
  11   1   1    5.06    0.44
 -11   1  -1    5.45    0.65
  13  -1   1    1.13    0.26
 -13  -1  -1    0.95    0.47
  13   1   1    1.24    0.27
 -13   1  -1    0.80    0.48
  15  -1   1    2.69    0.37
 -15  -1  -1    2.40    0.58
 -15   1  -1    2.50    0.61
  15   1   1    2.53    0.39
  17  -1   1    2.71    0.44
 -17  -1  -1    2.06    0.63
 -17   1  -1    2.23    0.66
  17   1   1    2.25    0.44
 -19  -1  -1   -0.20    0.60
  19  -1   1   -0.08    0.40
 -19   1  -1   -0.11    0.67
  19   1   1   -0.41    0.42
  21  -1   1   -0.16    0.47
 -21  -1  -1   -0.04    0.68
  21   1   1    0.47    0.51
 -21   1  -1    0.16    0.72
  22  -2  -1   -0.29    0.50
 -22  -2   1   -0.02    0.71
 -22   2   1   -0.31    0.67
  22   2  -1   -0.49    0.49
  20  -2  -1    2.00    0.47
 -20  -2   1    1.43    0.67
  20   2  -1    1.98    0.54
 -20   2   1    0.29    0.64
  18  -2  -1    1.36    0.41
 -18  -2   1    0.05    0.56
 -18   2   1    0.57    0.59
  18   2  -1    1.82    0.45
  16  -2  -1    0.12    0.29
 -16  -2   1    0.11    0.48
 -16   2   1   -0.55    0.50
  16   2  -1    0.12    0.33
 -14  -2   1    2.13    0.51
  14  -2  -1    2.53    0.33
 -14   2   1    2.02    0.55
  14   2  -1    2.82    0.36
 -12  -2   1    2.16    0.46
  12  -2  -1    2.33    0.28
  12   2  -1    2.31    0.30
 -12   2   1    2.50    0.48
 -10  -2   1    0.26    0.35
  10  -2  -1    0.33    0.17
  10   2  -1    0.30    0.19
 -10   2   1    0.55    0.37
   8  -2  -1    6.67    0.45
  -8  -2   1    6.62    0.60
  -8   2   1    7.35    0.59
   8   2  -1    6.75    0.47
   6  -2  -1    3.33    0.25
  -6  -2   1    3.28    0.38
   6   2  -1    3.26    0.26
   4  -2  -1   45.06    2.50
  -4  -2   1   49.56    2.54
   4   2  -1   43.78    2.50
  -4   2   1   42.78    2.49
  -4   2   1   46.00    2.52
  -2  -2   1   35.76    1.99
  -2   2   1   35.00    1.97
   2   2  -1   36.76    1.97
   0  -2   1    7.41    0.44
   0  -2  -1    8.19    0.45
   0   2   1    7.21    0.43
   2  -2   1   11.20    0.58
  -2  -2  -1   10.95    0.60
  -2  -2  -1    8.35    0.58
   2   2   1    9.34    0.57
   4  -2   1  130.33    7.00
   4  -2   1  118.29    7.00
  -4  -2  -1  133.32    7.03
  -4  -2  -1  141.08    7.01
  -4   2  -1  128.78    7.03
   4   2   1  116.80    7.00
   6  -2   1   11.14    0.66
  -6  -2  -1   11.78    0.75
  -6   2  -1   11.38    0.74
   6   2   1   11.19    0.68
  -8  -2  -1    4.37    0.55
   8  -2   1    5.16    0.38
   8   2   1    5.12    0.40
  -8   2  -1    5.17    0.54
  10  -2   1    2.40    0.26
 -10  -2  -1    2.52    0.45
 -10   2  -1    2.38    0.45
  10   2   1    2.31    0.28
  12  -2   1    2.96    0.32
 -12  -2  -1    2.89    0.51
  12   2   1    2.72    0.33
 -12   2  -1    3.11    0.53
 -14  -2  -1    0.37    0.48
  14  -2   1    0.27    0.25
  14   2   1    0.04    0.26
 -14   2  -1   -0.02    0.50
 -16  -2  -1    0.48    0.54
  16  -2   1    1.34    0.34
 -16   2  -1    0.46    0.58
  16   2   1    1.00    0.37
 -18  -2  -1    0.73    0.59
  18  -2   1    0.76    0.40
 -18   2  -1    1.09    0.67
  18   2   1    0.34    0.42
 -20  -2  -1   -0.02    0.66
  20  -2   1    0.54    0.44
 -20   2  -1   -0.22    0.68
  20   2   1    0.42    0.48
 -22  -2  -1    0.46    0.80
  22   2   1    0.01    0.53
 -22   2  -1   -0.74    0.70
 -21  -3   1   -0.04    0.65
  21  -3  -1    0.91    0.45
 -21   3   1    0.25    0.68
  21   3  -1    0.47    0.51
  19  -3  -1    0.72    0.40
 -19  -3   1    0.16    0.58
  19   3  -1    0.43    0.43
 -19   3   1   -0.12    0.57
 -17  -3   1    1.13    0.56
  17  -3  -1    2.91    0.43
  17   3  -1    3.22    0.47
 -17   3   1    1.92    0.59
  15  -3  -1    0.86    0.28
 -15  -3   1    0.38    0.48
 -15   3   1    0.51    0.51
  15   3  -1    0.50    0.31
  13  -3  -1    5.62    0.47
 -13  -3   1    4.27    0.60
 -13   3   1    5.03    0.69
  13   3  -1    5.70    0.50
  11  -3  -1    2.29    0.26
 -11  -3   1    2.34    0.44
 -11   3   1    2.49    0.44
  11   3  -1    2.07    0.28
   9  -3  -1    8.62    0.53
  -9  -3   1    7.40    0.69
   9   3  -1    8.89    0.56
  -9   3   1    6.74    0.63
  -7  -3   1    6.19    0.51
   7  -3  -1    4.78    0.35
   7   3  -1    5.08    0.37
  -7   3   1    4.37    0.41
   5  -3  -1    6.85    0.42
  -5  -3   1    6.68    0.50
   5  -3  -1    6.29    0.40
   5   3  -1    6.32    0.40
  -5   3   1    5.68    0.45
  -3  -3   1   23.94    1.35
   3   3  -1   24.67    1.31
  -3   3   1   22.76    1.31
  -3   3   1   22.95    1.32
   1  -3  -1   55.89    3.01
  -1  -3   1   59.51    3.00
  -1  -3   1   54.73    2.99
  -1   3   1   54.74    2.98
   1   3  -1   48.85    2.98
  -1   3   1   52.26    2.98
  -1  -3  -1   68.71    3.73
   1  -3   1   63.52    3.74
   1  -3   1   69.99    3.75
  -1  -3  -1   73.96    3.75
   1   3   1   64.27    3.73
   3  -3   1   16.04    0.89
  -3  -3  -1   17.69    0.92
  -3   3  -1   14.15    0.91
   3   3   1   13.54    0.87
  -5  -3  -1   35.65    1.85
   5  -3   1   30.08    1.79
   5  -3   1   32.15    1.80
  -5  -3  -1   34.51    1.81
   5   3   1   29.60    1.80
   7  -3   1   21.67    1.27
  -7  -3  -1   22.74    1.35
   7  -3   1   23.90    1.27
   7   3   1   22.01    1.28
  -7   3  -1   21.91    1.34
   9  -3   1   12.96    0.76
  -9  -3  -1   10.30    0.88
  -9   3  -1   12.01    0.87
   9   3   1   13.41    0.78
  11  -3   1    4.15    0.39
 -11  -3  -1    4.77    0.56
  11   3   1    3.96    0.43
 -11   3  -1    4.38    0.59
 -13  -3  -1    2.29    0.52
  13  -3   1    2.61    0.32
  13   3   1    2.18    0.34
 -13   3  -1    3.04    0.56
 -15  -3  -1    0.99    0.53
  15  -3   1    1.54    0.32
 -15   3  -1    1.75    0.59
  15   3   1    1.52    0.37
 -17  -3  -1    1.95    0.62
  17  -3   1    2.59    0.44
  17   3   1    2.71    0.49
 -17   3  -1    1.31    0.63
  19  -3   1    0.30    0.40
 -19  -3  -1    0.45    0.64
 -19   3  -1    0.20    0.62
  19   3   1    0.03    0.46
  21  -3   1    1.04    0.51
 -21  -3  -1    0.73    0.72
 -21   3  -1   -0.20    0.64
  21   3   1    0.29    0.50
  22   4  -1   -0.27    0.55
 -22   4   1   -0.59    0.64
  20  -4  -1    0.68    0.45
 -20  -4   1   -0.24    0.60
  20   4  -1    0.29    0.50
 -20   4   1    0.13    0.60
 -18  -4   1    1.03    0.59
  18  -4  -1    1.78    0.41
  18   4  -1    1.50    0.48
 -18   4   1    1.20    0.57
  16  -4  -1    2.04    0.36
 -16  -4   1    0.92    0.53
  16   4  -1    1.77    0.40
 -16   4   1    1.35    0.53
  14  -4  -1    0.58    0.25
 -14  -4   1    0.10    0.44
  14   4  -1    0.69    0.30
 -14   4   1    0.35    0.47
  12  -4  -1   13.80    0.79
 -12  -4   1   10.05    0.92
  12   4  -1   13.82    0.83
 -12   4   1   11.39    0.91
  10  -4  -1    7.55    0.50
 -10  -4   1    6.13    0.66
  10   4  -1    7.39    0.53
  -8  -4   1    1.83    0.37
   8  -4  -1    1.31    0.19
   8   4  -1    1.46    0.22
  -8   4   1    2.29    0.33
   6  -4  -1    1.61    0.17
  -6  -4   1    1.18    0.30
   6  -4  -1    1.77    0.22
   6   4  -1    1.64    0.18
  -4  -4   1   26.40    1.41
  -4  -4   1   20.81    1.38
   4  -4  -1   24.88    1.39
  -4   4   1   25.88    1.37
  -4   4   1   24.12    1.36
   4   4  -1   24.31    1.36
   2  -4  -1    7.84    0.58
  -2  -4   1    9.83    0.57
  -2  -4   1    9.27    0.56
   2   4  -1    7.15    0.51
  -2   4   1    9.29    0.52
  -2   4   1    9.37    0.53
   0  -4   1   31.70    1.75
   0  -4  -1   32.17    1.77
   0  -4   1   33.16    1.76
   0   4   1   30.42    1.73
   0   4   1   30.01    1.73
   0   4  -1   30.19    1.72
   2  -4   1   28.99    1.71
   2  -4   1   30.31    1.73
  -2  -4  -1   33.10    1.72
  -2  -4  -1   31.48    1.74
  -2   4  -1   29.90    1.70
  -2   4  -1   31.65    1.70
   2   4   1   29.74    1.70
  -4  -4  -1   23.66    1.32
   4  -4   1   23.73    1.30
  -4   4  -1   21.82    1.31
   4   4   1   22.24    1.28
  -6  -4  -1    3.81    0.32
   6  -4   1    2.87    0.26
  -6  -4  -1    4.35    0.43
   6  -4   1    3.20    0.30
  -6   4  -1    3.13    0.35
   6   4   1    3.10    0.30
   8  -4   1    4.08    0.34
   8  -4   1    4.10    0.35
  -8  -4  -1    4.80    0.55
  -8   4  -1    3.43    0.42
   8   4   1    4.26    0.38
 -10  -4  -1   13.61    1.05
  10  -4   1   15.84    0.91
  10   4   1   15.27    0.93
 -10   4  -1   15.71    1.02
  12  -4   1    6.05    0.48
 -12  -4  -1    4.60    0.62
 -12   4  -1    4.47    0.66
  12   4   1    6.43    0.52
  14  -4   1    4.14    0.47
 -14  -4  -1    2.93    0.58
 -14   4  -1    3.56    0.62
  14   4   1    3.71    0.44
  16  -4   1    0.41    0.31
 -16  -4  -1    0.54    0.54
  16   4   1    0.48    0.38
 -16   4  -1    0.38    0.53
  18  -4   1    2.13    0.42
 -18  -4  -1    0.19    0.60
 -18   4  -1    0.73    0.60
  18   4   1    1.51    0.49
  20  -4   1    0.86    0.46
 -20  -4  -1   -0.11    0.66
 -20   4  -1    0.13    0.64
  20   4   1    0.52    0.50
 -22   4  -1   -0.24    0.69
  21  -5  -1    0.64    0.47
 -21  -5   1   -0.72    0.64
  21   5  -1    0.01    0.53
 -19  -5   1    0.60    0.62
  19  -5  -1    1.96    0.44
 -19   5   1    1.00    0.53
  19   5  -1    2.32    0.53
  17  -5  -1    1.92    0.38
 -17  -5   1    1.42    0.59
 -17   5   1    1.56    0.55
  17   5  -1    1.77    0.44
  15  -5  -1    4.40    0.49
 -15  -5   1    2.65    0.59
 -15   5   1    3.22    0.55
  15   5  -1    4.54    0.48
 -13  -5   1    4.44    0.64
  13  -5  -1    5.69    0.50
  13   5  -1    6.04    0.56
  11  -5  -1   13.24    0.81
 -11  -5   1   10.88    0.93
  11   5  -1   14.19    0.83
 -11   5   1   12.96    0.91
  -9  -5   1    2.69    0.43
   9  -5  -1    2.14    0.23
   9  -5  -1    2.08    0.25
  -9   5   1    3.08    0.42
   9   5  -1    2.21    0.26
   7  -5  -1    0.36    0.13
   7  -5  -1    0.27    0.19
  -7  -5   1    0.81    0.21
  -7  -5   1    0.94    0.35
  -7   5   1    0.82    0.19
   7   5  -1    0.42    0.17
  -7   5   1    0.88    0.26
  -5  -5   1   14.52    0.98
  -5  -5   1   17.99    1.02
   5  -5  -1   16.45    0.98
   5   5  -1   16.91    0.94
  -3  -5   1   14.09    0.80
  -3  -5   1   12.95    0.80
   3  -5  -1   11.89    0.80
  -3   5   1   13.39    0.76
  -3   5   1   13.66    0.75
   3   5  -1   12.42    0.75
  -1  -5   1   21.99    1.25
  -1  -5   1   22.48    1.26
   1  -5  -1   21.46    1.27
   1   5  -1   20.87    1.22
  -1   5   1   22.63    1.22
  -1   5   1   21.73    1.22
  -1  -5  -1   27.11    1.51
   1  -5   1   27.08    1.50
   1  -5   1   25.90    1.47
   1   5   1   25.81    1.46
  -1   5  -1   25.87    1.46
   1   5   1   25.71    1.45
   3  -5   1   28.80    1.69
  -3  -5  -1   30.21    1.70
  -3  -5  -1   32.11    1.69
   3   5   1   28.31    1.66
   5  -5   1    9.57    0.69
  -5  -5  -1   12.82    0.75
  -5   5  -1   11.55    0.72
  -5   5  -1   11.93    0.66
   5   5   1    9.73    0.67
   7  -5   1   13.78    0.84
  -7  -5  -1   13.29    0.85
  -7  -5  -1   14.11    0.93
   7  -5   1   14.44    0.82
   7   5   1   13.90    0.84
  -7   5  -1   13.62    0.90
   9  -5   1    5.58    0.40
   9  -5   1    4.85    0.40
  -9  -5  -1    3.88    0.59
   9   5   1    5.19    0.43
  11  -5   1    7.86    0.52
 -11  -5  -1    5.88    0.73
  11   5   1    8.02    0.57
 -11   5  -1    6.10    0.62
  13  -5   1    7.16    0.55
 -13  -5  -1    5.05    0.77
  13   5   1    6.74    0.61
 -13   5  -1    6.72    0.73
  15  -5   1    1.17    0.32
 -15  -5  -1    0.76    0.55
  15   5   1    0.98    0.38
 -15   5  -1    1.37    0.55
 -17  -5  -1    0.93    0.61
  17  -5   1    1.30    0.37
 -17   5  -1    1.02    0.55
  17   5   1    0.76    0.43
 -19  -5  -1    0.61    0.64
  19  -5   1    2.24    0.46
 -19   5  -1    1.22    0.63
  19   5   1    2.16    0.54
 -21  -5  -1    0.03    0.72
  21  -5   1    0.94    0.47
 -21   5  -1    0.52    0.62
  21   5   1    1.19    0.56
 -20  -6   1   -0.32    0.62
  20  -6  -1    1.10    0.42
  20   6  -1    0.76    0.52
  18  -6  -1    0.90    0.36
 -18  -6   1    0.37    0.59
  18   6  -1    0.32    0.44
 -16  -6   1    1.51    0.57
  16  -6  -1    2.54    0.38
 -16   6   1    1.51    0.46
  16   6  -1    2.21    0.44
 -14  -6   1    3.56    0.62
  14  -6  -1    5.21    0.49
 -14   6   1    3.58    0.58
  14   6  -1    5.05    0.57
  12  -6  -1    0.78    0.22
 -12  -6   1    0.49    0.45
  12   6  -1    1.43    0.28
 -12   6   1    1.57    0.41
  10  -6  -1   13.18    0.76
 -10  -6   1    9.88    0.89
  10  -6  -1   11.96    0.76
 -10   6   1   12.14    0.84
  10   6  -1   13.35    0.78
  -8  -6   1    5.84    0.60
  -8  -6   1    6.37    0.49
   8  -6  -1    5.98    0.42
   8  -6  -1    4.89    0.46
   8   6  -1    5.46    0.43
  -8   6   1    6.62    0.50
  -6  -6   1    7.51    0.60
  -6  -6   1    6.51    0.52
   6  -6  -1    6.06    0.51
   6   6  -1    6.93    0.46
  -4  -6   1    2.96    0.31
   4  -6  -1    1.63    0.29
  -4  -6   1    2.72    0.32
   4   6  -1    2.11    0.22
  -4   6   1    2.45    0.23
   4   6  -1    1.89    0.20
  -4   6   1    2.93    0.24
  -2  -6   1   33.24    1.81
  -2  -6   1   31.86    1.82
   2  -6  -1   30.96    1.83
  -2   6   1   31.71    1.78
   2   6  -1   31.45    1.77
  -2   6   1   32.43    1.78
   0  -6   1   72.52    3.99
   0  -6   1   71.67    4.01
   0  -6  -1   72.10    4.02
   0   6   1   69.64    3.96
   0   6   1   76.91    3.97
   0   6  -1   70.66    3.96
   2  -6   1    5.46    0.39
   2  -6   1    5.94    0.45
  -2  -6  -1    4.73    0.47
  -2  -6  -1    5.34    0.41
   2   6   1    5.48    0.36
  -2   6  -1    5.40    0.35
  -2   6  -1    5.25    0.37
  -4  -6  -1   15.84    0.98
   4  -6   1   15.39    0.96
  -4  -6  -1   15.53    0.98
   4   6   1   16.10    0.92
  -4   6  -1   16.17    0.96
  -6  -6  -1   10.47    0.72
   6  -6   1    9.53    0.66
   6   6   1    9.90    0.62
  -6   6  -1    9.35    0.68
  -8  -6  -1    7.48    0.70
   8  -6   1    8.62    0.59
   8  -6   1    9.62    0.56
  -8  -6  -1    8.47    0.62
  -8   6  -1    8.09    0.65
   8   6   1    8.68    0.58
  10  -6   1    1.31    0.21
  10  -6   1    1.23    0.23
 -10  -6  -1    0.66    0.42
  10   6   1    1.32    0.25
 -10   6  -1    1.55    0.37
 -12  -6  -1    3.01    0.55
  12  -6   1    1.94    0.28
  12  -6   1    2.50    0.30
 -12   6  -1    2.84    0.40
  12   6   1    2.41    0.34
 -14  -6  -1    2.20    0.61
  14  -6   1    4.12    0.42
  14   6   1    4.19    0.46
 -16  -6  -1    0.28    0.56
  16  -6   1    0.84    0.33
  16   6   1    0.67    0.40
 -16   6  -1    1.21    0.54
 -18  -6  -1    0.36    0.61
  18  -6   1    1.07    0.39
 -18   6  -1    0.84    0.56
  18   6   1    0.65    0.45
  20  -6   1    0.77    0.44
 -20  -6  -1    0.40    0.67
  20   6   1    0.12    0.49
 -19  -7   1   -0.64    0.59
  19  -7  -1    0.64    0.37
  19   7  -1   -0.63    0.45
  17  -7  -1    1.44    0.36
 -17  -7   1    0.54    0.58
  17   7  -1    1.55    0.44
  15  -7  -1    2.47    0.35
 -15  -7   1    1.13    0.57
  15   7  -1    2.59    0.41
 -13  -7   1    2.28    0.57
  13  -7  -1    3.50    0.36
 -13   7   1    2.71    0.69
  13   7  -1    3.48    0.39
  11  -7  -1    0.39    0.18
 -11  -7   1    1.04    0.46
  11  -7  -1    0.36    0.21
  11   7  -1    0.49    0.23
 -11   7   1    0.98    0.35
  -9  -7   1    7.25    0.58
   9  -7  -1    6.74    0.54
  -9  -7   1    6.04    0.68
   9  -7  -1    7.91    0.51
   9   7  -1    7.52    0.51
  -9   7   1    7.34    0.58
  -7  -7   1    8.13    0.68
   7  -7  -1    8.28    0.53
  -7  -7   1    8.54    0.61
   7  -7  -1    7.83    0.60
   7   7  -1    8.29    0.54
  -7   7   1    7.85    0.53
   5  -7  -1    3.53    0.40
  -5  -7   1    4.51    0.48
  -5  -7   1    4.38    0.44
  -5   7   1    4.18    0.35
  -5   7   1    4.29    0.34
   5   7  -1    3.36    0.31
   3  -7  -1   12.11    0.86
  -3  -7   1   13.87    0.85
  -3   7   1   13.97    0.79
   3   7  -1   13.44    0.79
  -3   7   1   13.01    0.79
  -1  -7   1   26.29    1.51
   1  -7  -1   24.31    1.51
  -1  -7   1   26.53    1.48
   1   7  -1   24.45    1.44
  -1   7   1   27.56    1.44
  -1   7   1   24.91    1.44
  -1  -7  -1    4.26    0.50
   1  -7   1    5.43    0.48
  -1   7  -1    4.97    0.37
   1   7   1    5.51    0.36
   1   7   1    5.14    0.37
   3  -7   1    4.85    0.47
  -3  -7  -1    5.29    0.44
  -3  -7  -1    4.76    0.49
  -3   7  -1    5.05    0.37
   3   7   1    5.02    0.37
  -3   7  -1    4.72    0.38
   3   7   1    5.13    0.37
  -5  -7  -1   17.14    1.05
  -5  -7  -1   17.77    1.06
   5  -7   1   16.91    0.96
   5  -7   1   16.28    1.03
   5   7   1   16.23    0.98
  -5   7  -1   16.41    1.02
   7  -7   1    7.79    0.57
  -7  -7  -1    7.26    0.66
  -7   7  -1    7.37    0.59
   7   7   1    8.11    0.53
   9  -7   1    3.24    0.32
   9  -7   1    2.73    0.33
  -9  -7  -1    3.33    0.41
  -9  -7  -1    3.82    0.52
  -9   7  -1    3.55    0.42
   9   7   1    3.23    0.32
  11  -7   1    0.09    0.20
  11  -7   1    0.33    0.19
 -11  -7  -1    0.65    0.44
 -11   7  -1    0.76    0.37
  11   7   1    0.16    0.23
 -13  -7  -1    0.22    0.50
  13  -7   1    1.16    0.26
  13   7   1    0.92    0.31
 -13   7  -1    1.36    0.45
 -15  -7  -1    1.26    0.60
  15  -7   1    2.60    0.37
 -15   7  -1    1.63    0.47
  15   7   1    2.17    0.41
  17  -7   1    2.49    0.41
 -17  -7  -1    0.69    0.63
  17   7   1    1.31    0.44
 -19  -7  -1   -0.39    0.64
  19  -7   1    0.74    0.40
  19   7   1    0.54    0.53
  21   7   1   -0.32    0.51
  20  -8  -1    0.28    0.41
  18  -8  -1    0.72    0.35
 -18  -8   1    0.30    0.62
  16  -8  -1    1.73    0.35
 -16  -8   1    0.61    0.59
  16   8  -1    1.76    0.41
  14  -8  -1    1.79    0.31
 -14  -8   1    1.50    0.58
  14   8  -1    1.61    0.34
  12  -8  -1    3.27    0.38
  12  -8  -1    2.35    0.32
 -12  -8   1    2.15    0.55
  12   8  -1    3.46    0.36
 -10  -8   1    0.21    0.41
  10  -8  -1    0.66    0.25
  10  -8  -1    0.62    0.18
  10   8  -1    0.72    0.23
  -8  -8   1    7.30    0.61
   8  -8  -1    7.25    0.47
  -8  -8   1    6.21    0.67
   8  -8  -1    6.58    0.56
   8   8  -1    6.41    0.49
  -6  -8   1    7.39    0.65
  -6  -8   1    8.75    0.63
   6  -8  -1    6.46    0.60
  -6   8   1    7.83    0.51
   6   8  -1    7.42    0.50
   4  -8  -1    6.67    0.63
  -4  -8   1    8.16    0.63
  -4  -8   1    9.03    0.65
  -4   8   1    8.63    0.55
  -4   8   1    9.05    0.54
   4   8  -1    8.45    0.54
  -2  -8   1    6.78    0.52
  -2  -8   1    6.43    0.57
  -2   8   1    6.71    0.46
   2   8  -1    6.52    0.46
  -2   8   1    6.90    0.45
   0  -8   1    3.32    0.35
   0  -8  -1    3.09    0.39
   0  -8   1    3.31    0.43
   0   8   1    3.60    0.29
   0   8  -1    3.27    0.31
   0   8   1    2.94    0.30
  -2  -8  -1    4.07    0.42
   2  -8   1    2.67    0.35
   2  -8   1    2.45    0.32
  -2  -8  -1    2.83    0.34
  -2   8  -1    3.14    0.26
  -2   8  -1    3.08    0.30
   2   8   1    3.43    0.28
   2   8   1    2.48    0.27
  -4  -8  -1    5.08    0.56
  -4  -8  -1    5.54    0.51
   4  -8   1    6.06    0.53
   4   8   1    6.69    0.42
  -4   8  -1    5.96    0.43
   6  -8   1   15.70    1.02
  -6  -8  -1   16.90    1.06
   6  -8   1   17.02    0.94
  -6  -8  -1   15.25    1.05
   6   8   1   15.79    0.96
  -6   8  -1   16.77    0.95
  -6   8  -1   15.40    1.00
   8  -8   1    0.91    0.26
  -8  -8  -1    1.23    0.35
  -8  -8  -1    0.88    0.39
   8   8   1    1.39    0.23
  -8   8  -1    1.40    0.29
 -10  -8  -1    1.43    0.38
  10  -8   1    0.87    0.25
  10  -8   1    1.12    0.21
 -10  -8  -1    1.64    0.47
  10   8   1    1.09    0.25
 -10   8  -1    1.57    0.35
  12  -8   1    1.06    0.25
  12  -8   1    0.71    0.25
 -12  -8  -1    1.02    0.53
  12   8   1    1.08    0.31
 -12   8  -1    1.51    0.53
  14  -8   1    2.46    0.34
 -14  -8  -1    1.26    0.58
  14   8   1    2.61    0.42
 -16  -8  -1    1.38    0.64
  16  -8   1    3.23    0.43
  16   8   1    3.66    0.48
  18  -8   1    1.31    0.39
 -18  -8  -1    0.35    0.63
  18   8   1    0.44    0.44
  20  -8   1   -0.12    0.42
  19  -9  -1    0.72    0.37
 -19  -9   1   -0.38    0.64
  17  -9  -1    0.92    0.33
 -17  -9   1   -0.19    0.61
  15  -9  -1    1.21    0.31
 -15  -9   1    0.87    0.58
  13  -9  -1    0.49    0.23
 -13  -9   1    0.13    0.51
  11  -9  -1    1.09    0.29
 -11  -9   1    1.51    0.54
  11  -9  -1    2.09    0.26
  -9  -9   1    4.52    0.62
   9  -9  -1    4.18    0.51
   9  -9  -1    5.62    0.42
  -9  -9   1    5.24    0.63
   9   9  -1    4.49    0.43
   7  -9  -1    1.50    0.33
  -7  -9   1    1.74    0.42
  -7  -9   1    1.35    0.38
   7   9  -1    1.88    0.23
  -5  -9   1    5.91    0.55
  -5  -9   1    4.65    0.53
   5  -9  -1    3.97    0.52
   5   9  -1    5.47    0.41
  -5   9   1    4.89    0.41
  -5   9   1    4.90    0.41
  -3  -9   1    1.40    0.32
  -3  -9   1    2.09    0.36
   3  -9  -1    1.87    0.35
  -3   9   1    2.30    0.25
  -3   9   1    2.18    0.23
   3   9  -1    2.13    0.25
  -1  -9   1    6.24    0.52
  -1  -9   1    6.57    0.58
   1  -9  -1    6.07    0.58
   1   9  -1    6.70    0.46
  -1   9   1    6.45    0.46
  -1   9   1    6.47    0.43
   1  -9   1    5.48    0.43
   1  -9   1    5.01    0.51
  -1  -9  -1    4.79    0.51
   1   9   1    5.11    0.37
  -1   9  -1    4.67    0.38
   1   9   1    4.91    0.39
  -3  -9  -1    0.73    0.34
   3  -9   1    1.08    0.30
  -3  -9  -1    0.60    0.26
  -3   9  -1    1.00    0.18
  -3   9  -1    1.04    0.22
   3   9   1    1.04    0.17
   3   9   1    0.81    0.21
  -5  -9  -1    8.11    0.71
   5  -9   1   10.11    0.72
   5  -9   1   10.31    0.60
  -5  -9  -1   10.09    0.78
   5   9   1    9.70    0.62
  -5   9  -1    9.43    0.62
   7  -9   1    5.95    0.57
   7  -9   1    6.55    0.45
  -7  -9  -1    5.56    0.66
  -7  -9  -1    7.54    0.69
   7   9   1    6.19    0.48
  -9  -9  -1    1.61    0.47
   9  -9   1    1.45    0.20
   9  -9   1    1.79    0.33
  -9  -9  -1    2.42    0.48
   9   9   1    2.12    0.29
  11  -9   1    1.03    0.22
  11  -9   1    1.01    0.28
 -11  -9  -1    0.72    0.49
  11   9   1    0.82    0.28
  13  -9   1    1.56    0.28
 -13  -9  -1    0.66    0.56
  13   9   1    1.55    0.32
 -15  -9  -1    0.80    0.64
  15  -9   1    1.60    0.33
  15   9   1    2.20    0.45
 -17  -9  -1   -0.71    0.62
  17  -9   1    0.61    0.33
 -19  -9  -1   -0.81    0.68
  19  -9   1    0.13    0.37
 -18 -10   1   -0.56    0.64
  18 -10  -1    0.33    0.36
  16 -10  -1    0.51    0.29
 -16 -10   1    0.11    0.60
 -14 -10   1   -0.02    0.58
  14 -10  -1    0.40    0.25
  12 -10  -1    0.23    0.21
  12 -10  -1   -0.32    0.24
 -12 -10   1   -0.15    0.53
 -10 -10   1    1.37    0.54
  10 -10  -1    2.00    0.36
  10 -10  -1    3.05    0.35
 -10 -10   1    2.36    0.57
 -10  10   1    2.33    0.32
   8 -10  -1    1.90    0.22
   8 -10  -1    2.03    0.39
  -8 -10   1    1.32    0.37
  -8 -10   1    2.89    0.50
  -6 -10   1   -0.08    0.34
   6 -10  -1    0.59    0.33
  -6 -10   1    0.92    0.39
  -6  10   1    0.53    0.23
   4 -10  -1    1.00    0.35
  -4 -10   1    1.15    0.38
  -4 -10   1    0.49    0.32
   4  10  -1    1.34    0.24
  -4  10   1    0.99    0.23
  -4  10   1    0.40    0.20
  -2 -10   1    2.36    0.40
  -2 -10   1    1.57    0.33
   2 -10  -1    2.15    0.39
   2  10  -1    2.47    0.28
  -2  10   1    1.96    0.23
  -2  10   1    2.31    0.27
   0 -10   1    2.66    0.33
   0 -10  -1    2.43    0.41
   0 -10   1    3.16    0.42
   0  10   1    2.66    0.29
   0  10  -1    2.59    0.28
   0  10   1    2.63    0.28
  -2 -10  -1    1.98    0.40
   2 -10   1    2.05    0.36
  -2  10  -1    1.54    0.21
   2  10   1    2.24    0.26
  -2  10  -1    1.93    0.26
  -4 -10  -1    1.09    0.39
   4 -10   1    1.27    0.34
  -4 -10  -1    0.32    0.31
  -4  10  -1    1.00    0.24
   4  10   1    1.11    0.25
   4  10   1    0.94    0.18
   6 -10   1    0.00    0.12
   6 -10   1   -0.17    0.29
  -6 -10  -1    0.15    0.33
  -6 -10  -1   -0.01    0.40
  -6  10  -1    0.30    0.23
   6  10   1    0.06    0.19
   8 -10   1    7.93    0.70
  -8 -10  -1    8.16    0.81
   8 -10   1    9.21    0.59
  -8 -10  -1   10.63    0.84
   8  10   1    9.12    0.67
  -8  10  -1    9.07    0.61
 -10 -10  -1    2.05    0.50
  10 -10   1    2.55    0.29
  10 -10   1    1.69    0.34
 -10 -10  -1    1.49    0.55
  12 -10   1    0.46    0.22
 -12 -10  -1    0.00    0.52
  12 -10   1    0.29    0.26
  14 -10   1    1.24    0.29
 -14 -10  -1    0.16    0.56
  16 -10   1    0.34    0.30
 -16 -10  -1   -0.81    0.57
 -18 -10  -1   -1.12    0.62
  18 -10   1    0.50    0.36
 -17 -11   1   -0.28    0.65
  17 -11  -1    0.20    0.31
  15 -11  -1    0.27    0.27
 -15 -11   1   -0.79    0.57
 -13 -11   1   -0.52    0.55
  13 -11  -1    0.54    0.24
 -11 -11   1    0.39    0.53
  11 -11  -1    0.22    0.31
  11 -11  -1    0.59    0.21
  -9 -11   1    0.22    0.47
   9 -11  -1    0.40    0.19
   9 -11  -1    0.17    0.33
  -9 -11   1   -0.64    0.24
  -7 -11   1    0.37    0.41
   7 -11  -1   -0.15    0.33
  -7 -11   1   -0.02    0.43
   7 -11  -1    0.43    0.16
  -7  11   1   -0.05    0.24
   7  11  -1    0.03    0.29
   5 -11  -1    0.99    0.39
  -5 -11   1    0.83    0.38
  -5 -11   1    1.25    0.43
   5  11  -1    1.64    0.28
  -5  11   1    0.76    0.23
  -5  11   1    1.06    0.26
   3 -11  -1   -0.06    0.34
  -3 -11   1   -0.32    0.30
  -3 -11   1    0.14    0.36
  -3  11   1   -0.04    0.18
  -3  11   1   -0.10    0.22
   3  11  -1   -0.17    0.23
  -1 -11   1    0.32    0.35
   1 -11  -1    0.08    0.35
  -1 -11   1    0.01    0.30
   1  11  -1    0.17    0.22
  -1  11   1    0.37    0.23
  -1  11   1    0.11    0.22
  -1 -11  -1    0.28    0.37
   1 -11   1    0.21    0.33
  -1  11  -1   -0.06    0.22
  -3 -11  -1    1.25    0.44
   3 -11   1    0.77    0.35
   3  11   1    0.87    0.26
  -3  11  -1    0.73    0.25
   5 -11   1    0.06    0.34
  -5 -11  -1   -0.40    0.33
  -5 -11  -1   -0.41    0.42
  -5  11  -1   -0.03    0.24
   5  11   1    0.02    0.26
  -7 -11  -1    0.03    0.38
   7 -11   1    0.08    0.33
  -7 -11  -1   -0.19    0.44
  -7  11  -1   -0.11    0.25
  -9 -11  -1   -0.06    0.49
   9 -11   1    0.14    0.31
  -9 -11  -1   -0.01    0.46
 -11 -11  -1    0.70    0.57
  11 -11   1    0.61    0.31
  13 -11   1    0.41    0.30
 -13 -11  -1   -0.21    0.60
  15 -11   1    0.49    0.33
 -15 -11  -1   -0.34    0.59
 -17 -11  -1   -0.40    0.63
  17 -11   1    0.61    0.38
 -16 -12   1   -0.47    0.63
 -14 -12   1   -0.53    0.56
 -12 -12   1   -0.37    0.53
  12 -12  -1   -0.33    0.29
  10 -12  -1    0.05    0.34
 -10 -12   1   -0.21    0.51
 -10  12   1    0.05    0.27
   8 -12  -1    0.92    0.40
  -8 -12   1    0.63    0.48
  -8 -12   1    1.34    0.54
  -8  12   1    1.46    0.29
  -6 -12   1   -0.18    0.41
   6 -12  -1    0.33    0.38
  -6 -12   1    0.14    0.49
   6  12  -1    0.15    0.29
  -6  12   1    0.40    0.26
   4 -12  -1    0.03    0.39
  -4 -12   1    0.17    0.43
  -4  12   1    0.15    0.26
   4  12  -1   -0.07    0.28
  -2 -12   1    0.12    0.40
   2 -12  -1   -0.18    0.39
  -2  12   1    0.74    0.26
   2  12  -1    0.72    0.27
   0 -12   1    0.22    0.40
   0 -12  -1    0.31    0.41
   0  12   1    0.34    0.26
   0  12  -1    0.23    0.25
  -2 -12  -1    0.37    0.43
   2 -12   1    0.75    0.38
  -2  12  -1    0.84    0.25
   2  12   1    0.64    0.27
  -4 -12  -1    0.81    0.50
   4 -12   1    0.25    0.37
  -4  12  -1    0.55    0.26
   4  12   1    0.20    0.29
  -6 -12  -1   -0.17    0.52
   6 -12   1    0.39    0.39
  -6  12  -1    0.50    0.27
   6  12   1    0.18    0.31
   8 -12   1    0.99    0.39
  -8 -12  -1    1.66    0.57
  -8  12  -1    1.39    0.29
 -10 -12  -1   -0.19    0.50
  10 -12   1   -0.46    0.30
 -10  12  -1   -0.05    0.25
 -12 -12  -1   -0.75    0.53
  12 -12   1   -0.13    0.29
 -14 -12  -1   -1.01    0.60
 -16 -12  -1   -1.06    0.64
 -15 -13   1   -0.30    0.64
 -13 -13   1   -0.53    0.63
 -11 -13   1   -0.52    0.60
  11 -13  -1   -0.12    0.35
 -11  13   1    0.00    0.27
   9 -13  -1   -0.15    0.37
  -9 -13   1   -0.31    0.52
  -9  13   1   -0.02    0.26
   7 -13  -1   -0.18    0.40
  -7 -13   1   -0.42    0.51
   7  13  -1    0.41    0.31
   5 -13  -1    0.86    0.46
  -5 -13   1    0.52    0.51
   5  13  -1    1.14    0.34
  -5  13   1    1.22    0.29
   3 -13  -1    0.21    0.44
  -3 -13   1    0.15    0.45
   3  13  -1    0.74    0.30
  -3  13   1    0.09    0.28
   1 -13  -1   -0.75    0.44
  -1 -13   1    0.08    0.45
   1  13  -1    0.24    0.27
  -1  13   1    0.36    0.28
  -1 -13  -1    0.48    0.48
   1 -13   1    0.77    0.44
   1  13   1    1.13    0.31
  -1  13  -1    0.38    0.27
  -3 -13  -1    0.62    0.51
   3 -13   1    1.02    0.45
   3  13   1    0.97    0.31
  -3  13  -1    0.96    0.28
   5 -13   1   -0.54    0.40
  -5 -13  -1   -1.06    0.49
  -5  13  -1   -0.27    0.26
   7 -13   1   -0.05    0.39
  -7 -13  -1   -0.14    0.55
  -7  13  -1    0.46    0.27
  -9 -13  -1   -0.39    0.56
   9 -13   1   -0.15    0.35
  -9  13  -1   -0.34    0.26
  11 -13   1   -0.48    0.32
 -14  14   1   -0.16    0.29
  12 -14  -1   -0.10    0.38
 -12  14   1    0.16    0.29
  10 -14  -1   -0.67    0.37
  -8 -14   1   -0.17    0.57
   8 -14  -1   -0.24    0.42
  -6 -14   1   -0.23    0.53
   6 -14  -1   -0.30    0.45
  -6  14   1    0.07    0.27
   6  14  -1   -0.04    0.33
   4 -14  -1    0.31    0.47
  -4 -14   1    0.66    0.55
  -4  14   1    0.42    0.28
   4  14  -1    0.74    0.32
  -2 -14   1    0.41    0.53
   2 -14  -1    0.39    0.49
   2  14  -1    1.41    0.32
  -2  14   1    1.08    0.31
   0 -14  -1    0.47    0.50
   0 -14   1    0.54    0.48
   0  14   1    0.51    0.29
   0  14  -1    0.48    0.30
  -2 -14  -1    0.31    0.52
   2 -14   1    0.08    0.46
  -2  14  -1    0.33    0.28
   2  14   1    0.90    0.33
   4 -14   1   -0.09    0.46
  -4 -14  -1    0.28    0.58
   4  14   1    0.52    0.33
  -4  14  -1    0.48    0.28
   6 -14   1   -0.07    0.43
  -6 -14  -1    0.47    0.61
  -8 -14  -1   -0.88    0.57
   8 -14   1   -0.59    0.38
  -8  14  -1    0.44    0.29
  10 -14   1   -0.41    0.37
 -10  14  -1   -0.10    0.27
  12 -14   1   -0.27    0.35
  11 -15  -1   -0.60    0.40
 -11  15   1    0.22    0.30
   9 -15  -1   -0.45    0.41
  -9 -15   1   -0.47    0.62
   9  15  -1    0.01    0.39
  -9  15   1   -0.11    0.28
  -7 -15   1    0.19    0.60
   7 -15  -1   -0.04    0.48
   7  15  -1    1.06    0.39
  -7  15   1    0.93    0.31
   5 -15  -1   -0.29    0.49
  -5 -15   1    0.98    0.61
  -5  15   1    0.09    0.30
   5  15  -1    0.58    0.35
   3 -15  -1   -0.17    0.51
  -3 -15   1    0.11    0.55
   3  15  -1    0.92    0.33
  -3  15   1    0.77    0.32
  -1 -15   1    0.53    0.54
   1 -15  -1    0.02    0.54
  -1  15   1    0.37    0.31
   1  15  -1    0.84    0.32
  -1 -15  -1   -0.46    0.52
   1 -15   1   -0.37    0.51
   1  15   1    0.49    0.32
  -1  15  -1    0.07    0.30
   3 -15   1    0.05    0.51
  -3 -15  -1    0.07    0.56
  -3  15  -1    0.53    0.29
  -5 -15  -1    1.02    0.63
   5 -15   1    1.10    0.52
  -5  15  -1    1.30    0.32
   7 -15   1   -0.30    0.44
  -7 -15  -1   -0.53    0.62
  -7  15  -1    0.37    0.29
  -9 -15  -1   -0.14    0.64
   9 -15   1   -0.26    0.42
  11 -15   1   -0.40    0.40
 -12  16   1   -0.09    0.30
  10 -16  -1   -0.36    0.45
 -10  16   1    0.04    0.31
  -8 -16   1   -0.22    0.66
   8 -16  -1   -0.41    0.47
  -8  16   1    0.31    0.30
   6 -16  -1   -0.16    0.54
  -6 -16   1    0.31    0.61
  -6  16   1    0.23    0.30
   4 -16  -1   -0.79    0.53
  -4 -16   1   -0.04    0.58
   4  16  -1   -0.02    0.32
  -4  16   1    0.19    0.30
  -2 -16   1    0.16    0.57
   2 -16  -1    0.76    0.57
   2  16  -1    0.71    0.36
  -2  16   1    0.86    0.33
   0 -16   1   -0.11    0.58
   0 -16  -1    0.30    0.64
  -2 -16  -1   -0.86    0.56
   2 -16   1   -0.84    0.55
   2  16   1    0.63    0.33
  -2  16  -1   -0.09    0.29
  -4 -16  -1    0.26    0.62
   4 -16   1    0.26    0.54
   4  16   1    0.85    0.39
  -4  16  -1    0.40    0.30
   6 -16   1    0.20    0.52
  -6 -16  -1    0.05    0.64
  -6  16  -1    0.79    0.32
   6  16   1   -0.17    0.38
   8 -16   1   -0.29    0.46
  -8 -16  -1   -0.69    0.64
  -8  16  -1    0.00    0.29
  10 -16   1   -0.25    0.55
   9  17  -1    0.32    0.45
  -9  17   1    0.18    0.32
  -7 -17   1   -0.74    0.70
  -7  17   1   -0.14    0.32
   7  17  -1    0.30    0.42
  -5 -17   1   -0.61    0.71
  -5  17   1    0.02    0.31
  -3 -17   1   -0.18    0.62
   3 -17  -1   -0.45    0.62
  -3  17   1   -0.03    0.34
   3  17  -1   -0.03    0.35
   1 -17  -1   -0.14    0.64
  -1 -17   1   -0.35    0.61
   1  17  -1    0.26    0.36
  -1  17   1   -0.41    0.34
  -1 -17  -1   -0.99    0.60
   1 -17   1   -0.16    0.62
  -1  17  -1   -0.11    0.33
   1  17   1    0.44    0.36
  -3 -17  -1    0.33    0.66
   3 -17   1   -0.32    0.59
  -3  17  -1    0.48    0.32
  -5 -17  -1   -0.47    0.65
  -5  17  -1   -0.22    0.31
  -7  17  -1    0.12    0.31
  -9  17  -1    0.08    0.32
  -8  18   1    0.16    0.34
  -6  18   1   -0.13    0.33
   6  18  -1   -0.18    0.44
  -4  18   1    0.46    0.39
   4  18  -1    1.09    0.44
   2  18  -1   -0.27    0.39
  -2  18   1   -0.06    0.37
   0  18   1   -0.04    0.39
   0  18  -1   -0.27    0.34
   4  18   1    0.45    0.44
  -4  18  -1    0.38    0.34
   6  18   1    0.69    0.47
  -6  18  -1   -0.07    0.34
  -8  18  -1   -0.11    0.32
  -5  19   1    0.33    0.39
  -3  19   1    0.61    0.41
   1  19  -1   -0.16    0.41
  -1  19   1   -0.02    0.42
  -1  19  -1    0.29    0.39
   1  19   1    0.07    0.42
  -3  19  -1    0.54    0.36
   3  19   1    0.60    0.47
  -5  19  -1    0.10    0.36
   5  19   1    0.40    0.50
  22   0  -2    0.32    0.51
 -22   0   2   -0.46    0.71
  20   0  -2    0.87    0.47
 -20   0   2    0.52    0.66
 -18   0   2    4.04    0.71
  18   0  -2    4.61    0.55
 -16   0   2    4.65    0.66
 -14   0   2    6.05    0.72
  14   0  -2    6.92    0.56
 -12   0   2    7.07    0.72
  12   0  -2    8.71    0.57
  10   0  -2   27.04    1.51
 -10   0   2   25.59    1.58
   8   0  -2    7.91    0.52
  -8   0   2    8.69    0.64
   6   0  -2   17.32    1.01
  -6   0   2   17.46    1.00
  -6   0   2   18.71    1.06
  -4   0   2   17.89    1.04
   4   0  -2   16.91    1.03
  -4   0   2   20.08    1.08
  -2   0   2  193.91   10.26
  -2   0   2  182.23   10.27
   0   0   2  122.06    5.95
   0   0   2   95.75    5.95
   2   0   2   30.51    1.72
   2   0   2   31.98    1.72
   4   0   2  319.40   17.75
  -4   0  -2  334.40   17.77
   4   0   2  321.61   17.75
   6   0   2   43.93    2.53
  -6   0  -2   47.55    2.58
   8   0   2   51.81    2.92
  -8   0  -2   53.69    2.99
 -10   0  -2    7.77    0.77
  10   0   2    8.58    0.57
  12   0   2    5.71    0.48
 -12   0  -2    5.43    0.70
 -14   0  -2    7.04    0.86
  14   0   2    8.41    0.63
  16   0   2    6.10    0.65
 -16   0  -2    6.24    0.87
  18   0   2    1.79    0.45
 -18   0  -2    1.05    0.63
 -20   0  -2    0.86    0.71
  20   0   2    1.99    0.53
 -22   0  -2   -0.15    0.76
 -21  -1   2   -0.03    0.66
  21  -1  -2    0.15    0.46
 -21   1   2   -0.18    0.67
  21   1  -2    0.52    0.50
  19  -1  -2    1.07    0.42
 -19  -1   2    0.76    0.62
  19   1  -2    0.61    0.43
 -19   1   2    0.84    0.59
 -17  -1   2    1.35    0.56
  17  -1  -2    1.95    0.39
 -17   1   2    1.21    0.59
  17   1  -2    1.88    0.40
 -15  -1   2    4.92    0.72
  15  -1  -2    6.70    0.57
  15   1  -2    7.04    0.59
 -15   1   2    5.05    0.68
  13  -1  -2    4.85    0.45
 -13  -1   2    4.91    0.63
 -13   1   2    4.76    0.64
  13   1  -2    4.96    0.47
  11  -1  -2    3.60    0.34
 -11  -1   2    2.93    0.46
 -11   1   2    3.29    0.47
  11   1  -2    3.34    0.36
  -9  -1   2   10.84    0.79
   9  -1  -2   10.21    0.66
  -9   1   2   11.39    0.79
   9   1  -2   10.50    0.67
   7  -1  -2   13.40    0.82
  -7  -1   2   15.09    0.89
   7   1  -2   12.99    0.82
  -7   1   2   15.21    0.89
  -5  -1   2    2.47    0.36
  -5   1   2    1.99    0.26
  -5   1   2    2.27    0.19
  -3  -1   2   33.57    1.70
  -3   1   2   26.41    1.68
  -3   1   2   31.13    1.68
   3   1  -2   30.23    1.67
  -1  -1   2   83.17    4.65
  -1   1   2   86.76    4.64
   1  -1   2   29.25    1.61
   1  -1   2   28.62    1.60
  -1  -1  -2   29.48    1.61
   1  -1   2   29.92    1.60
   1   1   2   29.16    1.60
   1   1   2   27.98    1.60
  -3  -1  -2   35.26    1.82
   3  -1   2   31.98    1.79
   3  -1   2   30.71    1.78
   3   1   2   30.40    1.78
   3   1   2   28.97    1.79
  -3   1  -2   36.84    1.83
   5  -1   2    8.57    0.58
  -5  -1  -2   11.56    0.68
   5  -1   2    9.23    0.57
   5   1   2    8.70    0.58
  -5   1  -2   11.16    0.67
   7  -1   2   25.04    1.52
  -7  -1  -2   29.37    1.60
  -7   1  -2   28.95    1.59
   7   1   2   25.07    1.52
   9  -1   2   11.82    0.75
  -9  -1  -2   11.73    0.91
  -9   1  -2   11.74    0.89
   9   1   2   12.83    0.76
  11  -1   2    5.82    0.46
 -11  -1  -2    5.40    0.67
  11   1   2    5.59    0.48
 -11   1  -2    5.94    0.68
  13  -1   2    6.36    0.52
 -13  -1  -2    5.82    0.74
  13   1   2    6.23    0.53
 -13   1  -2    5.55    0.77
  15  -1   2    3.30    0.41
 -15  -1  -2    3.23    0.64
  15   1   2    3.30    0.42
 -15   1  -2    3.86    0.66
 -17  -1  -2    0.82    0.58
  17  -1   2    0.64    0.38
  17   1   2    0.99    0.40
 -17   1  -2    1.07    0.63
  19  -1   2    2.56    0.51
 -19  -1  -2    1.09    0.68
  19   1   2    2.23    0.51
 -19   1  -2    1.24    0.71
  21  -1   2    1.14    0.50
 -21  -1  -2    0.01    0.70
  21   1   2    0.72    0.51
 -21   1  -2    0.05    0.72
 -22  -2   2   -0.14    0.67
  22  -2  -2    0.39    0.49
 -22   2   2   -0.80    0.65
  22   2  -2    0.53    0.53
 -20  -2   2    0.19    0.59
  20  -2  -2    1.84    0.48
 -20   2   2    0.42    0.62
  20   2  -2    1.49    0.50
 -18  -2   2    0.41    0.55
  18  -2  -2    1.96    0.42
 -18   2   2    1.10    0.60
  18   2  -2    1.67    0.45
  16  -2  -2    1.01    0.32
 -16  -2   2    0.72    0.50
  16   2  -2    1.31    0.36
 -16   2   2    1.14    0.53
  14  -2  -2    4.19    0.46
 -14  -2   2    3.74    0.57
 -14   2   2    4.10    0.59
  14   2  -2    4.36    0.48
 -12  -2   2    2.68    0.46
  12  -2  -2    2.78    0.29
 -12   2   2    3.16    0.49
  12   2  -2    2.44    0.31
 -10  -2   2   10.18    0.78
  10  -2  -2    9.31    0.64
  10   2  -2   10.02    0.65
 -10   2   2   11.30    0.78
  -8  -2   2    1.24    0.34
   8  -2  -2    1.72    0.19
  -8   2   2    1.30    0.32
   8   2  -2    1.63    0.20
   6  -2  -2   22.16    1.22
  -6  -2   2   22.50    1.27
  -6   2   2   20.31    1.20
   6   2  -2   21.56    1.21
  -4  -2   2   11.10    0.70
  -4   2   2   10.89    0.67
  -4   2   2   10.86    0.64
  -4   2   2   10.01    0.62
  -2  -2   2   43.66    2.39
   2  -2  -2   44.31    2.39
  -2   2   2   41.83    2.38
   0  -2   2    1.98    0.17
   0  -2   2    1.60    0.16
   0   2   2    1.65    0.14
  -2  -2  -2    5.95    0.41
   2  -2   2    6.03    0.35
  -2  -2  -2    4.99    0.43
   2  -2   2    7.04    0.39
   2   2   2    5.86    0.38
   4  -2   2  208.60   11.83
   4  -2   2  226.26   11.84
  -4  -2  -2  223.47   11.86
   4   2   2  198.58   11.83
  -4   2  -2  226.61   11.87
   6  -2   2    9.67    0.60
  -6  -2  -2   10.88    0.70
   6  -2   2   10.34    0.59
  -6   2  -2   10.12    0.68
   6   2   2    9.11    0.61
   8  -2   2   10.21    0.72
  -8  -2  -2   13.42    0.87
   8   2   2   10.63    0.73
  -8   2  -2   13.87    0.86
 -10  -2  -2    1.05    0.40
  10  -2   2    0.68    0.19
  10   2   2    0.66    0.21
 -10   2  -2    1.25    0.41
  12  -2   2    2.59    0.31
 -12  -2  -2    2.74    0.51
  12   2   2    2.82    0.33
 -12   2  -2    2.86    0.53
 -14  -2  -2    5.91    0.73
  14  -2   2    6.18    0.55
  14   2   2    5.81    0.56
 -14   2  -2    6.05    0.81
  16  -2   2    5.13    0.58
 -16  -2  -2    3.22    0.68
  16   2   2    5.88    0.55
 -16   2  -2    3.82    0.73
  18  -2   2    3.03    0.49
 -18  -2  -2    1.25    0.64
 -18   2  -2    2.50    0.74
  18   2   2    2.58    0.49
  20  -2   2    1.12    0.47
 -20  -2  -2    0.20    0.67
 -20   2  -2    1.23    0.80
  20   2   2    2.06    0.56
 -22   2  -2    0.60    0.75
 -23   3   2   -0.71    0.73
 -21  -3   2   -0.44    0.62
  21  -3  -2    0.63    0.46
  21   3  -2    0.36    0.50
 -21   3   2   -0.54    0.57
 -19  -3   2    0.87    0.59
  19  -3  -2    1.78    0.44
  19   3  -2    1.85    0.49
 -19   3   2   -0.11    0.57
 -17  -3   2    1.06    0.54
  17  -3  -2    1.90    0.38
 -17   3   2    1.39    0.53
  17   3  -2    1.92    0.43
 -15  -3   2    2.40    0.54
  15  -3  -2    2.67    0.36
 -15   3   2    2.23    0.54
  15   3  -2    3.06    0.41
  13  -3  -2    4.73    0.43
 -13  -3   2    3.65    0.56
 -13   3   2    5.10    0.60
  13   3  -2    5.23    0.49
  11  -3  -2    3.48    0.33
 -11  -3   2    3.33    0.48
  11   3  -2    3.20    0.37
 -11   3   2    3.66    0.53
   9  -3  -2    3.22    0.28
  -9   3   2    1.87    0.29
   9   3  -2    2.72    0.31
  -7  -3   2    3.55    0.44
  -7  -3   2    2.86    0.28
   7  -3  -2    3.32    0.27
  -7   3   2    3.93    0.40
   7   3  -2    3.01    0.29
  -7   3   2    3.31    0.27
   5  -3  -2    7.25    0.47
  -5  -3   2    7.06    0.45
  -5  -3   2    8.63    0.54
  -5   3   2    7.72    0.49
   5   3  -2    6.43    0.45
  -5   3   2    7.60    0.45
  -3  -3   2    6.79    0.43
  -3  -3   2    7.54    0.50
  -3  -3   2    6.12    0.45
   3  -3  -2    6.46    0.48
  -3   3   2    7.07    0.44
  -3   3   2    7.13    0.43
  -1  -3   2   13.73    0.77
   1  -3  -2   14.38    0.79
  -1  -3   2   12.30    0.77
  -1   3   2   11.79    0.74
  -1   3   2   12.49    0.74
   1   3  -2   12.68    0.73
   1  -3   2   16.77    1.01
  -1  -3  -2   17.96    1.03
   1  -3   2   18.97    1.02
   1   3   2   16.57    1.00
   3  -3   2   12.84    0.76
   3  -3   2   15.01    0.80
   3   3   2   12.89    0.78
   5  -3   2   35.26    2.05
  -5  -3  -2   39.19    2.10
  -5  -3  -2   38.39    2.07
   5  -3   2   38.86    2.06
   5   3   2   34.88    2.06
  -5   3  -2   35.53    2.09
  -7  -3  -2   41.20    2.28
   7  -3   2   37.39    2.20
   7  -3   2   41.19    2.21
  -7   3  -2   40.15    2.27
   7   3   2   38.40    2.22
   9  -3   2    1.97    0.23
  -9  -3  -2    1.84    0.43
   9   3   2    1.95    0.26
  -9   3  -2    1.72    0.41
  11  -3   2    4.61    0.42
 -11  -3  -2    4.73    0.58
 -11   3  -2    5.08    0.63
  11   3   2    4.84    0.46
 -13  -3  -2    2.97    0.56
  13  -3   2    2.77    0.33
  13   3   2    2.70    0.36
 -13   3  -2    2.93    0.57
 -15  -3  -2    0.98    0.53
  15  -3   2    1.46    0.33
 -15   3  -2    1.12    0.59
  15   3   2    1.22    0.36
  17  -3   2    2.98    0.46
 -17  -3  -2    2.69    0.66
  17   3   2    2.79    0.51
 -17   3  -2    1.72    0.67
 -19  -3  -2    0.38    0.64
  19  -3   2    0.63    0.42
  19   3   2    0.64    0.48
 -19   3  -2    0.70    0.66
  21  -3   2    0.63    0.47
 -21  -3  -2   -0.28    0.69
 -21   3  -2    0.21    0.69
  21   3   2    0.22    0.53
  22   4  -2   -0.07    0.56
  20  -4  -2    1.19    0.44
 -20  -4   2   -0.06    0.61
  20   4  -2    0.64    0.50
 -20   4   2   -0.52    0.53
 -18  -4   2    0.35    0.54
  18  -4  -2    0.59    0.36
 -18   4   2   -0.13    0.48
  18   4  -2    0.23    0.42
  16  -4  -2    2.70    0.39
 -16  -4   2    0.84    0.51
 -16   4   2    1.30    0.50
  16   4  -2    1.95    0.40
  14  -4  -2    3.02    0.35
 -14  -4   2    2.23    0.51
  14   4  -2    3.54    0.41
 -14   4   2    2.80    0.52
 -12  -4   2    0.86    0.39
  12  -4  -2    1.31    0.22
 -12   4   2    0.46    0.23
  12   4  -2    0.74    0.25
 -10  -4   2    3.92    0.48
  10  -4  -2    3.60    0.33
  10   4  -2    3.68    0.37
 -10   4   2    3.57    0.49
   8  -4  -2    0.50    0.15
  -8  -4   2    0.42    0.33
   8   4  -2    0.75    0.18
  -8   4   2    0.35    0.18
  -8   4   2    0.27    0.27
   6  -4  -2    6.47    0.44
  -6  -4   2    5.77    0.41
  -6  -4   2    6.51    0.54
  -6   4   2    6.10    0.41
   6   4  -2    6.48    0.41
  -6   4   2    5.82    0.46
  -4  -4   2   23.46    1.22
   4  -4  -2   20.81    1.20
  -4  -4   2   18.75    1.18
  -4   4   2   21.65    1.16
   4   4  -2   19.41    1.16
  -4   4   2   20.78    1.17
  -2  -4   2    7.94    0.51
   2  -4  -2    7.86    0.52
  -2  -4   2    7.88    0.51
  -2   4   2    7.52    0.47
  -2   4   2    7.85    0.47
   2   4  -2    7.41    0.46
   0  -4   2    4.18    0.34
   0  -4   2    3.69    0.31
   0  -4  -2    3.24    0.32
   0   4  -2    3.10    0.26
   0   4   2    3.37    0.26
   2  -4   2   20.13    1.18
  -2  -4  -2   21.55    1.18
  -2  -4  -2   20.48    1.20
   2  -4   2   20.96    1.19
   2   4   2   20.40    1.16
   4  -4   2    4.54    0.30
  -4  -4  -2    5.67    0.42
  -4  -4  -2    4.67    0.37
   4  -4   2    4.84    0.35
   4   4   2    4.40    0.34
   6  -4   2   10.83    0.67
  -6  -4  -2   11.77    0.71
  -6  -4  -2   12.93    0.79
   6  -4   2   11.07    0.69
   6   4   2   10.74    0.69
   8  -4   2    8.01    0.52
  -8  -4  -2    7.11    0.68
   8  -4   2    8.01    0.53
  -8   4  -2    7.90    0.66
   8   4   2    7.60    0.55
  10  -4   2    1.06    0.19
 -10  -4  -2    0.67    0.40
  10  -4   2    1.28    0.20
 -10   4  -2    0.76    0.38
  10   4   2    0.68    0.23
 -12  -4  -2    4.78    0.69
  12  -4   2    6.11    0.48
 -12   4  -2    5.69    0.69
  12   4   2    5.79    0.52
 -14  -4  -2   -0.25    0.47
  14  -4   2    0.28    0.25
 -14   4  -2   -0.26    0.48
  14   4   2   -0.16    0.30
 -16  -4  -2    0.91    0.56
  16  -4   2    0.77    0.34
  16   4   2    1.11    0.41
 -16   4  -2    1.44    0.60
 -18  -4  -2    1.84    0.67
  18  -4   2    2.90    0.47
  18   4   2    2.77    0.53
 -18   4  -2    1.77    0.66
  20  -4   2    0.67    0.46
 -20  -4  -2    0.78    0.70
  20   4   2    0.14    0.50
 -20   4  -2    0.23    0.65
 -22   4  -2    0.52    0.73
 -21  -5   2   -0.43    0.63
  21  -5  -2    0.34    0.43
  21   5  -2   -0.63    0.49
 -19  -5   2   -0.40    0.56
  19  -5  -2    0.39    0.39
  19   5  -2   -0.28    0.46
 -17  -5   2   -0.04    0.51
  17  -5  -2    0.50    0.32
 -17   5   2   -0.24    0.59
  17   5  -2   -0.31    0.38
  15  -5  -2    1.47    0.30
 -15  -5   2    0.85    0.50
 -15   5   2    0.30    0.31
  15   5  -2    0.88    0.36
 -13  -5   2    0.18    0.41
  13  -5  -2    0.46    0.21
  13   5  -2    0.52    0.27
 -13   5   2    0.10    0.40
  11  -5  -2    1.81    0.24
 -11  -5   2    1.85    0.43
 -11   5   2    2.08    0.40
  11   5  -2    2.05    0.28
   9  -5  -2    0.57    0.19
  -9  -5   2    0.59    0.36
   9  -5  -2    0.87    0.17
   9   5  -2    0.96    0.20
  -9   5   2    0.65    0.29
  -7  -5   2    5.27    0.39
   7  -5  -2    4.97    0.35
   7  -5  -2    4.38    0.40
  -7  -5   2    4.28    0.53
  -7   5   2    4.36    0.37
   7   5  -2    4.98    0.37
   5  -5  -2    4.29    0.41
  -5  -5   2    5.02    0.48
  -5  -5   2    4.51    0.40
  -5   5   2    5.20    0.37
   5   5  -2    5.18    0.34
  -5   5   2    5.04    0.36
  -3  -5   2   17.74    1.06
  -3  -5   2   18.78    1.07
   3  -5  -2   18.44    1.08
   3   5  -2   18.32    1.02
  -3   5   2   17.79    1.03
  -3   5   2   17.99    1.03
   1  -5  -2    5.04    0.42
  -1  -5   2    5.28    0.39
  -1  -5   2    5.51    0.41
   1   5  -2    5.10    0.34
  -1   5   2    5.29    0.35
  -1   5   2    5.28    0.35
  -1  -5  -2    3.15    0.36
   1  -5   2    3.84    0.31
   1  -5   2    4.34    0.35
   1   5   2    4.11    0.28
  -1   5  -2    3.56    0.27
   3  -5   2    2.47    0.26
   3  -5   2    1.75    0.17
  -3  -5  -2    1.82    0.25
  -3  -5  -2    2.01    0.25
  -3   5  -2    2.32    0.19
   3   5   2    1.98    0.22
  -5  -5  -2   26.38    1.52
   5  -5   2   24.88    1.45
   5  -5   2   26.46    1.49
   5   5   2   26.33    1.47
  -5   5  -2   26.08    1.51
   7  -5   2    1.00    0.21
  -7  -5  -2    0.56    0.23
   7  -5   2    0.93    0.15
  -7  -5  -2    0.89    0.35
  -7   5  -2    0.74    0.20
   7   5   2    1.03    0.21
   9  -5   2    5.65    0.44
   9  -5   2    6.07    0.42
  -9  -5  -2    4.90    0.61
  -9  -5  -2    5.43    0.45
  -9   5  -2    5.06    0.52
   9   5   2    5.51    0.46
  11  -5   2    1.62    0.24
  11  -5   2    1.07    0.22
 -11  -5  -2    0.48    0.43
 -11   5  -2    1.06    0.41
  11   5   2    1.49    0.27
  13  -5   2    4.63    0.47
 -13  -5  -2    4.29    0.64
  13   5   2    5.04    0.56
 -13   5  -2    5.09    0.63
  15  -5   2    0.22    0.28
 -15  -5  -2   -0.59    0.52
  15   5   2    0.21    0.36
 -15   5  -2   -0.09    0.50
 -17  -5  -2    0.27    0.60
  17  -5   2    0.64    0.36
 -17   5  -2    0.48    0.57
  17   5   2    0.34    0.42
  19  -5   2   -0.11    0.37
 -19  -5  -2    0.00    0.63
  19   5   2   -0.05    0.47
 -19   5  -2    0.74    0.62
 -21  -5  -2   -0.18    0.72
  21  -5   2    0.26    0.46
  21   5   2   -0.09    0.53
 -21   5  -2   -0.41    0.63
  22   6  -2   -0.43    0.56
 -20  -6   2   -0.35    0.61
  20  -6  -2    0.17    0.39
  20   6  -2   -0.62    0.47
 -18  -6   2   -0.49    0.55
  18  -6  -2    0.22    0.31
  18   6  -2   -0.05    0.42
 -16  -6   2    0.02    0.51
  16  -6  -2    0.97    0.30
  16   6  -2    0.47    0.36
 -14  -6   2    2.92    0.59
  14  -6  -2    3.83    0.45
  14   6  -2    4.24    0.44
 -14   6   2    3.54    0.54
 -12  -6   2    0.31    0.43
  12  -6  -2    0.30    0.19
 -12   6   2    0.30    0.38
  12   6  -2    0.74    0.25
 -10  -6   2    0.36    0.39
  10  -6  -2    0.19    0.16
  10  -6  -2    0.44    0.20
  10   6  -2    0.16    0.20
 -10   6   2    0.39    0.30
  -8  -6   2    2.80    0.42
   8  -6  -2    1.76    0.21
   8  -6  -2    1.62    0.26
  -8  -6   2    2.13    0.28
   8   6  -2    2.00    0.23
  -8   6   2    2.22    0.24
  -6  -6   2    4.43    0.41
   6  -6  -2    4.03    0.43
  -6  -6   2    4.37    0.52
   6   6  -2    4.49    0.34
   6   6  -2    4.34    0.34
  -6   6   2    4.62    0.38
  -6   6   2    4.66    0.36
  -4  -6   2    5.80    0.50
   4  -6  -2    4.57    0.47
  -4  -6   2    5.59    0.46
  -4   6   2    5.58    0.39
   4   6  -2    5.27    0.37
  -4   6   2    5.56    0.40
   2  -6  -2    1.71    0.28
  -2  -6   2    1.74    0.26
  -2  -6   2    1.46    0.25
   2   6  -2    1.91    0.19
  -2   6   2    2.13    0.20
  -2   6   2    1.74    0.19
   0  -6   2    4.19    0.40
   0  -6   2    4.33    0.36
   0  -6  -2    4.02    0.42
   0   6  -2    4.54    0.31
   0   6   2    3.97    0.31
   2  -6   2    8.75    0.57
  -2  -6  -2    7.97    0.62
   2  -6   2    8.83    0.60
  -2   6  -2    8.98    0.54
   2   6   2    8.62    0.53
   2   6   2    9.31    0.54
   4  -6   2    5.33    0.34
  -4  -6  -2    5.00    0.47
   4  -6   2    5.28    0.45
  -4  -6  -2    4.70    0.48
  -4   6  -2    5.36    0.45
   4   6   2    5.17    0.38
   6  -6   2    2.80    0.30
   6  -6   2    1.99    0.23
  -6  -6  -2    2.56    0.38
   6   6   2    2.21    0.25
  -6   6  -2    2.29    0.33
   8  -6   2    0.45    0.20
   8  -6   2    0.31    0.14
  -8  -6  -2    0.45    0.36
  -8  -6  -2    0.47    0.24
  -8   6  -2    0.42    0.29
   8   6   2    0.56    0.21
  10  -6   2    0.23    0.19
 -10  -6  -2   -0.20    0.39
  10  -6   2    0.21    0.16
 -10  -6  -2    0.22    0.24
  10   6   2    0.33    0.22
 -10   6  -2    0.70    0.21
  12  -6   2    8.12    0.60
  12  -6   2    8.81    0.61
 -12  -6  -2    7.56    0.83
 -12   6  -2    7.07    0.71
  12   6   2   10.46    0.68
 -14  -6  -2    0.82    0.56
  14  -6   2    1.62    0.31
 -14   6  -2    1.30    0.49
  14   6   2    1.65    0.38
 -16  -6  -2    0.08    0.56
  16  -6   2    0.01    0.30
 -16   6  -2    0.34    0.52
  16   6   2    0.06    0.38
 -18  -6  -2   -0.21    0.60
  18  -6   2    0.06    0.36
 -18   6  -2    0.33    0.56
  18   6   2    0.06    0.43
 -20  -6  -2   -0.58    0.65
  20  -6   2    0.05    0.41
  20   6   2   -0.28    0.49
 -20   6  -2    0.48    0.74
 -19  -7   2   -0.97    0.59
  19  -7  -2    0.29    0.34
  19   7  -2   -0.53    0.45
  17  -7  -2    0.47    0.31
 -17  -7   2   -0.49    0.55
  17   7  -2   -0.36    0.37
 -15  -7   2    0.02    0.52
  15  -7  -2    0.71    0.28
  15   7  -2    0.07    0.32
  13  -7  -2    0.28    0.22
 -13  -7   2   -0.16    0.48
  13   7  -2   -0.21    0.26
  11  -7  -2    1.07    0.21
  11  -7  -2    0.51    0.22
 -11  -7   2    0.54    0.43
  11   7  -2    1.22    0.25
 -11   7   2    0.94    0.49
   9  -7  -2    0.57    0.24
  -9  -7   2    0.29    0.39
  -9  -7   2    0.68    0.28
   9  -7  -2    0.36    0.16
  -9   7   2    0.51    0.21
   9   7  -2    0.46    0.19
  -7  -7   2    3.52    0.41
   7  -7  -2    2.75    0.35
  -7  -7   2    3.46    0.45
   7   7  -2    2.87    0.30
  -7   7   2    3.54    0.30
  -5  -7   2    0.84    0.27
   5  -7  -2    0.01    0.26
  -5  -7   2    0.78    0.30
  -5   7   2    0.50    0.18
   5   7  -2    0.90    0.19
  -5   7   2    0.55    0.20
  -3  -7   2    0.45    0.25
   3  -7  -2    0.82    0.28
  -3  -7   2    0.54    0.26
   3   7  -2    0.74    0.18
  -3   7   2    0.69    0.18
  -3   7   2    0.60    0.17
  -1  -7   2    0.76    0.24
  -1  -7   2    1.04    0.27
   1  -7  -2    0.72    0.28
  -1   7   2    0.97    0.19
   1   7  -2    1.29    0.19
  -1   7   2    1.09    0.17
   1  -7   2    2.90    0.39
  -1  -7  -2    2.54    0.36
   1  -7   2    2.75    0.33
   1   7   2    2.66    0.27
  -1   7  -2    3.31    0.26
   1   7   2    3.04    0.26
   3  -7   2    2.33    0.31
  -3  -7  -2    1.95    0.30
   3  -7   2    2.78    0.33
  -3  -7  -2    2.65    0.35
  -3   7  -2    2.85    0.25
   3   7   2    2.34    0.28
   5  -7   2    2.40    0.32
  -5  -7  -2    2.41    0.34
   5  -7   2    2.03    0.22
  -5  -7  -2    1.81    0.33
   5   7   2    2.51    0.25
  -5   7  -2    2.10    0.31
   7  -7   2    0.06    0.21
  -7  -7  -2   -0.21    0.32
  -7  -7  -2    0.32    0.09
   7  -7   2    0.13    0.12
  -7   7  -2    0.04    0.25
   7   7   2    0.10    0.18
  -9  -7  -2    0.45    0.27
  -9  -7  -2    0.17    0.39
   9  -7   2    0.27    0.15
   9  -7   2    0.04    0.20
  -9   7  -2    0.27    0.29
   9   7   2    0.16    0.20
  11  -7   2    0.47    0.19
 -11  -7  -2    0.33    0.36
 -11  -7  -2    0.22    0.44
  11  -7   2    0.03    0.20
 -11   7  -2    0.55    0.36
  11   7   2   -0.10    0.25
 -13  -7  -2    1.08    0.53
  13  -7   2    1.86    0.29
 -13   7  -2    1.30    0.37
  13   7   2    1.17    0.34
  15  -7   2    0.17    0.28
 -15  -7  -2   -0.37    0.53
  15   7   2    0.04    0.35
 -15   7  -2    1.10    0.31
 -17  -7  -2   -0.77    0.57
  17  -7   2    0.27    0.34
 -17   7  -2    0.02    0.62
  17   7   2   -0.54    0.40
  19  -7   2   -0.04    0.38
 -19  -7  -2   -0.65    0.63
  19   7   2   -0.69    0.47
  21   7   2   -0.92    0.52
  20  -8  -2    0.59    0.40
  18  -8  -2    0.29    0.33
 -18  -8   2   -0.16    0.58
  16  -8  -2    0.38    0.28
 -16  -8   2   -0.12    0.53
 -14  -8   2   -0.26    0.49
  14  -8  -2    0.30    0.24
  14   8  -2    0.23    0.30
  12  -8  -2    0.54    0.27
  12  -8  -2    0.82    0.22
 -12  -8   2    0.43    0.47
  12   8  -2    0.44    0.26
  10  -8  -2    0.70    0.26
  10  -8  -2    0.78    0.20
 -10  -8   2    0.31    0.43
 -10  -8   2    0.20    0.32
 -10   8   2    0.43    0.24
  10   8  -2    0.73    0.22
   8  -8  -2    1.00    0.28
   8  -8  -2    1.02    0.18
  -8  -8   2    0.61    0.41
  -8  -8   2    1.21    0.33
  -8   8   2    1.05    0.24
   8   8  -2    1.19    0.20
  -6  -8   2    3.02    0.37
   6  -8  -2    1.74    0.36
  -6  -8   2    2.38    0.41
  -6   8   2    2.83    0.28
   6   8  -2    3.04    0.28
  -6   8   2    2.63    0.28
   4  -8  -2    0.95    0.31
  -4  -8   2    1.12    0.31
  -4  -8   2    1.42    0.31
   4   8  -2    1.43    0.22
  -4   8   2    1.46    0.22
  -4   8   2    1.59    0.21
  -2  -8   2    1.57    0.31
   2  -8  -2    1.62    0.33
  -2  -8   2    1.48    0.28
  -2   8   2    1.66    0.22
   2   8  -2    2.65    0.23
  -2   8   2    1.49    0.20
   0  -8   2    5.40    0.50
   0  -8  -2    4.80    0.53
   0  -8   2    5.91    0.45
   0   8  -2    5.18    0.39
   0   8   2    5.35    0.39
   0   8   2    5.63    0.39
   2  -8   2    3.72    0.38
  -2  -8  -2    2.46    0.37
   2  -8   2    2.94    0.34
  -2   8  -2    2.77    0.27
   2   8   2    2.80    0.28
   4  -8   2    6.46    0.55
  -4  -8  -2    6.44    0.54
  -4  -8  -2    6.92    0.60
   4  -8   2    6.27    0.42
   4   8   2    6.42    0.46
  -4   8  -2    6.83    0.46
   4   8   2    7.12    0.46
  -6  -8  -2    5.37    0.60
   6  -8   2    7.36    0.56
   6  -8   2    7.83    0.45
  -6  -8  -2    6.35    0.63
  -6   8  -2    6.20    0.55
   6   8   2    7.16    0.49
  -8  -8  -2    0.86    0.38
   8  -8   2    1.26    0.18
  -8  -8  -2    0.82    0.22
   8  -8   2    1.27    0.27
   8   8   2    1.05    0.23
  -8   8  -2    1.06    0.31
 -10  -8  -2    3.31    0.54
  10  -8   2    2.34    0.33
 -10  -8  -2    3.17    0.45
  10  -8   2    2.84    0.34
  10   8   2    2.40    0.33
 -10   8  -2    3.43    0.45
  12  -8   2    0.73    0.23
 -12  -8  -2   -0.19    0.49
  12  -8   2    0.56    0.25
 -12   8  -2    0.67    0.40
  12   8   2    0.82    0.29
  14  -8   2    1.04    0.28
 -14  -8  -2    0.32    0.55
  14   8   2    0.87    0.36
 -16  -8  -2   -0.29    0.58
  16  -8   2    0.35    0.31
  16   8   2   -0.13    0.38
 -18  -8  -2    0.35    0.65
  18  -8   2    1.14    0.39
  18   8   2    0.26    0.44
  20  -8   2    0.42    0.43
  20   8   2   -0.07    0.50
 -19  -9   2   -0.99    0.63
  19  -9  -2    0.26    0.35
 -17  -9   2   -0.06    0.58
  17  -9  -2    0.76    0.32
 -15  -9   2   -0.19    0.54
  15  -9  -2    1.26    0.29
 -13  -9   2    2.41    0.63
  13  -9  -2    2.61    0.33
 -11  -9   2    1.87    0.56
  11  -9  -2    1.66    0.32
  11  -9  -2    2.07    0.27
  -9  -9   2    3.00    0.55
   9  -9  -2    3.65    0.43
  -9  -9   2    3.78    0.47
   9  -9  -2    4.03    0.36
  -9   9   2    3.73    0.36
  -7  -9   2    2.09    0.36
   7  -9  -2    2.16    0.39
  -7  -9   2    3.24    0.46
   7   9  -2    3.35    0.32
  -7   9   2    3.09    0.30
  -5  -9   2    1.96    0.36
   5  -9  -2    1.14    0.36
  -5  -9   2    1.33    0.36
  -5   9   2    1.51    0.24
  -5   9   2    1.88    0.25
   5   9  -2    2.51    0.26
  -3  -9   2    5.23    0.51
  -3  -9   2    5.27    0.54
   3  -9  -2    4.33    0.54
  -3   9   2    5.66    0.40
   3   9  -2    4.94    0.40
  -3   9   2    5.75    0.41
  -1  -9   2    7.68    0.62
   1  -9  -2    6.37    0.64
  -1  -9   2    7.45    0.58
  -1   9   2    8.36    0.51
  -1   9   2    7.64    0.51
   1   9  -2    7.91    0.52
   1  -9   2    2.44    0.35
   1  -9   2    2.53    0.37
  -1  -9  -2    2.37    0.42
  -1   9  -2    3.40    0.28
   1   9   2    2.49    0.28
   1   9   2    2.89    0.27
  -3  -9  -2    5.54    0.49
   3  -9   2    6.00    0.48
  -3  -9  -2    6.25    0.61
   3  -9   2    6.22    0.54
   3   9   2    5.86    0.42
  -3   9  -2    6.37    0.44
   5  -9   2    6.56    0.58
   5  -9   2    7.06    0.44
  -5  -9  -2    5.38    0.58
  -5  -9  -2    7.10    0.66
   5   9   2    6.61    0.48
  -5   9  -2    6.09    0.54
   7  -9   2    6.40    0.42
  -7  -9  -2    5.78    0.64
   7  -9   2    6.14    0.54
  -7  -9  -2    4.13    0.62
   7   9   2    6.33    0.49
  -7   9  -2    6.08    0.54
   9  -9   2    1.50    0.31
  -9  -9  -2    2.00    0.43
  -9  -9  -2    1.78    0.46
   9  -9   2    1.54    0.23
  -9   9  -2    2.03    0.39
   9   9   2    1.59    0.29
 -11  -9  -2    1.44    0.54
  11  -9   2    2.30    0.28
  11  -9   2    1.62    0.32
  11   9   2    1.70    0.33
  13  -9   2    1.10    0.27
 -13  -9  -2    0.38    0.53
  13   9   2    1.48    0.34
  15  -9   2    1.72    0.32
 -15  -9  -2   -0.21    0.56
  15   9   2    0.44    0.39
  17  -9   2    0.09    0.33
 -17  -9  -2   -0.93    0.59
  17   9   2    0.08    0.44
 -19  -9  -2   -0.20    0.70
  19  -9   2    0.76    0.43
  18 -10  -2    0.98    0.35
 -18 -10   2   -0.25    0.67
 -16 -10   2   -0.15    0.59
  16 -10  -2    0.62    0.30
 -14 -10   2    0.94    0.62
  14 -10  -2    1.75    0.30
 -12 -10   2    2.25    0.61
  12 -10  -2    2.49    0.37
  10 -10  -2    0.95    0.33
 -10 -10   2    0.67    0.50
  10 -10  -2    1.52    0.25
   8 -10  -2   -0.54    0.31
  -8 -10   2   -0.51    0.19
  -8 -10   2   -0.26    0.40
   8 -10  -2    0.07    0.13
  -8  10   2   -0.10    0.24
  -6 -10   2    2.57    0.43
   6 -10  -2    1.95    0.39
  -6 -10   2    1.89    0.43
   6  10  -2    2.32    0.30
  -6  10   2    2.46    0.30
  -6  10   2    2.26    0.28
  -4 -10   2    3.37    0.45
  -4 -10   2    2.92    0.43
   4 -10  -2    2.51    0.43
  -4  10   2    2.99    0.34
  -4  10   2    3.92    0.33
  -2 -10   2    6.11    0.55
  -2 -10   2    5.75    0.58
   2 -10  -2    4.82    0.59
  -2  10   2    5.73    0.43
   2  10  -2    5.48    0.45
  -2  10   2    6.80    0.45
   0 -10  -2    6.88    0.68
   0 -10   2    7.24    0.63
   0 -10   2    7.18    0.58
   0  10   2    7.13    0.50
   0  10   2    7.35    0.52
   0  10  -2    8.70    0.52
   2 -10   2    4.83    0.53
  -2 -10  -2    5.32    0.61
   2 -10   2    5.00    0.46
  -2  10  -2    5.43    0.42
   2  10   2    5.12    0.42
   2  10   2    5.02    0.39
  -4 -10  -2    1.48    0.32
   4 -10   2    2.18    0.39
  -4 -10  -2    1.86    0.45
   4  10   2    1.95    0.24
   6 -10   2    0.67    0.31
  -6 -10  -2    0.46    0.34
  -6 -10  -2    0.89    0.44
   6 -10   2    0.97    0.17
   6  10   2    1.16    0.23
  -6  10  -2    0.40    0.23
  -8 -10  -2    2.63    0.51
   8 -10   2    3.08    0.33
   8 -10   2    2.67    0.40
  -8 -10  -2    3.90    0.57
   8  10   2    3.43    0.35
  10 -10   2    2.23    0.38
  10 -10   2    3.09    0.31
 -10 -10  -2    4.22    0.61
 -10 -10  -2    2.48    0.54
  10  10   2    2.89    0.36
 -12 -10  -2    0.35    0.54
  12 -10   2    0.77    0.18
  12 -10   2    0.72    0.29
  14 -10   2    1.51    0.31
 -14 -10  -2    0.38    0.57
  16 -10   2    0.66    0.32
 -16 -10  -2   -0.72    0.60
 -18 -10  -2   -0.68    0.65
  18 -10   2    1.15    0.40
 -17 -11   2   -0.43    0.64
  17 -11  -2    0.80    0.32
  15 -11  -2    0.61    0.27
 -15 -11   2   -0.47    0.60
 -13 -11   2    1.71    0.63
  13 -11  -2    2.82    0.34
  11 -11  -2    0.87    0.33
  11 -11  -2    1.92    0.27
 -11 -11   2    1.12    0.57
   9 -11  -2   -0.28    0.32
   9 -11  -2    0.19    0.11
  -9 -11   2   -0.16    0.46
  -9 -11   2   -0.59    0.32
  -9  11   2   -0.04    0.26
   9  11  -2    0.10    0.29
  -7 -11   2    0.43    0.42
   7 -11  -2    0.76    0.37
  -7 -11   2    0.88    0.42
  -7  11   2    0.96    0.27
  -5 -11   2    2.89    0.48
  -5 -11   2    2.52    0.45
   5 -11  -2    2.10    0.44
  -5  11   2    2.71    0.32
  -5  11   2    2.23    0.29
  -3 -11   2    3.04    0.48
  -3 -11   2    2.63    0.40
   3 -11  -2    2.44    0.45
  -3  11   2    2.82    0.32
  -3  11   2    2.52    0.29
   3  11  -2    2.26    0.30
  -1 -11   2    0.64    0.29
  -1 -11   2    0.81    0.38
   1 -11  -2    0.69    0.37
  -1  11   2    0.64    0.19
   1  11  -2    0.36    0.23
  -1  11   2    0.71    0.25
   1 -11   2    0.27    0.33
   1 -11   2    0.26    0.33
  -1 -11  -2    0.89    0.40
   1  11   2    0.59    0.18
  -1  11  -2    0.41    0.22
  -3 -11  -2    4.34    0.56
   3 -11   2    3.37    0.47
   3  11   2    4.18    0.39
   3  11   2    3.43    0.40
  -5 -11  -2    2.31    0.53
   5 -11   2    2.22    0.43
  -5  11  -2    2.24    0.31
   7 -11   2    0.24    0.33
  -7 -11  -2    0.87    0.51
  -7 -11  -2    0.61    0.40
  -9 -11  -2    0.48    0.49
  -9 -11  -2    2.14    0.56
   9 -11   2    0.85    0.34
 -11 -11  -2    1.46    0.59
  11 -11   2    1.71    0.36
 -13 -11  -2   -0.27    0.54
 -15 -11  -2   -0.31    0.60
 -17 -11  -2   -0.39    0.64
 -16 -12   2   -0.25    0.67
  16 -12  -2    0.88    0.32
 -14 -12   2    0.17    0.60
  14 -12  -2    0.89    0.28
 -12 -12   2    0.27    0.60
  12 -12  -2    0.93    0.25
  12 -12  -2   -0.26    0.31
 -12  12   2    0.02    0.28
  10 -12  -2   -0.17    0.34
 -10 -12   2    0.99    0.54
  -8 -12   2    1.24    0.52
   8 -12  -2    1.78    0.44
  -8 -12   2    2.12    0.58
  -8  12   2    1.71    0.30
   6 -12  -2    2.74    0.50
  -6 -12   2    3.22    0.55
  -6 -12   2    3.30    0.59
  -6  12   2    3.23    0.36
   6  12  -2    3.24    0.39
  -4 -12   2    3.29    0.52
   4 -12  -2    2.06    0.50
  -4 -12   2    2.99    0.49
   4  12  -2    3.63    0.37
  -4  12   2    3.19    0.35
  -2 -12   2    0.29    0.42
   2 -12  -2   -0.29    0.40
   2  12  -2    0.29    0.25
  -2  12   2    0.62    0.26
   0 -12   2    0.26    0.39
   0 -12  -2   -0.02    0.40
   0  12  -2    0.31    0.24
   0  12   2    0.40    0.26
  -2 -12  -2    7.56    0.78
   2 -12   2    6.35    0.69
  -2  12  -2    7.22    0.55
   2  12   2    7.39    0.57
   4 -12   2    7.35    0.73
  -4 -12  -2    7.66    0.82
   4  12   2    7.19    0.60
  -4  12  -2    7.63    0.56
  -6 -12  -2    1.46    0.53
   6 -12   2    1.17    0.40
  -8 -12  -2    1.14    0.51
   8 -12   2    0.84    0.38
  -8  12  -2    1.19    0.29
 -10 -12  -2    0.94    0.69
  10 -12   2    0.28    0.33
 -12 -12  -2   -0.31    0.65
  12 -12   2    0.01    0.31
 -14 -12  -2   -0.58    0.60
 -16 -12  -2    0.61    0.69
 -15 -13   2   -0.21    0.65
 -13 -13   2    0.26    0.62
 -11 -13   2    0.06    0.60
  11 -13  -2   -0.23    0.35
 -11  13   2    0.34    0.28
   9 -13  -2    1.86    0.46
  -9 -13   2    1.66    0.59
  -9 -13   2    1.78    0.65
  -7 -13   2    1.03    0.56
   7 -13  -2    0.29    0.43
  -7  13   2    1.03    0.28
   7  13  -2    1.41    0.34
  -5 -13   2    3.75    0.65
   5 -13  -2    3.97    0.60
  -5  13   2    3.31    0.38
   5  13  -2    4.25    0.44
  -3 -13   2    5.97    0.68
   3 -13  -2    4.05    0.64
   3  13  -2    4.89    0.48
  -3  13   2    4.43    0.44
   1 -13  -2   -0.07    0.49
  -1 -13   2    0.42    0.45
  -1  13   2    1.32    0.30
   1  13  -2    1.11    0.29
   1 -13   2    7.71    0.80
  -1 -13  -2    7.30    0.85
   1  13   2    9.13    0.62
  -1  13  -2    7.57    0.61
   3 -13   2    4.75    0.62
  -3 -13  -2    4.74    0.72
   3  13   2    4.74    0.48
  -3  13  -2    5.09    0.47
   5 -13   2    1.91    0.48
  -5 -13  -2    2.73    0.64
  -5  13  -2    2.25    0.34
   5  13   2    2.25    0.38
   7 -13   2    2.14    0.47
   9 -13   2    0.32    0.36
  -9 -13  -2    0.96    0.64
  -9  13  -2    0.68    0.27
  11 -13   2    0.23    0.35
  12 -14  -2   -0.61    0.43
  10 -14  -2   -0.42    0.38
  10  14  -2    0.13    0.37
 -10  14   2    0.23    0.29
  -8 -14   2    0.11    0.54
   8 -14  -2    0.76    0.45
  -8  14   2    0.27    0.29
  -6 -14   2    0.62    0.56
   6 -14  -2    0.28    0.47
   6  14  -2    0.76    0.34
  -6  14   2    0.73    0.29
  -4 -14   2    1.45    0.56
   4 -14  -2    1.43    0.53
   4  14  -2    2.05    0.35
  -4  14   2    1.63    0.34
   2 -14  -2   -0.18    0.49
  -2 -14   2    0.40    0.51
   2  14  -2    0.72    0.31
  -2  14   2    0.81    0.31
   0 -14  -2    0.62    0.55
   0 -14   2    0.56    0.49
   0  14  -2    0.61    0.29
  -2 -14  -2    2.07    0.65
   2 -14   2    1.48    0.53
  -2  14  -2    2.13    0.34
   2  14   2    2.48    0.39
   4 -14   2    0.74    0.48
  -4 -14  -2    1.12    0.61
  -4  14  -2    1.64    0.32
  -6 -14  -2    1.27    0.63
   6 -14   2    0.47    0.45
  -6  14  -2    1.15    0.30
   8 -14   2   -0.07    0.40
  -8 -14  -2   -0.24    0.62
  -8  14  -2    0.75    0.29
  10 -14   2   -0.09    0.38
  12 -14   2   -0.09    0.37
  11 -15  -2   -0.35    0.40
 -11  15   2    0.39    0.30
   9 -15  -2   -0.22    0.44
  -9  15   2    0.94    0.30
   7 -15  -2    0.26    0.49
  -7 -15   2    0.07    0.59
  -7  15   2    0.38    0.29
  -5 -15   2   -0.20    0.54
   5 -15  -2   -0.60    0.49
   5  15  -2    0.18    0.31
  -5  15   2    0.27    0.28
   3 -15  -2   -0.52    0.53
  -3 -15   2   -0.19    0.54
   3  15  -2    0.37    0.30
  -3  15   2    0.29    0.30
   1 -15  -2   -0.78    0.51
  -1 -15   2   -0.44    0.53
   1  15  -2    0.46    0.31
  -1  15   2    0.14    0.31
  -1 -15  -2   -0.98    0.52
   1 -15   2    0.01    0.52
   1  15   2   -0.13    0.32
  -3 -15  -2    0.19    0.61
   3 -15   2    0.08    0.52
  -3  15  -2    0.06    0.29
   5 -15   2    0.59    0.52
  -5 -15  -2    0.99    0.64
  -5  15  -2    0.70    0.31
   5  15   2    1.17    0.38
  -7 -15  -2    0.51    0.63
   7 -15   2    0.38    0.46
   7  15   2    0.99    0.39
  -9 -15  -2   -0.54    0.63
   9 -15   2   -0.72    0.39
  11 -15   2   -0.65    0.39
 -11  15  -2   -0.13    0.29
 -14  16   2    0.05    0.31
 -12  16   2    0.03    0.31
  10 -16  -2   -0.94    0.44
 -10  16   2   -0.13    0.31
   8 -16  -2   -0.16    0.50
  -8 -16   2   -0.34    0.61
  -8  16   2    0.29    0.29
   8  16  -2    0.95    0.42
  -6 -16   2   -0.72    0.59
   6 -16  -2   -0.63    0.54
  -6  16   2   -0.28    0.30
   6  16  -2    0.24    0.36
   4 -16  -2   -0.70    0.54
  -4 -16   2   -0.32    0.58
  -4  16   2    0.28    0.32
   4  16  -2    0.35    0.33
   2 -16  -2    0.41    0.58
  -2 -16   2   -0.34    0.56
   2  16  -2    0.06    0.32
  -2  16   2   -0.17    0.32
   0 -16  -2   -0.18    0.58
   0 -16   2   -0.83    0.54
   0  16   2    0.38    0.35
   0  16  -2    0.25    0.30
   2 -16   2   -0.36    0.53
  -2 -16  -2   -1.01    0.58
   2  16   2    0.19    0.39
  -2  16  -2   -0.08    0.28
  -4 -16  -2   -0.41    0.61
   4 -16   2   -0.42    0.51
  -4  16  -2    0.27    0.31
  -6 -16  -2   -0.59    0.68
   6 -16   2   -0.27    0.50
   6  16   2    0.21    0.38
   8 -16   2   -0.58    0.45
  -8 -16  -2   -0.88    0.69
  -8  16  -2    0.20    0.30
 -10  16  -2    0.50    0.30
 -11  17   2    0.01    0.31
  -7 -17   2   -0.60    0.64
   7  17  -2    0.60    0.43
  -7  17   2    0.10    0.33
  -5 -17   2   -0.32    0.67
  -5  17   2    0.00    0.31
   5  17  -2    0.11    0.37
   3 -17  -2   -1.21    0.65
  -3 -17   2   -0.58    0.65
  -3  17   2    0.15    0.34
   3  17  -2   -0.17    0.35
   1 -17  -2   -0.41    0.65
  -1 -17   2   -0.24    0.61
  -1  17   2    0.20    0.35
   1  17  -2    0.08    0.32
  -1 -17  -2   -1.25    0.63
   1 -17   2   -0.67    0.57
   1  17   2   -0.41    0.34
  -1  17  -2    0.04    0.31
  -3 -17  -2   -0.52    0.64
  -3  17  -2    0.03    0.32
   3  17   2    0.00    0.40
  -5 -17  -2   -0.73    0.69
 -11  17  -2    0.00    0.31
  -8  18   2   -0.32    0.33
   6  18  -2    0.38    0.44
  -6  18   2   -0.04    0.35
   4  18  -2    0.19    0.41
   2  18  -2    0.14    0.37
  -2  18   2   -0.27    0.42
   0  18   2    0.15    0.39
   0  18  -2   -0.17    0.35
   2  18   2    0.82    0.47
  -4  18  -2    0.11    0.32
  -8  18  -2    0.02    0.33
  -5  19   2    0.03    0.40
  -3  19   2    0.57    0.40
  -1  19   2   -0.62    0.42
   1  19  -2   -0.29    0.41
   1  19   2    0.26    0.48
  -1  19  -2    0.35    0.38
  -3  19  -2   -0.42    0.36
  -5  19  -2    0.25    0.37
 -22   0   3   -0.30    0.67
  22   0  -3    0.06    0.51
 -20   0   3   -0.50    0.61
  20   0  -3    0.04    0.42
  18   0  -3    0.15    0.37
 -18   0   3   -0.32    0.54
  16   0  -3    0.00    0.29
 -16   0   3   -0.11    0.49
 -14   0   3   -0.05    0.41
  14   0  -3   -0.22    0.22
 -12   0   3   -0.34    0.35
  12   0  -3    0.08    0.19
  10   0  -3   -0.15    0.16
 -10   0   3    0.06    0.32
  -8   0   3   -0.33    0.26
   8   0  -3   -0.02    0.12
   6   0  -3   -0.08    0.09
  -6   0   3    0.09    0.21
   4   0  -3   -0.22    0.11
  -4   0   3    0.27    0.22
  -4   0   3    0.19    0.15
  -2   0   3   -0.30    0.07
  -2   0   3   -0.09    0.06
   0   0   3    0.01    0.04
   0   0   3   -0.01    0.05
   0   0   3    0.10    0.06
   2   0   3    0.01    0.08
   2   0   3   -0.06    0.08
  -2   0  -3   -0.16    0.14
  -4   0  -3    0.02    0.28
   4   0   3   -0.07    0.14
   4   0   3    0.01    0.13
  -6   0  -3   -0.09    0.25
   6   0   3    0.15    0.12
   6   0   3   -0.09    0.10
   8   0   3    0.15    0.16
  -8   0  -3    0.28    0.34
  10   0   3    0.03    0.19
 -10   0  -3   -0.26    0.38
  12   0   3   -0.02    0.21
 -12   0  -3   -0.12    0.42
  14   0   3    0.01    0.25
 -14   0  -3   -0.09    0.49
  16   0   3   -0.39    0.31
 -16   0  -3   -0.24    0.55
  18   0   3   -0.51    0.36
 -18   0  -3    0.14    0.62
  20   0   3   -0.39    0.43
 -20   0  -3   -0.53    0.66
 -22   0  -3   -0.22    0.75
 -21  -1   3   -0.29    0.64
  21  -1  -3    0.79    0.45
  21   1  -3    0.37    0.48
 -21   1   3    0.25    0.63
  19  -1  -3    2.09    0.47
 -19  -1   3    0.91    0.60
  19   1  -3    1.99    0.47
 -19   1   3    0.39    0.58
 -17  -1   3    0.27    0.53
  17  -1  -3    0.91    0.34
  17   1  -3    0.40    0.34
 -17   1   3    0.18    0.51
  15  -1  -3    0.25    0.26
 -15  -1   3   -0.02    0.46
  15   1  -3    0.25    0.29
 -15   1   3    0.03    0.45
  13  -1  -3    0.52    0.21
 -13  -1   3    0.12    0.39
  13   1  -3    0.53    0.23
 -13   1   3    0.32    0.41
  11  -1  -3    0.56    0.18
 -11  -1   3    0.45    0.35
 -11   1   3    0.63    0.35
  11   1  -3    0.64    0.20
   9  -1  -3    1.68    0.21
  -9  -1   3    2.00    0.38
  -9   1   3    2.15    0.37
   9   1  -3    2.07    0.23
  -7  -1   3    2.50    0.21
   7  -1  -3    2.19    0.23
  -7  -1   3    3.07    0.37
  -7   1   3    2.54    0.35
  -7   1   3    2.46    0.23
   7   1  -3    2.14    0.23
  -5  -1   3    7.68    0.50
  -5  -1   3    9.05    0.58
   5   1  -3    8.79    0.50
  -5   1   3    7.94    0.50
   3   1  -3    0.34    0.09
  -3   1   3    0.86    0.17
  -3   1   3    0.38    0.13
  -1  -1   3    3.20    0.22
  -1   1   3    3.02    0.20
  -1   1   3    3.11    0.20
  -1  -1  -3   84.40    4.39
   1  -1   3   79.80    4.38
   1  -1   3   79.16    4.38
   1  -1   3   80.86    4.37
   1   1   3   77.28    4.37
   1   1   3   77.85    4.38
   3  -1   3  173.22    9.27
  -3  -1  -3  166.93    9.29
   3  -1   3  171.51    9.27
   3   1   3  166.34    9.27
  -3   1  -3  175.66    9.30
   3   1   3  164.50    9.27
   5  -1   3    9.30    0.53
  -5  -1  -3    7.84    0.62
   5  -1   3    8.78    0.53
   5   1   3    8.69    0.54
  -5   1  -3    8.42    0.63
   5   1   3    8.96    0.52
  -7  -1  -3    3.16    0.46
   7  -1   3    2.77    0.25
   7  -1   3    2.90    0.28
  -7   1  -3    3.74    0.41
   7   1   3    2.96    0.29
   9  -1   3    0.15    0.17
  -9  -1  -3    0.12    0.39
   9   1   3    0.15    0.19
  -9   1  -3    0.00    0.36
 -11  -1  -3    0.05    0.40
  11  -1   3    0.39    0.20
 -11   1  -3    0.56    0.40
  11   1   3    0.40    0.22
  13  -1   3    0.39    0.24
 -13  -1  -3    0.50    0.47
 -13   1  -3    0.17    0.48
  13   1   3    0.47    0.25
  15  -1   3   -0.13    0.28
 -15  -1  -3    0.31    0.52
  15   1   3   -0.12    0.29
 -15   1  -3   -0.10    0.54
  17  -1   3    1.96    0.43
 -17  -1  -3    1.35    0.63
 -17   1  -3    1.77    0.67
  17   1   3    1.73    0.43
  19  -1   3   -0.03    0.42
 -19  -1  -3   -0.46    0.61
 -19   1  -3   -0.08    0.70
  19   1   3   -0.24    0.44
 -21  -1  -3   -0.41    0.68
  21  -1   3    0.07    0.46
 -21   1  -3   -0.26    0.71
  21   1   3   -0.21    0.50
 -22  -2   3   -0.36    0.66
  22  -2  -3   -0.31    0.49
 -22   2   3   -0.65    0.62
  22   2  -3    0.29    0.51
 -20  -2   3   -0.28    0.58
  20  -2  -3    1.00    0.44
  20   2  -3    0.58    0.46
 -20   2   3   -0.10    0.56
 -18  -2   3    0.26    0.53
  18  -2  -3    0.62    0.37
  18   2  -3    0.35    0.38
 -18   2   3    0.15    0.52
  16  -2  -3    0.31    0.28
 -16  -2   3   -0.06    0.45
 -16   2   3    0.00    0.49
  16   2  -3   -0.11    0.31
  14  -2  -3    2.67    0.33
 -14  -2   3    2.50    0.50
 -14   2   3    2.94    0.52
  14   2  -3    2.66    0.36
  12  -2  -3    1.04    0.21
 -12  -2   3    0.92    0.39
  12   2  -3    1.10    0.23
 -12   2   3    0.88    0.38
 -10  -2   3    1.47    0.37
  10  -2  -3    1.54    0.21
 -10   2   3    1.88    0.36
  10   2  -3    1.46    0.23
  -8  -2   3    7.20    0.47
   8  -2  -3    7.20    0.48
  -8  -2   3    8.11    0.62
   8   2  -3    7.13    0.48
   6  -2  -3   10.22    0.61
  -6  -2   3   11.23    0.69
   6   2  -3    9.79    0.61
  -6   2   3   10.06    0.60
  -6   2   3   10.47    0.66
  -4  -2   3    4.27    0.37
  -4  -2   3    3.40    0.27
  -4   2   3    3.56    0.27
  -4   2   3    4.24    0.29
   4   2  -3    2.69    0.24
   2  -2  -3    6.91    0.49
  -2  -2   3    8.31    0.51
  -2   2   3    7.73    0.47
   0  -2   3   48.17    2.65
   0  -2   3   46.31    2.66
   0  -2  -3   53.16    2.67
   0   2   3   45.34    2.65
  -2  -2  -3    3.82    0.42
   2  -2   3    4.81    0.36
   2  -2   3    4.85    0.31
   2   2   3    5.05    0.34
   2   2   3    4.59    0.35
   4  -2   3    3.81    0.30
   4  -2   3    3.65    0.28
  -4  -2  -3    4.10    0.42
  -4   2  -3    4.45    0.41
   4   2   3    3.66    0.28
   4   2   3    3.54    0.30
   6  -2   3    1.78    0.21
  -6  -2  -3    1.79    0.32
   6  -2   3    1.72    0.18
  -6   2  -3    1.84    0.30
   6   2   3    1.51    0.19
   6   2   3    1.38    0.20
   8  -2   3    1.41    0.19
  -8  -2  -3    1.53    0.40
   8  -2   3    1.29    0.20
   8   2   3    1.31    0.22
  -8   2  -3    1.62    0.37
  10  -2   3    0.66    0.19
 -10  -2  -3    0.90    0.41
 -10   2  -3    0.92    0.38
  10   2   3    0.56    0.22
  12  -2   3    2.08    0.28
 -12  -2  -3    1.94    0.49
 -12   2  -3    1.86    0.49
  12   2   3    1.94    0.30
 -14  -2  -3    0.40    0.49
  14  -2   3    0.26    0.26
  14   2   3    0.20    0.28
 -14   2  -3    0.04    0.52
  16  -2   3    1.32    0.37
 -16  -2  -3    1.54    0.60
 -16   2  -3    1.49    0.64
  16   2   3    1.35    0.40
  18  -2   3    2.28    0.49
 -18  -2  -3    1.13    0.66
 -18   2  -3    2.62    0.73
  18   2   3    1.82    0.49
 -20  -2  -3   -0.03    0.67
  20  -2   3    0.28    0.43
  20   2   3   -0.09    0.47
 -20   2  -3   -0.76    0.70
 -22   2  -3    0.49    0.76
 -23   3   3   -0.39    0.74
 -21  -3   3   -0.49    0.61
  21  -3  -3    0.25    0.43
  21   3  -3    0.69    0.49
 -21   3   3   -0.08    0.63
  19  -3  -3   -0.09    0.36
 -19  -3   3    0.17    0.54
  19   3  -3   -0.53    0.40
 -19   3   3   -0.43    0.52
 -17  -3   3   -0.15    0.49
  17  -3  -3   -0.05    0.31
  17   3  -3   -0.11    0.35
 -17   3   3   -0.40    0.48
 -15  -3   3    0.78    0.46
  15  -3  -3    2.02    0.33
  15   3  -3    2.22    0.36
 -15   3   3    0.92    0.45
  13  -3  -3    6.19    0.50
 -13  -3   3    5.69    0.67
 -13   3   3    6.83    0.66
  13   3  -3    7.31    0.55
  11  -3  -3    2.01    0.24
 -11  -3   3    1.65    0.40
  11   3  -3    2.08    0.26
  -9  -3   3    3.70    0.45
   9  -3  -3    3.71    0.31
  -9   3   3    2.94    0.44
   9   3  -3    4.09    0.34
  -9   3   3    2.91    0.32
  -7  -3   3    3.67    0.44
   7  -3  -3    2.52    0.26
  -7  -3   3    2.88    0.27
   7   3  -3    2.65    0.27
  -7   3   3    3.69    0.38
  -5  -3   3    5.98    0.40
   5  -3  -3    6.22    0.42
  -5  -3   3    7.01    0.49
  -5   3   3    6.03    0.39
   5   3  -3    5.70    0.38
  -5   3   3    6.74    0.42
  -3  -3   3   30.89    1.73
   3  -3  -3   31.44    1.76
  -3  -3   3   33.39    1.77
  -3  -3   3   28.48    1.74
  -3   3   3   31.89    1.73
  -3   3   3   32.07    1.74
  -1  -3   3   12.23    0.81
  -1  -3   3   13.65    0.80
   1  -3  -3   15.90    0.83
  -1   3   3   12.58    0.78
   1   3  -3   13.57    0.77
   1  -3   3   62.17    3.54
  -1  -3  -3   65.83    3.55
   1  -3   3   64.96    3.54
   1   3   3   63.73    3.52
   3  -3   3   33.54    1.80
  -3  -3  -3   32.03    1.84
  -3  -3  -3   33.95    1.84
   3  -3   3   34.37    1.82
   3   3   3   32.30    1.82
  -3   3  -3   29.66    1.85
  -5  -3  -3   18.10    1.01
   5  -3   3   16.83    0.95
   5  -3   3   15.11    0.93
   5   3   3   15.25    0.95
  -5   3  -3   17.35    1.01
  -7  -3  -3    3.93    0.52
   7  -3   3    4.37    0.34
   7  -3   3    4.05    0.33
   7   3   3    4.17    0.37
  -7   3  -3    3.93    0.45
   9  -3   3   11.66    0.71
  -9  -3  -3   12.02    0.88
   9  -3   3   10.54    0.72
  -9   3  -3   13.59    0.87
   9   3   3   10.46    0.74
  11  -3   3    8.28    0.57
 -11  -3  -3    7.83    0.76
  11   3   3    7.25    0.59
 -11   3  -3    8.48    0.75
  13  -3   3    3.84    0.44
 -13  -3  -3    3.15    0.59
 -13   3  -3    3.36    0.59
  13   3   3    4.16    0.48
  15  -3   3    1.76    0.35
 -15  -3  -3    1.24    0.56
 -15   3  -3    0.83    0.58
  15   3   3    1.81    0.38
  17  -3   3    1.75    0.42
 -17  -3  -3    1.54    0.63
 -17   3  -3    0.45    0.64
  17   3   3    1.21    0.43
 -19  -3  -3    0.56    0.68
  19  -3   3    0.74    0.44
  19   3   3    0.46    0.45
 -19   3  -3    0.46    0.69
  21  -3   3    0.04    0.47
 -21  -3  -3    0.07    0.73
  21   3   3    0.25    0.53
 -21   3  -3   -0.47    0.76
  22   4  -3   -0.46    0.55
  20  -4  -3    1.28    0.42
 -20  -4   3    0.57    0.61
  20   4  -3    1.02    0.48
 -20   4   3    0.20    0.52
 -18  -4   3    0.53    0.54
  18  -4  -3    0.89    0.36
 -18   4   3    0.50    0.51
  18   4  -3    0.74    0.41
  16  -4  -3    1.23    0.31
 -16  -4   3    0.62    0.49
 -16   4   3    0.36    0.45
  16   4  -3    0.93    0.36
  14  -4  -3    4.14    0.43
 -14  -4   3    2.96    0.54
  14   4  -3    4.28    0.49
  12  -4  -3    7.29    0.52
 -12  -4   3    6.52    0.68
  12   4  -3    8.49    0.57
 -12   4   3    6.44    0.62
 -10  -4   3    5.36    0.60
  10  -4  -3    6.02    0.43
 -10   4   3    5.67    0.43
 -10   4   3    6.11    0.56
  10   4  -3    6.22    0.46
  -8  -4   3    3.91    0.52
  -8  -4   3    4.04    0.36
   8  -4  -3    4.33    0.34
  -8   4   3    4.29    0.35
   8   4  -3    4.57    0.36
  -8   4   3    4.93    0.46
  -6  -4   3    0.94    0.29
  -6  -4   3    0.82    0.18
   6  -4  -3    1.07    0.20
  -6   4   3    0.99    0.17
  -6   4   3    1.03    0.20
   6   4  -3    0.90    0.15
  -4  -4   3   12.72    0.74
   4  -4  -3   10.54    0.72
  -4  -4   3   11.65    0.70
  -4   4   3   11.73    0.68
  -4   4   3   11.85    0.69
  -2  -4   3   12.58    0.75
  -2  -4   3   13.02    0.76
   2  -4  -3   12.71    0.77
  -2   4   3   11.98    0.72
  -2   4   3   12.35    0.72
   2   4  -3   12.48    0.71
   0  -4  -3    3.97    0.37
   0  -4   3    4.10    0.34
   0  -4   3    4.66    0.35
   0   4   3    4.29    0.30
   2  -4   3   39.43    2.14
  -2  -4  -3   39.48    2.14
  -2  -4  -3   37.39    2.15
   2  -4   3   37.97    2.14
   2   4   3   37.54    2.12
  -4  -4  -3    2.41    0.29
   4  -4   3    2.32    0.19
  -4  -4  -3    2.77    0.34
   4  -4   3    2.33    0.26
  -4   4  -3    2.44    0.32
   4   4   3    2.00    0.24
  -6  -4  -3    1.76    0.36
   6  -4   3    2.64    0.29
  -6  -4  -3    1.76    0.26
   6  -4   3    2.26    0.22
   6   4   3    2.66    0.25
  -6   4  -3    1.65    0.33
  -8  -4  -3   16.02    1.07
   8  -4   3   16.09    0.95
  -8  -4  -3   16.39    0.97
   8  -4   3   15.91    0.94
   8   4   3   15.17    0.96
  -8   4  -3   16.01    1.05
 -10  -4  -3    9.75    0.86
  10  -4   3   11.10    0.70
  10  -4   3   11.19    0.70
 -10   4  -3   11.11    0.83
  10   4   3   11.16    0.73
  12  -4   3    1.05    0.23
 -12  -4  -3    0.50    0.45
  12   4   3    0.67    0.28
 -12   4  -3    0.46    0.43
 -14  -4  -3    3.82    0.65
  14  -4   3    4.45    0.50
 -14   4  -3    3.82    0.64
  14   4   3    4.00    0.47
  16  -4   3    0.44    0.32
 -16  -4  -3    0.55    0.57
  16   4   3    0.64    0.40
 -16   4  -3    0.31    0.57
 -18  -4  -3    1.08    0.66
  18  -4   3    2.01    0.46
  18   4   3    2.16    0.50
 -18   4  -3    1.72    0.65
  20  -4   3    1.59    0.50
 -20  -4  -3    0.45    0.69
  20   4   3    0.56    0.50
 -20   4  -3    0.01    0.67
 -22   4  -3    0.32    0.71
  21  -5  -3    0.71    0.44
 -21  -5   3   -0.20    0.65
  21   5  -3   -0.08    0.52
  19  -5  -3    1.06    0.40
 -19  -5   3    0.20    0.59
  19   5  -3    0.16    0.46
  17  -5  -3    1.19    0.33
 -17  -5   3    0.37    0.52
  17   5  -3    1.10    0.40
  15  -5  -3    4.19    0.47
 -15  -5   3    2.64    0.56
 -15   5   3    2.58    0.50
  15   5  -3    4.20    0.45
  13  -5  -3   12.69    0.80
  13   5  -3   14.00    0.84
 -13   5   3   10.25    0.89
 -11  -5   3    3.92    0.56
  11  -5  -3    3.62    0.36
  11   5  -3    4.24    0.41
 -11   5   3    4.31    0.51
   9  -5  -3    5.02    0.36
  -9  -5   3    4.29    0.51
   9   5  -3    5.10    0.39
  -9   5   3    4.11    0.45
  -9   5   3    4.06    0.36
   7  -5  -3    7.47    0.58
  -7  -5   3    9.32    0.70
  -7  -5   3    9.21    0.57
  -7   5   3    9.16    0.55
   7   5  -3    8.34    0.55
  -5  -5   3   22.26    1.22
  -5  -5   3   19.89    1.16
   5  -5  -3   18.52    1.19
  -5   5   3   20.26    1.15
  -5   5   3   19.41    1.14
  -3  -5   3    4.14    0.38
   3  -5  -3    5.22    0.41
  -3  -5   3    4.64    0.40
  -3   5   3    4.05    0.33
  -3   5   3    4.40    0.33
   3   5  -3    5.05    0.31
   1  -5  -3    9.73    0.68
  -1  -5   3   10.43    0.66
  -1  -5   3   11.08    0.66
   1   5  -3   10.05    0.61
  -1   5   3   10.30    0.61
  -1   5   3   11.08    0.62
  -1  -5  -3    3.25    0.35
   1  -5   3    3.88    0.34
   1  -5   3    3.69    0.31
   1   5   3    3.45    0.28
   3  -5   3   38.91    2.16
   3  -5   3   37.33    2.12
   3  -5   3   38.46    2.16
  -3  -5  -3   38.93    2.15
  -3  -5  -3   39.18    2.18
   3   5   3   37.92    2.14
  -5  -5  -3    3.35    0.37
   5  -5   3    2.61    0.24
  -5  -5  -3    3.86    0.42
   5  -5   3    2.71    0.32
   5   5   3    2.67    0.27
  -7  -5  -3   15.22    1.00
   7  -5   3   14.56    0.90
  -7  -5  -3   15.04    0.92
   7   5   3   14.79    0.90
  -7   5  -3   14.37    0.96
  -9  -5  -3   15.86    1.10
  -9  -5  -3   15.80    1.00
   9  -5   3   15.69    0.98
   9  -5   3   16.04    0.96
   9   5   3   16.12    0.99
  -9   5  -3   17.63    1.08
  11  -5   3    8.88    0.62
  11  -5   3    9.42    0.63
 -11  -5  -3    8.45    0.84
  11   5   3   10.06    0.68
 -11   5  -3    9.59    0.79
  13  -5   3    4.10    0.45
 -13  -5  -3    3.85    0.65
  13   5   3    4.03    0.45
 -13   5  -3    3.64    0.59
  15  -5   3    1.01    0.33
 -15  -5  -3    0.72    0.57
  15   5   3    1.02    0.39
 -15   5  -3    1.10    0.53
 -17  -5  -3    2.29    0.70
  17  -5   3    3.77    0.48
 -17   5  -3    3.00    0.66
  17   5   3    3.87    0.54
  19  -5   3    1.99    0.48
 -19  -5  -3    1.25    0.71
 -19   5  -3    1.99    0.66
  19   5   3    2.04    0.53
 -21  -5  -3    0.02    0.94
  21  -5   3    0.73    0.49
  21   5   3    1.75    0.61
 -21   5  -3    0.44    0.66
  20  -6  -3    0.10    0.35
 -20  -6   3   -0.46    0.60
  20   6  -3   -1.16    0.45
  18  -6  -3    0.77    0.34
 -18  -6   3    0.21    0.57
  18   6  -3    0.17    0.42
  16  -6  -3    2.27    0.36
 -16  -6   3    1.15    0.55
  16   6  -3    1.89    0.41
  14  -6  -3    1.86    0.31
 -14  -6   3    2.10    0.55
 -14   6   3    1.67    0.74
  14   6  -3    2.29    0.36
  12  -6  -3    5.97    0.47
 -12  -6   3    4.42    0.62
 -12   6   3    5.39    0.59
  12   6  -3    6.84    0.51
 -12   6   3    5.91    0.47
 -10  -6   3    3.43    0.48
  10  -6  -3    3.04    0.33
  10  -6  -3    2.64    0.35
 -10   6   3    3.04    0.44
 -10   6   3    3.47    0.30
  10   6  -3    3.54    0.36
  -8  -6   3    3.89    0.47
  -8  -6   3    3.21    0.36
   8  -6  -3    3.12    0.37
   8   6  -3    3.59    0.32
  -6  -6   3   14.60    0.89
  -6  -6   3   15.18    0.97
   6  -6  -3   14.30    0.91
   6   6  -3   14.53    0.85
  -6   6   3   14.26    0.86
  -6   6   3   14.55    0.88
  -4  -6   3    0.50    0.26
   4  -6  -3    0.00    0.24
  -4  -6   3    0.35    0.22
  -4   6   3    0.28    0.17
   4   6  -3   -0.02    0.15
  -4   6   3    0.32    0.16
  -2  -6   3   49.80    2.72
   2  -6  -3   46.30    2.74
  -2  -6   3   50.13    2.72
  -2   6   3   49.06    2.69
   2   6  -3   48.52    2.68
  -2   6   3   47.87    2.68
   0  -6   3   26.74    1.47
   0  -6  -3   24.11    1.50
   0  -6   3   26.09    1.48
   0   6  -3   25.34    1.43
   0   6   3   25.65    1.43
   0   6   3   25.53    1.44
  -2  -6  -3    4.10    0.40
   2  -6   3    3.20    0.34
   2  -6   3    3.27    0.37
   2   6   3    3.26    0.30
   4  -6   3   16.94    1.03
   4  -6   3   17.13    0.97
  -4  -6  -3   16.85    1.04
  -4  -6  -3   16.89    1.06
   4   6   3   17.63    1.00
  -4   6  -3   17.04    1.05
   6  -6   3   15.87    0.92
  -6  -6  -3   15.61    1.02
  -6  -6  -3   16.66    1.00
   6  -6   3   15.86    0.97
   6   6   3   15.78    0.96
  -8  -6  -3    9.30    0.64
  -8  -6  -3    8.27    0.72
   8  -6   3    7.80    0.59
   8   6   3    9.06    0.60
  10  -6   3    5.48    0.47
 -10  -6  -3    6.37    0.52
 -10  -6  -3    5.71    0.67
  10  -6   3    5.82    0.45
 -10   6  -3    5.42    0.58
  10   6   3    6.10    0.51
  12  -6   3    6.86    0.53
 -12  -6  -3    5.33    0.76
  12  -6   3    6.04    0.51
 -12   6  -3    5.58    0.70
  12   6   3    7.34    0.60
  14  -6   3    0.57    0.27
 -14  -6  -3    0.22    0.54
  14   6   3    0.14    0.34
 -14   6  -3    0.63    0.46
 -16  -6  -3    0.56    0.60
  16  -6   3    0.76    0.35
  16   6   3    0.43    0.40
 -16   6  -3    0.65    0.52
  18  -6   3    1.60    0.42
 -18  -6  -3    0.78    0.66
  18   6   3    1.58    0.50
 -18   6  -3    1.29    0.62
 -20  -6  -3    0.33    0.70
  20  -6   3    0.91    0.45
 -20   6  -3    0.57    0.62
  20   6   3   -0.01    0.48
 -19  -7   3    0.10    0.59
  19  -7  -3    0.73    0.37
 -17  -7   3   -0.17    0.53
  17  -7  -3    0.58    0.30
  17   7  -3    0.10    0.38
 -15  -7   3    1.14    0.53
  15  -7  -3    1.81    0.32
  15   7  -3    1.58    0.37
 -13  -7   3    1.85    0.53
  13  -7  -3    2.52    0.31
  13   7  -3    2.29    0.34
  11  -7  -3    2.99    0.34
  11  -7  -3    3.18    0.35
 -11  -7   3    2.33    0.51
  11   7  -3    3.48    0.38
 -11   7   3    2.61    0.31
  -9  -7   3    9.36    0.65
   9  -7  -3    8.53    0.65
  -9  -7   3    8.49    0.78
   9  -7  -3    9.93    0.61
  -9   7   3    9.41    0.61
   9   7  -3    9.88    0.61
   7  -7  -3    3.03    0.37
  -7  -7   3    3.73    0.40
  -7  -7   3    3.91    0.47
   7   7  -3    3.05    0.31
  -7   7   3    3.39    0.34
  -7   7   3    3.64    0.37
   5  -7  -3   -0.11    0.25
  -5  -7   3   -0.19    0.23
  -5  -7   3   -0.03    0.28
   5   7  -3    0.08    0.16
  -5   7   3    0.26    0.17
  -5   7   3    0.08    0.19
  -3  -7   3    4.05    0.44
  -3  -7   3    3.99    0.45
   3  -7  -3    4.23    0.47
   3   7  -3    3.99    0.34
  -3   7   3    4.22    0.34
  -3   7   3    4.44    0.35
  -1  -7   3   22.97    1.36
   1  -7  -3   22.44    1.39
  -1  -7   3   23.49    1.36
   1   7  -3   22.80    1.30
  -1   7   3   21.69    1.30
  -1   7   3   24.70    1.31
   1  -7   3   15.09    0.93
  -1  -7  -3   14.72    0.96
   1  -7   3   15.03    0.91
   1   7   3   14.51    0.87
  -1   7  -3   15.00    0.87
   3  -7   3    6.08    0.47
  -3  -7  -3    6.18    0.55
   3  -7   3    6.15    0.51
  -3  -7  -3    6.21    0.50
   3   7   3    6.08    0.45
   5  -7   3   13.23    0.85
  -5  -7  -3   12.37    0.86
   5  -7   3   13.39    0.77
  -5  -7  -3   13.24    0.88
  -5   7  -3   13.50    0.87
   5   7   3   13.52    0.81
   7  -7   3    5.54    0.49
   7  -7   3    6.25    0.42
  -7  -7  -3    5.80    0.59
  -7  -7  -3    6.12    0.52
   7   7   3    5.66    0.47
  -7   7  -3    6.28    0.54
  -9  -7  -3    5.01    0.62
   9  -7   3    4.76    0.46
  -9  -7  -3    6.00    0.53
  -9   7  -3    5.32    0.54
   9   7   3    5.58    0.47
 -11  -7  -3    5.30    0.65
 -11  -7  -3    4.94    0.54
  11  -7   3    4.57    0.45
  11  -7   3    5.54    0.44
 -11   7  -3    3.83    0.42
  11   7   3    5.39    0.51
 -13  -7  -3    1.67    0.58
  13  -7   3    2.36    0.32
 -13   7  -3    2.46    0.46
  13   7   3    1.79    0.39
 -15  -7  -3    0.80    0.59
  15  -7   3    2.16    0.35
  15   7   3    1.79    0.43
 -15   7  -3    2.41    0.52
 -17  -7  -3    0.37    0.62
  17  -7   3    0.49    0.37
 -17   7  -3    0.87    0.54
  17   7   3   -0.01    0.41
  19  -7   3    0.64    0.42
 -19  -7  -3   -0.05    0.67
  19   7   3    0.60    0.49
  20  -8  -3    0.49    0.46
  18  -8  -3    1.47    0.36
 -18  -8   3   -0.17    0.57
  16  -8  -3    1.49    0.32
 -16  -8   3    0.42    0.54
 -14  -8   3    1.88    0.57
  14  -8  -3    2.44    0.33
  12  -8  -3    1.92    0.27
 -12  -8   3    1.57    0.53
 -10  -8   3    2.54    0.51
  10  -8  -3    2.61    0.28
  10  -8  -3    2.06    0.33
 -10  -8   3    2.46    0.57
 -10   8   3    2.32    0.31
  10   8  -3    2.46    0.29
  10   8  -3    3.08    0.31
   8  -8  -3    3.87    0.46
  -8  -8   3    4.45    0.49
  -8  -8   3    3.98    0.60
  -8   8   3    5.01    0.40
   8   8  -3    4.21    0.37
   8   8  -3    4.28    0.36
   6  -8  -3    3.74    0.48
  -6  -8   3    3.70    0.53
  -6  -8   3    2.98    0.38
  -6   8   3    3.92    0.36
  -6   8   3    4.04    0.37
   6   8  -3    5.07    0.35
  -4  -8   3    7.73    0.61
  -4  -8   3    8.43    0.59
   4  -8  -3    5.42    0.59
  -4   8   3    7.43    0.49
  -4   8   3    7.86    0.49
   4   8  -3    6.08    0.48
  -2  -8   3    2.99    0.35
  -2  -8   3    2.65    0.35
   2  -8  -3    2.68    0.38
   2   8  -3    2.99    0.29
  -2   8   3    2.58    0.27
  -2   8   3    2.63    0.29
   0  -8   3    3.98    0.42
   0  -8  -3    4.73    0.49
   0  -8   3    4.06    0.45
   0   8   3    4.28    0.35
   0   8  -3    4.79    0.35
   0   8   3    4.14    0.35
   2  -8   3    4.04    0.40
  -2  -8  -3    4.69    0.49
   2  -8   3    3.95    0.45
   2   8   3    3.78    0.34
  -2   8  -3    4.87    0.35
  -4  -8  -3    9.88    0.74
  -4  -8  -3   10.91    0.78
   4  -8   3   11.28    0.63
   4  -8   3   10.59    0.73
   4   8   3   10.73    0.67
  -4   8  -3   10.28    0.66
   6  -8   3    9.11    0.56
  -6  -8  -3    9.11    0.72
   6  -8   3    8.42    0.66
  -6  -8  -3    8.84    0.70
   6   8   3    8.51    0.61
  -6   8  -3    9.89    0.68
   8  -8   3    3.70    0.43
  -8  -8  -3    3.56    0.54
   8  -8   3    4.51    0.35
  -8   8  -3    4.31    0.49
   8   8   3    3.72    0.42
  10  -8   3    1.86    0.31
 -10  -8  -3    2.19    0.53
 -10  -8  -3    2.74    0.42
  10   8   3    2.17    0.33
 -10   8  -3    2.66    0.42
 -12  -8  -3    1.64    0.56
  12  -8   3    1.34    0.29
  12  -8   3    1.96    0.28
  12   8   3    1.54    0.35
 -12   8  -3    2.23    0.45
 -14  -8  -3    1.00    0.59
  14  -8   3    2.36    0.36
  14   8   3    2.33    0.45
 -14   8  -3    3.31    0.45
 -16  -8  -3   -0.44    0.58
  16  -8   3    1.02    0.34
  16   8   3    0.39    0.39
 -18  -8  -3   -0.49    0.63
  18  -8   3    0.65    0.38
  18   8   3    0.42    0.45
  20  -8   3    0.92    0.45
  20   8   3   -0.55    0.49
  19  -9  -3    0.71    0.36
 -19  -9   3   -0.04    0.69
 -17  -9   3   -0.28    0.58
  17  -9  -3    0.76    0.32
 -15  -9   3   -0.23    0.55
  15  -9  -3    1.07    0.29
  13  -9  -3    0.49    0.22
 -13  -9   3   -0.10    0.52
  11  -9  -3    4.81    0.44
 -11  -9   3    3.70    0.64
  11  -9  -3    3.45    0.47
 -11   9   3    4.81    0.43
  -9  -9   3    5.91    0.74
   9  -9  -3    6.67    0.48
   9  -9  -3    5.30    0.58
  -9  -9   3    7.28    0.63
  -9   9   3    6.70    0.50
  -7  -9   3    1.62    0.42
   7  -9  -3    1.75    0.38
  -7   9   3    1.92    0.27
   7   9  -3    2.67    0.28
  -7   9   3    2.13    0.28
   5  -9  -3    0.72    0.34
  -5  -9   3    1.33    0.36
  -5  -9   3    1.84    0.35
   5   9  -3    1.66    0.24
  -5   9   3    1.60    0.24
  -5   9   3    1.42    0.23
   3  -9  -3    3.25    0.42
  -3  -9   3    2.60    0.38
  -3  -9   3    2.94    0.39
  -3   9   3    2.98    0.29
  -3   9   3    2.58    0.31
   3   9  -3    3.31    0.30
  -1  -9   3   10.07    0.69
  -1  -9   3    9.90    0.72
   1  -9  -3    8.82    0.76
  -1   9   3   10.39    0.63
  -1   9   3    9.58    0.63
   1   9  -3    9.76    0.62
   1  -9   3    3.28    0.40
   1  -9   3    3.49    0.40
  -1  -9  -3    2.78    0.42
   1   9   3    3.15    0.32
   1   9   3    3.37    0.31
  -1   9  -3    3.33    0.30
   3  -9   3    4.11    0.41
  -3  -9  -3    4.02    0.47
   3  -9   3    4.08    0.47
   3   9   3    3.72    0.34
  -3   9  -3    3.62    0.36
   5  -9   3    2.82    0.26
  -5  -9  -3    3.52    0.47
   5  -9   3    3.32    0.44
  -5  -9  -3    2.75    0.41
  -5   9  -3    2.98    0.39
   5   9   3    3.18    0.32
  -7  -9  -3    5.02    0.62
  -7  -9  -3    6.46    0.65
   7  -9   3    6.19    0.42
   7  -9   3    5.29    0.54
  -7   9  -3    5.83    0.55
   7   9   3    5.74    0.49
   9  -9   3    2.85    0.38
   9  -9   3    3.40    0.35
  -9  -9  -3    3.41    0.53
  -9   9  -3    3.17    0.44
   9   9   3    3.37    0.37
 -11  -9  -3    0.41    0.48
 -11  -9  -3    1.09    0.59
  11  -9   3    0.53    0.27
  11  -9   3    0.24    0.10
  11   9   3    0.64    0.30
 -11   9  -3    1.38    0.48
  13  -9   3    1.84    0.30
  13  -9   3    1.39    0.35
 -13  -9  -3    0.91    0.58
  13   9   3    1.82    0.37
 -15  -9  -3   -0.25    0.57
  15  -9   3    0.66    0.30
  15   9   3    0.54    0.37
 -17  -9  -3   -0.48    0.60
  17  -9   3    0.39    0.35
  17   9   3    0.45    0.46
  19  -9   3    0.17    0.40
 -19  -9  -3   -0.57    0.68
  18 -10  -3    0.38    0.31
 -18 -10   3   -0.35    0.64
  16 -10  -3    1.03    0.31
 -16 -10   3    0.11    0.61
 -14 -10   3   -0.15    0.56
  14 -10  -3    0.28    0.24
 -12 -10   3    0.47    0.53
  12 -10  -3    0.83    0.23
  10 -10  -3    2.98    0.43
  10 -10  -3    4.15    0.40
 -10 -10   3    4.42    0.63
 -10  10   3    3.98    0.38
   8 -10  -3    0.16    0.34
  -8 -10   3    0.77    0.44
   8  10  -3    1.09    0.26
  -8  10   3    1.23    0.27
   6 -10  -3    0.49    0.34
  -6 -10   3    0.11    0.38
  -6 -10   3    0.39    0.36
  -6  10   3    0.46    0.23
  -6  10   3    0.01    0.20
   6  10  -3    0.52    0.23
  -4 -10   3    0.46    0.33
   4 -10  -3    0.66    0.36
  -4 -10   3    0.53    0.36
   4  10  -3    1.20    0.24
  -4  10   3    1.02    0.24
  -4  10   3    0.69    0.21
  -2 -10   3    2.60    0.40
   2 -10  -3    1.81    0.41
  -2 -10   3    1.92    0.37
  -2  10   3    2.43    0.28
   2  10  -3    2.79    0.28
  -2  10   3    2.57    0.30
   0 -10   3    3.09    0.40
   0 -10  -3    2.10    0.43
   0 -10   3    3.11    0.42
   0  10   3    3.04    0.31
   0  10  -3    2.95    0.30
   0  10   3    2.91    0.31
  -2 -10  -3    3.60    0.50
   2 -10   3    3.64    0.49
   2 -10   3    3.85    0.42
   2  10   3    3.38    0.34
  -2  10  -3    4.02    0.34
  -4 -10  -3    0.67    0.40
   4 -10   3    0.69    0.31
   4  10   3    0.73    0.21
  -6 -10  -3    3.54    0.50
   6 -10   3    2.85    0.41
  -6 -10  -3    2.25    0.43
  -6  10  -3    2.57    0.40
   6  10   3    2.13    0.31
  -8 -10  -3    2.46    0.51
  -8 -10  -3    3.99    0.55
   8 -10   3    2.47    0.39
   8  10   3    2.87    0.35
  10 -10   3    0.40    0.20
 -10 -10  -3    0.12    0.38
  10 -10   3    0.30    0.29
 -10 -10  -3   -0.01    0.46
  10  10   3    0.55    0.28
 -12 -10  -3    0.48    0.56
  12 -10   3    0.89    0.19
  12 -10   3    0.55    0.29
  12  10   3    1.45    0.36
  14 -10   3    0.75    0.28
 -14 -10  -3   -0.60    0.58
  14  10   3    0.32    0.39
 -16 -10  -3   -0.71    0.59
  16 -10   3    0.39    0.32
 -18 -10  -3   -1.46    0.66
  18 -10   3    0.19    0.40
  17 -11  -3    0.48    0.31
 -17 -11   3   -0.57    0.60
  15 -11  -3    1.01    0.29
 -15 -11   3   -0.21    0.57
  13 -11  -3    0.62    0.24
 -13 -11   3    0.33    0.57
  11 -11  -3    0.31    0.22
 -11 -11   3   -0.32    0.54
  11 -11  -3    0.03    0.32
  -9 -11   3    0.95    0.49
  -9 -11   3    0.31    0.44
   9 -11  -3    0.73    0.20
   9 -11  -3    0.32    0.34
  -7 -11   3   -0.09    0.40
   7 -11  -3   -0.17    0.34
  -7 -11   3   -0.11    0.42
  -7  11   3    0.16    0.25
   7  11  -3   -0.03    0.27
  -5 -11   3    1.39    0.43
  -5 -11   3    1.00    0.40
   5 -11  -3    0.74    0.39
  -5  11   3    0.76    0.23
   5  11  -3    1.09    0.26
  -5  11   3    1.31    0.26
   3 -11  -3    1.76    0.43
  -3 -11   3    2.03    0.43
  -3 -11   3    1.90    0.40
  -3  11   3    1.71    0.26
   3  11  -3    1.87    0.27
  -3  11   3    1.56    0.28
   1 -11  -3    0.41    0.36
  -1 -11   3   -0.27    0.27
  -1 -11   3    0.20    0.34
  -1  11   3    0.29    0.18
   1  11  -3    0.22    0.22
  -1  11   3   -0.08    0.23
   1 -11   3    2.15    0.34
   1 -11   3    1.88    0.40
  -1 -11  -3    2.51    0.48
   1  11   3    2.25    0.31
   1  11   3    2.23    0.27
  -1  11  -3    2.14    0.29
   3 -11   3    0.93    0.36
  -3 -11  -3    0.47    0.44
   3  11   3    0.59    0.20
  -3  11  -3    0.91    0.25
   5 -11   3    0.18    0.32
  -5 -11  -3   -0.34    0.46
  -5  11  -3    0.35    0.25
   5  11   3    0.10    0.20
  -7 -11  -3    0.58    0.50
   7 -11   3    0.03    0.33
   7  11   3    0.22    0.31
  -7  11  -3    0.29    0.27
  -9 -11  -3    2.16    0.58
  -9 -11  -3    0.98    0.51
   9 -11   3    1.30    0.36
 -11 -11  -3    0.31    0.52
  11 -11   3   -0.19    0.29
  13 -11   3   -0.10    0.32
 -13 -11  -3   -0.29    0.55
 -15 -11  -3   -0.78    0.62
 -17 -11  -3   -1.28    0.62
 -16 -12   3   -0.18    0.63
  16 -12  -3    0.54    0.30
 -14 -12   3   -0.54    0.59
  14 -12  -3    0.46    0.26
 -12 -12   3   -1.02    0.53
  12 -12  -3    0.40    0.23
 -12  12   3   -0.21    0.28
  10 -12  -3    0.47    0.22
  10 -12  -3    0.05    0.35
 -10 -12   3    0.17    0.54
 -10  12   3    0.11    0.28
   8 -12  -3    0.22    0.38
  -8 -12   3   -0.34    0.47
  -8 -12   3   -0.44    0.47
   8  12  -3    0.32    0.32
  -8  12   3    0.36    0.27
  -6 -12   3    1.05    0.47
   6 -12  -3    1.19    0.43
  -6 -12   3    1.29    0.47
   6  12  -3    1.13    0.30
  -6  12   3    0.97    0.28
  -6  12   3    0.60    0.27
  -4 -12   3    0.01    0.38
  -4 -12   3    0.00    0.45
   4 -12  -3   -0.26    0.41
   4  12  -3    0.57    0.25
  -4  12   3    0.27    0.26
  -4  12   3    0.25    0.23
  -2 -12   3   -0.13    0.35
   2 -12  -3   -0.06    0.41
  -2 -12   3    0.06    0.42
   2  12  -3    0.58    0.26
  -2  12   3    0.23    0.28
  -2  12   3    0.11    0.26
   0 -12   3   -0.14    0.39
   0 -12  -3    0.05    0.41
   0  12   3    0.29    0.27
   0  12  -3    0.05    0.25
  -2 -12  -3    0.43    0.45
   2 -12   3    0.09    0.37
   2  12   3    0.22    0.29
  -2  12  -3    0.48    0.27
   4 -12   3    0.20    0.36
  -4 -12  -3    0.52    0.50
   4  12   3    0.38    0.30
   6 -12   3    0.02    0.36
  -6 -12  -3    0.12    0.53
  -6  12  -3    0.41    0.27
  -8 -12  -3    0.16    0.55
   8 -12   3    0.00    0.34
 -10 -12  -3    0.57    0.58
  10 -12   3    0.07    0.32
  12 -12   3   -0.35    0.31
 -14 -12  -3   -1.44    0.71
 -16 -12  -3   -0.57    0.68
 -15 -13   3   -0.69    0.64
 -15  13   3   -0.11    0.31
 -13 -13   3   -0.62    0.59
 -13  13   3   -0.32    0.29
  11 -13  -3   -0.60    0.35
 -11 -13   3   -0.58    0.56
 -11  13   3    0.20    0.28
   9 -13  -3   -0.37    0.37
  -9 -13   3   -0.06    0.50
  -9 -13   3   -0.22    0.54
   9  13  -3    0.53    0.34
  -9  13   3    0.56    0.29
  -7 -13   3   -0.62    0.50
   7 -13  -3   -0.30    0.42
  -7 -13   3   -0.05    0.51
  -7  13   3    0.13    0.26
   7  13  -3    0.26    0.29
   5 -13  -3    0.31    0.44
  -5 -13   3    0.63    0.51
  -5  13   3    0.38    0.28
   5  13  -3    0.61    0.28
   3 -13  -3   -0.62    0.45
  -3 -13   3    0.55    0.49
   3  13  -3    0.42    0.29
  -3  13   3    0.30    0.28
  -1 -13   3   -0.18    0.44
   1 -13  -3   -0.97    0.45
   1  13  -3    0.40    0.27
  -1 -13  -3    1.22    0.53
   1 -13   3    1.19    0.46
   1  13   3    1.40    0.33
  -1  13  -3    1.33    0.30
   3 -13   3    0.14    0.41
  -3 -13  -3    0.13    0.52
  -3  13  -3    0.32    0.28
   5 -13   3   -0.18    0.38
  -5 -13  -3   -0.14    0.53
   7 -13   3    0.41    0.39
  -7 -13  -3    0.44    0.57
   9 -13   3   -0.04    0.34
  -9 -13  -3   -0.26    0.57
  11 -13   3    0.01    0.35
 -14 -14   3    0.22    0.82
 -14  14   3   -0.19    0.30
  10 -14  -3   -0.79    0.40
 -10  14   3   -0.05    0.29
   8 -14  -3   -0.11    0.44
  -8 -14   3   -0.79    0.53
   8  14  -3    0.49    0.33
  -8  14   3    0.13    0.28
  -6 -14   3   -0.17    0.51
   6 -14  -3   -0.63    0.45
  -6  14   3    0.26    0.27
   6  14  -3    0.48    0.31
  -4 -14   3    0.50    0.49
   4 -14  -3    0.67    0.50
   4  14  -3    0.66    0.31
  -4  14   3    0.29    0.30
  -2 -14   3   -0.80    0.48
   2 -14  -3   -0.18    0.51
  -2  14   3   -0.09    0.30
   2  14  -3   -0.19    0.27
   0 -14  -3    0.30    0.53
   0 -14   3    0.13    0.48
   0  14  -3    0.55    0.28
   0  14   3    0.41    0.32
  -2 -14  -3    1.06    0.58
   2 -14   3    0.51    0.48
  -2  14  -3    1.27    0.30
   4 -14   3   -0.35    0.42
  -4 -14  -3   -0.26    0.55
   4  14   3    0.59    0.34
   6 -14   3    0.42    0.44
  -8 -14  -3    0.51    0.65
   8 -14   3   -0.09    0.39
 -10 -14  -3    0.64    0.74
  10 -14   3    0.06    0.37
  12 -14   3   -0.38    0.38
 -13  15   3   -0.11    0.31
  11 -15  -3   -0.43    0.41
 -11  15   3    0.11    0.30
   9 -15  -3   -0.41    0.45
   9  15  -3    0.13    0.36
  -9  15   3   -0.02    0.29
   7 -15  -3   -0.13    0.49
  -7 -15   3    1.01    0.61
   7  15  -3    0.91    0.37
  -7  15   3    0.26    0.29
  -5 -15   3   -0.16    0.56
   5 -15  -3   -0.32    0.53
   5  15  -3    0.56    0.32
  -5  15   3    0.27    0.29
   3 -15  -3   -0.58    0.51
  -3 -15   3   -0.55    0.54
   3  15  -3    0.22    0.30
  -3  15   3    0.00    0.30
  -1 -15   3   -0.18    0.54
   1 -15  -3   -0.21    0.54
  -1  15   3    0.09    0.34
   1  15  -3    0.33    0.28
   1 -15   3   -0.20    0.50
  -1 -15  -3    0.02    0.60
  -1  15  -3    0.44    0.28
   1  15   3    0.44    0.35
   3 -15   3    0.42    0.50
  -3 -15  -3    0.15    0.64
   3  15   3    1.00    0.36
  -3  15  -3    0.44    0.29
   5 -15   3    1.19    0.51
  -5 -15  -3    1.43    0.66
  -5  15  -3    1.20    0.32
   7 -15   3    0.08    0.45
  -7 -15  -3   -0.37    0.63
   9 -15   3   -0.22    0.41
  -9 -15  -3   -0.84    0.67
  -9  15  -3    0.11    0.28
  11 -15   3   -0.61    0.40
  10 -16  -3   -0.76    0.46
 -10  16   3    0.13    0.31
  -8 -16   3    0.01    0.59
   8 -16  -3    0.01    0.51
  -8  16   3    0.32    0.31
   6 -16  -3    0.22    0.57
  -6 -16   3    0.33    0.61
  -6  16   3    0.21    0.30
  -4 -16   3   -0.92    0.56
   4 -16  -3   -0.71    0.55
  -4  16   3    0.18    0.33
   4  16  -3    0.07    0.33
  -2 -16   3   -0.51    0.55
   2 -16  -3   -0.44    0.56
   2  16  -3    0.79    0.33
  -2  16   3    0.64    0.34
   0 -16   3   -0.46    0.52
   0 -16  -3   -1.15    0.58
   0  16  -3   -0.20    0.29
   0  16   3    0.01    0.36
  -2 -16  -3   -0.46    0.66
   2 -16   3   -0.52    0.52
  -2  16  -3    0.39    0.30
   2  16   3    0.64    0.38
   4 -16   3    0.86    0.57
  -4 -16  -3    0.08    0.65
  -4  16  -3    0.87    0.34
  -6 -16  -3    0.25    0.69
   6 -16   3   -0.17    0.51
   8 -16   3    0.15    0.47
  -8 -16  -3   -0.31    0.78
  11  17  -3    0.51    0.48
 -11  17   3    0.04    0.34
  -7 -17   3   -0.44    0.67
  -7  17   3    0.14    0.35
   7  17  -3    0.39    0.40
  -5 -17   3   -0.77    0.59
  -5  17   3   -0.49    0.36
   5  17  -3    0.25    0.37
  -3 -17   3   -0.70    0.57
  -3  17   3    0.12    0.35
   3  17  -3    0.41    0.35
   1 -17  -3   -1.05    0.64
  -1 -17   3   -0.34    0.61
  -1  17   3   -0.02    0.38
  -1 -17  -3   -0.14    0.69
   1 -17   3   -0.24    0.60
  -1  17  -3    0.06    0.32
   1  17   3    0.05    0.39
  -3 -17  -3   -0.07    0.71
  -3  17  -3    0.53    0.34
   3  17   3    0.37    0.41
  -5  17  -3    0.07    0.32
  -7  17  -3   -0.28    0.31
   8  18  -3    0.58    0.47
  -8  18   3    0.07    0.36
  -6  18   3    0.17    0.33
   6  18  -3    0.77    0.42
  -4  18   3    0.35    0.37
   4  18  -3    0.89    0.41
   2  18  -3    0.05    0.36
  -2  18   3    0.12    0.38
   0  18   3    0.06    0.40
   0  18  -3    0.19    0.34
   2  18   3    0.66    0.44
  -2  18  -3    1.31    0.37
  -6  18  -3    0.27    0.33
  -3  19   3    0.49    0.44
  -1  19   3   -0.27    0.43
   1  19  -3    0.14    0.37
  -1  19  -3    0.65    0.37
  -3  19  -3   -0.10    0.36
   3  19   3    0.30    0.49
  22   0  -4    0.53    0.51
 -22   0   4    0.22    0.69
  20   0  -4    2.28    0.51
 -20   0   4    1.04    0.67
 -18   0   4    0.85    0.54
  18   0  -4    1.17    0.40
 -16   0   4    3.23    0.61
  16   0  -4    3.79    0.45
  14   0  -4    0.96    0.26
 -14   0   4    0.63    0.45
  12   0  -4   26.05    1.38
 -12   0   4   21.21    1.46
  10   0  -4   17.13    1.02
 -10   0   4   17.89    1.12
  -8   0   4   14.02    0.88
   8   0  -4   13.22    0.80
  -6   0   4   21.76    1.20
  -6   0   4   23.31    1.25
   6   0  -4   19.17    1.20
  -4   0   4   71.40    3.81
  -4   0   4   67.38    3.79
  -4   0   4   68.65    3.79
  -2   0   4 1000.00   53.68
  -2   0   4  967.99   53.67
   0   0   4   10.23    0.59
   0   0   4   10.15    0.59
   2   0   4  105.88    5.59
  -2   0  -4  101.29    5.62
   2   0   4   99.11    5.59
   4   0   4   49.29    2.65
  -4   0  -4   46.62    2.70
   4   0   4   48.20    2.65
   6   0   4   43.72    2.40
   6   0   4   42.19    2.41
  -6   0  -4   44.14    2.46
   8   0   4   84.25    4.59
  -8   0  -4   85.10    4.65
   8   0   4   80.28    4.57
  10   0   4    7.34    0.57
 -10   0  -4    9.42    0.78
  12   0   4    6.07    0.50
 -12   0  -4    4.79    0.73
 -14   0  -4    1.13    0.55
  14   0   4    1.05    0.30
  16   0   4    0.09    0.34
 -16   0  -4    0.63    0.60
  18   0   4    1.21    0.44
 -18   0  -4    0.84    0.63
 -20   0  -4    0.16    0.70
  20   0   4    0.67    0.46
 -23   1   4   -1.57    0.73
 -21  -1   4    0.28    0.65
  21  -1  -4    0.58    0.45
  21   1  -4    0.41    0.48
 -21   1   4    0.03    0.61
  19  -1  -4    0.70    0.40
 -19  -1   4    0.04    0.56
 -19   1   4   -0.27    0.54
  19   1  -4    0.10    0.41
  17  -1  -4    1.78    0.38
 -17  -1   4    1.14    0.55
  17   1  -4    2.45    0.42
 -17   1   4    0.99    0.56
 -15  -1   4    2.27    0.53
  15  -1  -4    2.94    0.38
 -15   1   4    3.07    0.55
  15   1  -4    3.27    0.39
  13  -1  -4    5.12    0.43
 -13  -1   4    4.09    0.60
 -13   1   4    4.55    0.55
 -13   1   4    3.92    0.40
  13   1  -4    5.74    0.46
  11  -1  -4    9.63    0.61
 -11  -1   4    8.24    0.73
 -11   1   4    9.59    0.73
  11   1  -4    9.87    0.62
  -9  -1   4   18.30    1.17
   9  -1  -4   18.21    1.08
   9   1  -4   18.65    1.08
  -9   1   4   19.52    1.15
  -9   1   4   18.40    1.06
  -7  -1   4    6.15    0.44
   7  -1  -4    7.60    0.44
  -7  -1   4    7.03    0.54
  -7   1   4    6.17    0.51
   7   1  -4    7.63    0.44
  -7   1   4    6.48    0.43
  -5  -1   4    8.56    0.50
  -5  -1   4    9.39    0.57
  -5   1   4    8.54    0.52
  -5   1   4    8.65    0.50
   5   1  -4    6.98    0.49
  -3  -1   4   62.18    3.56
  -3  -1   4   60.98    3.56
  -3  -1   4   66.89    3.58
  -3   1   4   62.48    3.56
  -3   1   4   66.82    3.57
  -3   1   4   66.88    3.56
  -3   1   4   68.24    3.56
  -1  -1   4   59.68    3.25
  -1  -1   4   59.53    3.24
  -1  -1   4   55.33    3.22
  -1   1   4   62.09    3.24
  -1   1   4   58.37    3.23
   1  -1   4   42.84    2.37
  -1  -1  -4   43.93    2.38
   1  -1   4   43.68    2.36
   1  -1   4   42.91    2.38
   1   1   4   41.55    2.37
   3  -1   4   26.90    1.48
  -3  -1  -4   27.86    1.55
   3  -1   4   25.81    1.49
   3   1   4   25.72    1.49
   3   1   4   26.04    1.49
  -3   1  -4   27.54    1.55
   5  -1   4   34.72    1.92
  -5  -1  -4   34.43    1.97
   5  -1   4   34.00    1.91
   5   1   4   34.52    1.92
   5   1   4   34.50    1.91
  -5   1  -4   34.48    1.97
  -7  -1  -4   28.04    1.64
   7  -1   4   28.06    1.56
   7  -1   4   26.98    1.56
   7   1   4   27.93    1.56
   7   1   4   27.45    1.57
  -7   1  -4   27.75    1.64
   9  -1   4    3.82    0.33
   9  -1   4    4.08    0.38
  -9  -1  -4    4.62    0.60
   9   1   4    4.10    0.40
  -9   1  -4    4.49    0.59
  11  -1   4    5.45    0.48
 -11  -1  -4    5.41    0.72
 -11   1  -4    6.59    0.70
  11   1   4    5.71    0.48
  13  -1   4    3.12    0.36
 -13  -1  -4    2.35    0.58
  13   1   4    2.86    0.35
 -13   1  -4    3.04    0.59
 -15  -1  -4    1.13    0.57
  15  -1   4    0.83    0.33
 -15   1  -4    1.16    0.59
  15   1   4    0.75    0.33
  17  -1   4    2.51    0.47
 -17  -1  -4    1.58    0.64
 -17   1  -4    2.48    0.71
  17   1   4    2.58    0.46
 -19  -1  -4    0.66    0.68
  19  -1   4    0.92    0.45
  19   1   4    0.72    0.47
 -19   1  -4    0.69    0.68
  21  -1   4    0.18    0.47
 -21  -1  -4    0.04    0.74
  21   1   4    0.06    0.49
 -21   1  -4   -0.05    0.74
 -22  -2   4   -0.66    0.68
 -22   2   4   -1.05    0.63
  22   2  -4   -0.06    0.49
 -20  -2   4   -0.56    0.58
  20  -2  -4    0.64    0.39
  20   2  -4    0.47    0.45
 -20   2   4   -0.03    0.55
  18  -2  -4    2.18    0.41
 -18  -2   4    1.14    0.57
 -18   2   4    0.55    0.52
  18   2  -4    1.90    0.44
  16  -2  -4    2.22    0.36
 -16  -2   4    0.76    0.48
 -16   2   4    0.91    0.49
  16   2  -4    2.62    0.39
 -14  -2   4    2.96    0.51
  14  -2  -4    3.40    0.36
  14   2  -4    3.55    0.39
 -14   2   4    3.71    0.52
  12  -2  -4    2.78    0.29
 -12  -2   4    3.22    0.46
  12   2  -4    2.89    0.31
 -12   2   4    3.20    0.45
 -10  -2   4    9.70    0.77
  10  -2  -4   11.32    0.65
  10   2  -4   11.01    0.66
 -10   2   4   10.51    0.64
 -10   2   4    9.37    0.74
  -8  -2   4    4.32    0.48
   8  -2  -4    3.73    0.31
  -8   2   4    3.79    0.32
   8   2  -4    3.47    0.32
  -6  -2   4   13.52    0.80
  -6  -2   4   12.04    0.72
  -6   2   4   12.79    0.76
  -6   2   4   11.92    0.72
   6   2  -4   12.41    0.72
   4  -2  -4    5.01    0.39
  -4  -2   4    5.97    0.38
  -4  -2   4    6.68    0.46
  -4   2   4    5.96    0.38
  -4   2   4    6.25    0.39
  -2  -2   4    8.66    0.58
   2  -2  -4    8.20    0.56
  -2   2   4    8.40    0.52
   0  -2   4    4.47    0.35
   0  -2   4    4.61    0.37
   0   2   4    4.84    0.34
   0   2   4    4.33    0.33
   2  -2   4   37.53    2.04
   2  -2   4   36.19    2.05
   2  -2   4   39.69    2.02
  -2  -2  -4   32.01    2.05
   2   2   4   36.69    2.03
   2   2   4   37.53    2.03
   4  -2   4    8.16    0.50
  -4  -2  -4    8.14    0.58
   4   2   4    7.88    0.49
   4   2   4    7.14    0.49
  -4   2  -4    8.15    0.57
  -6  -2  -4   27.82    1.55
   6  -2   4   26.74    1.48
   6  -2   4   25.31    1.48
   6   2   4   25.67    1.48
   6   2   4   24.70    1.49
  -6   2  -4   27.62    1.55
  -8  -2  -4   31.59    1.79
   8  -2   4   28.18    1.68
   8  -2   4   29.44    1.67
   8   2   4   28.63    1.69
  -8   2  -4   30.87    1.76
   8   2   4   29.31    1.67
  10  -2   4    3.19    0.30
  10  -2   4    3.40    0.35
 -10  -2  -4    2.34    0.49
  10   2   4    3.30    0.37
 -10   2  -4    2.74    0.47
 -12  -2  -4    4.08    0.60
  12  -2   4    3.61    0.37
  12   2   4    3.38    0.37
 -12   2  -4    4.00    0.59
 -14  -2  -4    0.52    0.51
  14  -2   4    0.33    0.27
 -14   2  -4    0.45    0.53
  14   2   4    0.18    0.28
 -16  -2  -4    3.24    0.73
  16  -2   4    5.55    0.54
  16   2   4    4.31    0.53
 -16   2  -4    4.21    0.76
  18  -2   4    5.31    0.59
 -18  -2  -4    2.75    0.75
  18   2   4    4.67    0.60
 -18   2  -4    4.36    0.82
 -20  -2  -4   -0.03    0.68
  20  -2   4    0.29    0.45
  20   2   4   -0.32    0.45
 -20   2  -4    0.48    0.73
 -22   2  -4    0.93    0.91
  21  -3  -4    0.43    0.42
 -21  -3   4   -0.53    0.61
 -21   3   4   -0.57    0.58
  21   3  -4    0.00    0.48
 -19  -3   4    0.63    0.59
  19  -3  -4    1.70    0.41
 -19   3   4    0.68    0.54
  19   3  -4    1.41    0.47
  17  -3  -4    0.16    0.31
 -17  -3   4   -0.09    0.48
  17   3  -4    0.65    0.37
 -17   3   4    0.13    0.47
 -15  -3   4   -0.02    0.42
  15  -3  -4    0.59    0.25
 -15   3   4    0.17    0.42
  15   3  -4    0.99    0.32
 -13  -3   4    1.23    0.41
  13  -3  -4    1.47    0.25
 -13   3   4    1.38    0.37
  13   3  -4    1.31    0.27
 -11  -3   4    7.56    0.70
  11  -3  -4    8.46    0.56
  11   3  -4    9.06    0.58
  -9  -3   4    9.08    0.74
  -9  -3   4    9.22    0.61
   9  -3  -4   10.04    0.61
  -9   3   4   10.19    0.61
  -9   3   4   10.37    0.70
   9   3  -4    9.56    0.61
  -7  -3   4    6.99    0.48
  -7  -3   4    7.73    0.60
   7   3  -4    6.86    0.47
  -7   3   4    7.17    0.47
  -7   3   4    8.20    0.54
  -5  -3   4    1.26    0.17
   5  -3  -4    2.09    0.21
  -5  -3   4    1.40    0.25
  -5   3   4    1.02    0.17
   5   3  -4    1.55    0.16
  -5   3   4    1.29    0.16
  -3  -3   4    0.87    0.16
   3  -3  -4    0.91    0.18
  -3  -3   4    0.91    0.19
  -3  -3   4    0.91    0.15
  -3   3   4    1.11    0.15
  -3   3   4    1.25    0.15
  -1  -3   4   51.31    2.81
   1  -3  -4   50.20    2.82
  -1  -3   4   52.20    2.80
  -1   3   4   48.91    2.79
   1  -3   4   23.56    1.38
   1  -3   4   24.74    1.37
   1   3   4   24.26    1.36
   3  -3   4    7.35    0.41
   3  -3   4    7.31    0.45
  -3  -3  -4    5.62    0.50
   3   3   4    6.87    0.44
  -5  -3  -4   14.55    0.90
   5  -3   4   14.58    0.83
  -5   3  -4   13.78    0.89
   5   3   4   13.16    0.83
  -7  -3  -4   21.18    1.23
   7  -3   4   17.89    1.10
   7  -3   4   18.62    1.11
   7   3   4   17.75    1.12
  -7   3  -4   20.68    1.21
   9  -3   4    2.15    0.25
   9  -3   4    2.17    0.29
  -9  -3  -4    3.32    0.50
  -9   3  -4    3.14    0.44
   9   3   4    1.92    0.28
  11  -3   4   11.60    0.74
  11  -3   4   11.06    0.72
 -11  -3  -4   11.04    0.93
 -11   3  -4   11.89    0.91
  11   3   4   11.62    0.77
  13  -3   4    2.60    0.34
 -13  -3  -4    2.46    0.58
 -13   3  -4    2.56    0.56
  13   3   4    2.65    0.37
 -15  -3  -4    3.05    0.67
  15  -3   4    3.51    0.44
 -15   3  -4    3.13    0.68
  15   3   4    3.06    0.46
  17  -3   4    1.54    0.42
 -17  -3  -4    0.91    0.62
  17   3   4    1.74    0.45
 -17   3  -4    1.04    0.67
  19  -3   4    0.46    0.44
 -19  -3  -4    0.03    0.66
  19   3   4    0.58    0.48
 -19   3  -4    0.34    0.68
 -21  -3  -4   -0.08    0.73
  21  -3   4    0.52    0.47
 -21   3  -4    0.44    0.75
  21   3   4    0.00    0.55
  22   4  -4   -0.43    0.52
  20  -4  -4    0.48    0.41
 -20  -4   4   -0.23    0.59
  20   4  -4    0.28    0.45
  18  -4  -4    0.15    0.33
 -18  -4   4    0.28    0.53
  18   4  -4    0.44    0.39
 -18   4   4   -0.16    0.47
  16  -4  -4    1.13    0.31
 -16  -4   4    0.68    0.49
 -16   4   4    0.59    0.35
  16   4  -4    1.37    0.37
 -14  -4   4    0.41    0.42
  14  -4  -4    0.90    0.25
 -14   4   4    0.51    0.35
  14   4  -4    0.46    0.28
 -12  -4   4    2.12    0.45
  12  -4  -4    2.36    0.27
 -12   4   4    1.91    0.38
  12   4  -4    2.64    0.30
 -10  -4   4    4.98    0.59
  10  -4  -4    5.67    0.42
 -10   4   4    6.09    0.53
  10   4  -4    5.55    0.43
 -10   4   4    5.65    0.42
  -8  -4   4    3.01    0.40
  -8   4   4    2.27    0.25
  -8   4   4    2.45    0.31
   8   4  -4    2.10    0.22
  -6  -4   4    2.32    0.35
  -6  -4   4    2.41    0.23
   6  -4  -4    1.84    0.25
  -6   4   4    2.26    0.22
   6   4  -4    1.74    0.22
  -6   4   4    2.59    0.25
  -4  -4   4    6.30    0.47
   4  -4  -4    6.73    0.45
  -4  -4   4    5.62    0.41
  -4  -4   4    5.53    0.39
  -4   4   4    5.57    0.39
  -4   4   4    6.18    0.40
   2  -4  -4    2.16    0.29
  -2  -4   4    2.45    0.26
  -2  -4   4    2.65    0.29
  -2   4   4    2.71    0.23
   2   4  -4    2.47    0.21
  -2   4   4    2.60    0.23
   0  -4   4   16.52    0.93
   0  -4  -4   15.30    0.96
   0  -4   4   15.65    0.94
   0   4   4   16.48    0.91
   2  -4   4    7.82    0.53
   2  -4   4    8.31    0.52
  -2  -4  -4    9.09    0.56
   2   4   4    7.39    0.50
   4  -4   4    1.00    0.12
  -4  -4  -4    0.84    0.21
   4  -4   4    1.00    0.18
  -4  -4  -4    0.97    0.26
  -4   4  -4    0.91    0.24
   4   4   4    0.99    0.17
   6  -4   4    2.74    0.29
  -6  -4  -4    3.41    0.42
  -6   4  -4    3.39    0.39
   6   4   4    2.34    0.28
   8  -4   4    7.75    0.52
   8  -4   4    7.69    0.50
  -8  -4  -4    6.94    0.54
  -8  -4  -4    6.72    0.68
   8   4   4    7.30    0.54
  -8   4  -4    7.52    0.66
 -10  -4  -4    5.18    0.46
  10  -4   4    5.39    0.43
  10  -4   4    4.91    0.43
 -10  -4  -4    4.92    0.66
 -10   4  -4    5.40    0.60
  10   4   4    4.68    0.47
 -12  -4  -4    6.05    0.72
  12  -4   4    5.48    0.45
  12  -4   4    5.59    0.49
  12   4   4    5.35    0.54
 -12   4  -4    5.10    0.69
 -14  -4  -4    3.06    0.64
  14  -4   4    3.16    0.39
  14   4   4    2.72    0.43
 -14   4  -4    3.66    0.63
  16  -4   4    0.91    0.36
 -16  -4  -4    1.25    0.62
 -16   4  -4    0.87    0.60
  16   4   4    0.93    0.41
  18  -4   4    0.64    0.40
 -18  -4  -4    0.18    0.66
  18   4   4    0.86    0.47
 -18   4  -4    1.06    0.65
  20  -4   4    0.96    0.46
 -20  -4  -4   -0.09    0.69
  20   4   4    0.70    0.52
 -20   4  -4    0.88    0.73
 -22   4  -4    0.77    0.86
 -21  -5   4   -0.51    0.64
  21  -5  -4    0.85    0.42
  21   5  -4    0.06    0.51
  19  -5  -4    0.25    0.35
 -19  -5   4   -0.06    0.58
  19   5  -4   -0.06    0.41
 -17  -5   4   -0.03    0.51
  17  -5  -4    0.91    0.31
  17   5  -4   -0.28    0.35
  15  -5  -4    0.55    0.26
 -15  -5   4   -0.06    0.45
 -15   5   4    0.18    0.40
  15   5  -4    0.52    0.31
 -13  -5   4    0.56    0.42
  13  -5  -4    0.60    0.21
 -13   5   4    0.91    0.37
  13   5  -4    0.88    0.28
  11  -5  -4   -0.10    0.15
 -11  -5   4    0.00    0.35
 -11   5   4    0.14    0.22
  11   5  -4   -0.01    0.20
 -11   5   4   -0.17    0.30
  -9  -5   4    0.44    0.20
   9  -5  -4    0.06    0.13
  -9  -5   4   -0.04    0.32
   9  -5  -4    0.04    0.18
  -9   5   4    0.18    0.19
  -9   5   4    0.43    0.27
   9   5  -4    0.12    0.17
  -7  -5   4    2.18    0.24
  -7  -5   4    1.82    0.38
   7  -5  -4    2.10    0.27
  -7   5   4    2.22    0.24
   7   5  -4    1.97    0.21
  -7   5   4    1.84    0.27
  -5  -5   4   -0.01    0.18
   5  -5  -4   -0.32    0.21
  -5  -5   4   -0.04    0.26
  -5   5   4    0.04    0.17
  -5   5   4    0.01    0.17
  -3  -5   4    1.06    0.21
   3  -5  -4    1.07    0.23
  -3  -5   4    1.15    0.24
   3   5  -4    1.13    0.15
  -3   5   4    1.08    0.17
  -3   5   4    0.92    0.17
  -1  -5   4    1.57    0.23
  -1  -5   4    1.75    0.24
   1  -5  -4    1.56    0.25
  -1   5   4    1.95    0.19
   1   5  -4    2.02    0.18
   1  -5   4    6.86    0.47
   1  -5   4    6.86    0.47
  -1  -5  -4    5.81    0.49
   1   5   4    6.65    0.43
   3  -5   4    9.73    0.63
   3  -5   4    9.89    0.63
  -3  -5  -4    9.40    0.66
  -3  -5  -4    9.69    0.63
   3   5   4    9.45    0.60
   5  -5   4    2.34    0.32
  -5  -5  -4    2.45    0.33
   5  -5   4    2.20    0.22
  -5  -5  -4    2.81    0.37
  -5   5  -4    2.68    0.36
   5   5   4    2.29    0.26
  -7  -5  -4    2.23    0.42
  -7  -5  -4    2.15    0.29
   7  -5   4    2.18    0.27
   7   5   4    2.03    0.27
  -7   5  -4    2.77    0.38
   9  -5   4    7.81    0.55
   9  -5   4    8.37    0.53
  -9  -5  -4    7.06    0.59
  -9  -5  -4    7.02    0.72
   9   5   4    8.26    0.58
  -9   5  -4    7.15    0.68
 -11  -5  -4    2.44    0.53
  11  -5   4    2.88    0.30
  11  -5   4    2.47    0.31
  11   5   4    2.71    0.34
 -11   5  -4    2.46    0.48
 -13  -5  -4    0.76    0.53
  13  -5   4    1.50    0.29
  13   5   4    0.80    0.34
 -13   5  -4    0.88    0.48
 -15  -5  -4    0.51    0.58
  15  -5   4    0.89    0.32
 -15   5  -4    1.04    0.53
  15   5   4    0.69    0.39
  17  -5   4    0.33    0.36
 -17  -5  -4    0.09    0.61
 -17   5  -4    0.76    0.59
  17   5   4    0.10    0.42
 -19  -5  -4   -0.82    0.63
  19  -5   4   -0.06    0.40
 -19   5  -4    0.51    0.62
  19   5   4   -0.04    0.47
  21  -5   4    0.91    0.50
  21   5   4    0.65    0.53
 -21   5  -4    0.38    0.73
 -20  -6   4   -0.68    0.58
  20  -6  -4    0.65    0.39
  20   6  -4   -0.79    0.48
  18  -6  -4    0.54    0.33
 -18  -6   4   -0.30    0.52
  18   6  -4   -0.14    0.40
 -16  -6   4    1.43    0.55
  16  -6  -4    2.77    0.37
  16   6  -4    2.35    0.43
 -14  -6   4    0.85    0.48
  14  -6  -4    1.05    0.27
  14   6  -4    0.99    0.31
  12  -6  -4   -0.05    0.17
 -12  -6   4   -0.37    0.38
  12   6  -4   -0.03    0.23
 -12   6   4    0.21    0.50
 -12   6   4    0.08    0.25
  10  -6  -4    0.63    0.23
 -10  -6   4    1.00    0.26
 -10  -6   4    1.08    0.39
  10  -6  -4    0.92    0.19
 -10   6   4    1.21    0.24
  10   6  -4    0.91    0.21
  -8  -6   4    2.61    0.43
   8  -6  -4    2.36    0.30
   8   6  -4    2.76    0.25
  -8   6   4    3.12    0.28
  -6  -6   4    9.84    0.74
   6  -6  -4    9.29    0.69
  -6  -6   4    9.79    0.64
  -6   6   4    9.53    0.61
  -6   6   4    9.71    0.63
   4  -6  -4    0.07    0.24
  -4  -6   4    0.17    0.22
  -4  -6   4    0.21    0.27
   4   6  -4    0.19    0.16
  -4   6   4    0.46    0.18
  -4   6   4    0.16    0.18
  -2  -6   4    0.06    0.23
  -2  -6   4    0.27    0.22
   2  -6  -4    0.16    0.24
   2   6  -4    0.33    0.15
  -2   6   4    0.09    0.16
   0  -6   4    0.93    0.23
   0  -6  -4    0.34    0.23
   0  -6   4    0.75    0.21
   0   6  -4    0.81    0.16
   0   6   4    0.56    0.16
   2  -6   4   36.32    2.06
  -2  -6  -4   36.03    2.08
   2  -6   4   36.96    2.06
   2   6   4   35.84    2.03
  -4  -6  -4    3.64    0.44
   4  -6   4    4.20    0.41
  -4  -6  -4    4.10    0.43
   4  -6   4    3.88    0.28
   4   6   4    3.97    0.36
  -6  -6  -4    0.72    0.32
   6  -6   4    0.71    0.22
  -6  -6  -4    0.60    0.26
   6  -6   4    0.60    0.13
  -6   6  -4    0.62    0.26
   6   6   4    0.84    0.21
  -8  -6  -4    1.29    0.40
   8  -6   4    1.26    0.25
  -8  -6  -4    0.88    0.28
   8   6   4    1.17    0.24
  -8   6  -4    1.41    0.34
 -10  -6  -4    0.47    0.27
 -10  -6  -4    0.54    0.44
  10  -6   4    0.21    0.21
  10  -6   4    0.33    0.17
  10   6   4    0.39    0.25
 -10   6  -4    0.24    0.34
  12  -6   4    3.48    0.44
  12  -6   4    4.59    0.45
 -12  -6  -4    4.67    0.68
 -12   6  -4    4.48    0.59
  12   6   4    4.78    0.53
 -14  -6  -4   -0.04    0.55
  14  -6   4    0.10    0.27
 -14   6  -4    0.61    0.47
  14   6   4    0.30    0.36
 -16  -6  -4    0.10    0.59
  16  -6   4    0.02    0.32
  16   6   4   -0.24    0.39
 -16   6  -4    0.57    0.52
 -18  -6  -4    0.37    0.68
  18  -6   4   -0.31    0.37
  18   6   4    0.10    0.46
 -18   6  -4    0.47    0.57
 -20  -6  -4   -0.76    0.69
  20  -6   4   -0.01    0.45
 -20   6  -4    0.16    0.64
  20   6   4   -0.10    0.48
 -19  -7   4   -0.40    0.56
  19  -7  -4    0.30    0.35
 -17  -7   4   -0.82    0.51
  17  -7  -4    0.25    0.29
  15  -7  -4    0.47    0.26
 -15  -7   4    0.05    0.49
  15   7  -4   -0.16    0.30
  13  -7  -4   -0.21    0.20
 -13  -7   4   -0.01    0.44
 -13  -7   4    0.49    0.32
  13   7  -4   -0.53    0.25
  11  -7  -4    0.55    0.19
 -11  -7   4   -0.15    0.42
  11  -7  -4    0.60    0.23
  11   7  -4    0.11    0.22
 -11   7   4    0.60    0.24
  -9  -7   4    2.66    0.31
   9  -7  -4    1.92    0.31
  -9  -7   4    1.72    0.44
  -9   7   4    2.59    0.29
   9   7  -4    2.19    0.25
  -7  -7   4    0.91    0.36
   7  -7  -4    1.00    0.27
  -7  -7   4    1.21    0.27
  -7   7   4    1.05    0.24
   7   7  -4    1.28    0.20
  -7   7   4    1.11    0.22
   5  -7  -4    0.12    0.27
  -5  -7   4    0.12    0.23
  -5  -7   4   -0.17    0.29
   5   7  -4    0.06    0.17
  -5   7   4    0.27    0.18
  -5   7   4    0.28    0.19
   3  -7  -4    3.12    0.38
  -3  -7   4    3.01    0.35
  -3  -7   4    3.02    0.37
  -3   7   4    2.51    0.27
   3   7  -4    3.22    0.29
  -3   7   4    2.49    0.30
   1  -7  -4    0.13    0.26
  -1  -7   4    0.48    0.25
  -1  -7   4    0.69    0.25
   1   7  -4    0.32    0.17
  -1   7   4    0.55    0.18
  -1   7   4    0.49    0.18
   1  -7   4    1.96    0.29
  -1  -7  -4    1.29    0.31
   1  -7   4    1.75    0.27
  -1   7  -4    1.90    0.22
   1   7   4    1.42    0.21
   3  -7   4    3.28    0.37
   3  -7   4    3.83    0.40
  -3  -7  -4    3.26    0.44
   3   7   4    3.75    0.34
   5  -7   4    1.61    0.28
  -5  -7  -4    1.76    0.33
   5  -7   4    1.65    0.16
  -5  -7  -4    1.52    0.32
   5   7   4    1.43    0.23
  -5   7  -4    1.07    0.27
   7  -7   4    3.73    0.31
  -7  -7  -4    2.91    0.45
   7  -7   4    3.40    0.39
  -7  -7  -4    3.45    0.45
   7   7   4    3.54    0.39
   9  -7   4    0.23    0.12
   9  -7   4    0.42    0.22
  -9  -7  -4   -0.07    0.27
  -9  -7  -4    0.09    0.39
  -9   7  -4    0.40    0.19
   9   7   4    0.31    0.23
  11  -7   4    0.18    0.19
  11  -7   4    0.00    0.22
 -11  -7  -4   -0.12    0.47
 -11  -7  -4    0.16    0.28
 -11   7  -4   -0.11    0.38
  11   7   4    0.20    0.27
 -13  -7  -4   -0.05    0.53
  13  -7   4    0.62    0.26
  13  -7   4    0.31    0.25
  13   7   4    0.11    0.34
 -13   7  -4    1.10    0.46
  15  -7   4    0.24    0.29
 -15  -7  -4    0.26    0.60
 -15   7  -4    0.64    0.48
  15   7   4   -0.16    0.37
 -17  -7  -4   -0.82    0.60
  17  -7   4   -0.39    0.32
  17   7   4    0.18    0.42
 -17   7  -4    0.55    0.53
 -19  -7  -4   -0.53    0.65
  19  -7   4    0.01    0.41
 -19   7  -4    0.50    0.66
  19   7   4   -0.26    0.45
  18  -8  -4    0.58    0.31
 -18  -8   4   -0.43    0.57
  16  -8  -4    0.04    0.26
 -16  -8   4   -0.07    0.53
  14  -8  -4    0.92    0.26
 -14  -8   4    0.19    0.51
  12  -8  -4    0.05    0.21
 -12  -8   4   -0.20    0.47
 -12   8   4    0.28    0.27
 -10  -8   4    0.80    0.45
  10  -8  -4    0.87    0.20
  10  -8  -4    0.77    0.27
  -8  -8   4    2.20    0.35
   8  -8  -4    2.23    0.34
  -8  -8   4    1.69    0.45
  -8   8   4    2.49    0.29
   8   8  -4    3.23    0.28
  -6  -8   4    0.67    0.35
   6  -8  -4    1.17    0.31
  -6  -8   4    0.30    0.20
  -6   8   4    0.83    0.21
  -6   8   4    0.82    0.22
   6   8  -4    1.36    0.21
  -4  -8   4    0.64    0.30
  -4  -8   4    0.84    0.28
   4  -8  -4    0.86    0.31
  -4   8   4    0.62    0.19
  -4   8   4    0.58    0.20
   4   8  -4    1.16    0.20
  -2  -8   4    3.06    0.36
  -2  -8   4    2.63    0.35
   2  -8  -4    2.67    0.39
  -2   8   4    2.70    0.27
   2   8  -4    3.32    0.28
  -2   8   4    2.82    0.30
   0  -8   4    4.63    0.44
   0  -8  -4    3.69    0.48
   0  -8   4    4.56    0.46
   0   8   4    4.85    0.36
   0   8  -4    4.04    0.36
   0   8   4    4.99    0.38
   2  -8   4    5.31    0.46
  -2  -8  -4    5.08    0.54
   2  -8   4    5.40    0.48
  -2   8  -4    5.09    0.39
   2   8   4    5.17    0.40
  -4  -8  -4    1.77    0.33
   4  -8   4    2.85    0.34
  -4  -8  -4    2.48    0.39
   4   8   4    2.88    0.28
   6  -8   4    3.68    0.45
   6  -8   4    4.64    0.32
  -6  -8  -4    3.50    0.46
  -6  -8  -4    4.64    0.50
  -6   8  -4    3.69    0.48
   6   8   4    4.02    0.40
  -8  -8  -4    2.01    0.38
  -8  -8  -4    1.27    0.41
   8  -8   4    1.69    0.21
   8  -8   4    1.59    0.29
  -8   8  -4    2.03    0.38
   8   8   4    1.72    0.29
 -10  -8  -4    0.04    0.33
  10  -8   4    0.17    0.24
  10  -8   4    0.15    0.16
 -10  -8  -4   -0.16    0.44
  10   8   4   -0.01    0.27
 -10   8  -4    0.58    0.33
  12  -8   4    1.07    0.25
 -12  -8  -4    0.17    0.51
  12  -8   4    0.47    0.26
  12   8   4    0.76    0.33
 -14  -8  -4    0.08    0.56
  14  -8   4    1.13    0.30
 -14   8  -4    1.37    0.40
  14   8   4    0.70    0.37
 -16  -8  -4   -0.42    0.59
  16  -8   4    0.54    0.32
  16   8   4    0.29    0.41
 -16   8  -4    0.97    0.64
  18  -8   4    0.21    0.37
 -18  -8  -4   -0.38    0.64
  18   8   4    0.82    0.47
  20  -8   4   -0.24    0.44
  20   8   4   -0.58    0.52
 -19  -9   4   -0.67    0.80
  19  -9  -4    1.05    0.37
 -17  -9   4   -0.06    0.59
  17  -9  -4    1.17    0.32
 -15  -9   4    0.31    0.56
  15  -9  -4    1.34    0.29
 -13  -9   4    2.34    0.60
  13  -9  -4    2.45    0.32
 -13   9   4    2.69    0.35
  11  -9  -4    1.52    0.33
  11  -9  -4    2.08    0.28
 -11  -9   4    1.32    0.53
  11   9  -4    3.00    0.33
 -11   9   4    1.52    0.31
  -9  -9   4    4.16    0.60
   9  -9  -4    4.18    0.53
  -9  -9   4    5.87    0.57
   9   9  -4    5.93    0.44
  -9   9   4    5.10    0.44
   7  -9  -4    2.02    0.37
  -7  -9   4    2.25    0.45
   7   9  -4    2.39    0.28
  -7   9   4    2.68    0.30
  -7   9   4    2.17    0.29
   5  -9  -4    1.84    0.39
  -5  -9   4    2.39    0.37
  -5  -9   4    1.55    0.38
   5   9  -4    2.22    0.26
  -5   9   4    1.82    0.26
  -5   9   4    2.21    0.27
   3  -9  -4    8.24    0.73
  -3  -9   4    8.96    0.70
  -3  -9   4    9.42    0.69
  -3   9   4    8.75    0.59
   3   9  -4    8.80    0.58
  -3   9   4    9.36    0.59
  -1  -9   4    1.31    0.30
   1  -9  -4    1.25    0.34
  -1  -9   4    1.24    0.32
  -1   9   4    1.47    0.24
   1   9  -4    1.93    0.23
  -1   9   4    0.97    0.20
   1  -9   4    0.75    0.28
   1  -9   4    0.95    0.26
  -1  -9  -4    0.60    0.33
   1   9   4    0.82    0.20
  -1   9  -4    0.52    0.21
   3  -9   4    5.35    0.50
  -3  -9  -4    5.36    0.57
   3  -9   4    4.99    0.47
   3   9   4    4.79    0.40
  -5  -9  -4    2.09    0.38
  -5  -9  -4    2.49    0.43
   5  -9   4    2.91    0.37
   5   9   4    2.67    0.30
  -5   9  -4    2.22    0.37
   7  -9   4    2.97    0.39
  -7  -9  -4    2.62    0.46
   7  -9   4    3.10    0.29
  -7  -9  -4    2.76    0.46
   7   9   4    3.20    0.34
  -7   9  -4    2.65    0.42
   9  -9   4    5.10    0.53
  -9  -9  -4    4.79    0.60
  -9  -9  -4    5.26    0.62
   9  -9   4    6.58    0.44
   9   9   4    5.49    0.54
  -9   9  -4    5.39    0.61
  11  -9   4    0.43    0.20
 -11  -9  -4    0.80    0.41
  11  -9   4    0.17    0.26
 -11  -9  -4    0.32    0.50
 -11   9  -4    1.08    0.38
  11   9   4    0.24    0.31
  13  -9   4    0.92    0.30
  13  -9   4    1.67    0.29
 -13  -9  -4    0.95    0.58
  13   9   4    1.50    0.39
  15  -9   4    0.98    0.31
 -15  -9  -4   -0.16    0.59
  15   9   4    0.38    0.39
  17  -9   4    0.56    0.36
 -17  -9  -4   -0.19    0.65
  17   9   4    0.25    0.44
 -19  -9  -4   -0.42    0.69
  19  -9   4    0.42    0.43
  19   9   4   -0.39    0.48
 -18 -10   4   -0.10    0.67
  18 -10  -4    1.21    0.36
 -16 -10   4   -0.42    0.58
  16 -10  -4    0.72    0.28
 -16  10   4    0.20    0.32
 -14 -10   4    1.18    0.59
  14 -10  -4    1.57    0.29
 -14  10   4    0.92    0.31
  12 -10  -4    3.89    0.42
 -12 -10   4    2.01    0.61
  12  10  -4    2.87    0.39
  10 -10  -4    0.44    0.21
  10 -10  -4   -0.28    0.29
 -10 -10   4    0.15    0.51
  10  10  -4    0.57    0.28
 -10  10   4    0.36    0.27
   8 -10  -4    1.37    0.38
  -8 -10   4    0.70    0.35
  -8 -10   4    1.72    0.48
  -8  10   4    1.97    0.30
  -6 -10   4    2.51    0.42
  -6 -10   4    1.84    0.44
   6 -10  -4    1.75    0.40
   6  10  -4    2.31    0.28
  -6  10   4    2.30    0.29
  -6  10   4    1.81    0.28
  -4 -10   4    1.78    0.40
   4 -10  -4    1.18    0.39
  -4 -10   4    2.43    0.40
  -4  10   4    2.17    0.26
   4  10  -4    1.54    0.26
  -4  10   4    2.28    0.28
  -2 -10   4    4.32    0.51
   2 -10  -4    4.68    0.55
  -2 -10   4    4.99    0.53
  -2  10   4    4.23    0.39
  -2  10   4    4.01    0.39
   2  10  -4    4.29    0.38
   0 -10   4    2.80    0.38
   0 -10  -4    3.08    0.46
   0 -10   4    2.99    0.41
   0  10  -4    3.65    0.32
   0  10   4    2.95    0.31
  -2 -10  -4    2.13    0.43
   2 -10   4    1.67    0.35
   2 -10   4    2.49    0.34
  -2  10  -4    2.52    0.28
   2  10   4    1.92    0.27
   4 -10   4    0.62    0.28
  -4 -10  -4    1.32    0.42
   4  10   4    0.42    0.20
   6 -10   4    4.28    0.51
  -6 -10  -4    4.08    0.54
  -6 -10  -4    2.91    0.48
  -6  10  -4    3.22    0.45
   6  10   4    3.54    0.41
  -8 -10  -4    4.37    0.59
  -8 -10  -4    5.94    0.70
   8 -10   4    4.52    0.53
   8  10   4    5.02    0.50
  -8  10  -4    4.64    0.59
 -10 -10  -4    2.17    0.55
 -10 -10  -4    1.12    0.25
  10 -10   4    1.70    0.35
  10  10   4    2.54    0.36
 -12 -10  -4    1.20    0.57
  12 -10   4    1.58    0.33
  12  10   4    1.84    0.38
 -14 -10  -4    0.24    0.57
  14  10   4    2.04    0.43
 -16 -10  -4   -0.13    0.60
 -18 -10  -4   -0.84    0.66
 -17 -11   4    0.21    0.64
  17 -11  -4    0.95    0.32
 -17  11   4    0.26    0.33
 -15 -11   4   -0.32    0.61
  15 -11  -4    1.08    0.29
 -13 -11   4    1.10    0.60
  13 -11  -4    1.64    0.29
  13  11  -4    2.02    0.37
 -13  11   4    0.74    0.31
  11 -11  -4    0.86    0.36
  11 -11  -4    1.67    0.27
 -11 -11   4    1.38    0.61
 -11  11   4    0.69    0.30
  11  11  -4    1.31    0.34
  -9 -11   4    1.11    0.52
   9 -11  -4    0.18    0.36
  -9 -11   4    0.93    0.44
   9  11  -4    0.75    0.32
  -9  11   4    0.91    0.29
   7 -11  -4    2.69    0.47
  -7 -11   4    3.31    0.55
  -7 -11   4    3.77    0.51
  -7  11   4    2.74    0.36
   7  11  -4    3.41    0.37
  -7  11   4    3.95    0.36
  -5 -11   4    1.82    0.44
  -5 -11   4    1.60    0.43
   5 -11  -4    1.66    0.45
  -5  11   4    1.69    0.28
  -5  11   4    1.41    0.29
  -3 -11   4    0.54    0.35
  -3 -11   4    0.63    0.38
   3 -11  -4    0.19    0.38
  -3  11   4    0.43    0.25
   3  11  -4    0.32    0.22
  -3  11   4    0.64    0.22
  -1 -11   4   -0.15    0.33
  -1 -11   4    0.12    0.30
   1 -11  -4    0.10    0.39
   1  11  -4   -0.14    0.22
  -1  11   4   -0.13    0.23
  -1  11   4    0.02    0.19
   1 -11   4    4.86    0.58
   1 -11   4    5.31    0.53
  -1 -11  -4    5.73    0.70
   1  11   4    5.34    0.44
   1  11   4    5.17    0.45
  -1  11  -4    4.91    0.45
   3 -11   4    0.99    0.36
  -3 -11  -4    1.12    0.47
   3 -11   4    1.11    0.32
   3  11   4    1.42    0.25
  -3  11  -4    1.38    0.27
  -5 -11  -4    1.22    0.48
   5 -11   4   -0.05    0.33
   5  11   4    0.22    0.23
  -7 -11  -4    1.30    0.49
   7 -11   4    0.57    0.35
   7  11   4    0.91    0.27
  -9 -11  -4    3.76    0.62
   9 -11   4    2.26    0.41
   9  11   4    3.12    0.39
  11 -11   4    2.63    0.41
 -11 -11  -4    2.09    0.57
  13 -11   4    0.31    0.30
 -13 -11  -4   -0.05    0.57
 -15 -11  -4   -0.41    0.60
 -17 -11  -4   -0.13    0.67
  16 -12  -4    0.84    0.30
 -16 -12   4    0.31    0.66
 -16  12   4    0.02    0.32
  14 -12  -4    1.00    0.29
 -14 -12   4   -0.44    0.60
 -14  12   4   -0.05    0.30
 -12 -12   4    0.33    0.58
  12 -12  -4    0.96    0.27
 -12  12   4    0.31    0.30
  10 -12  -4    0.63    0.38
  10 -12  -4    1.57    0.25
 -10 -12   4    0.54    0.57
 -10  12   4    0.64    0.29
  10  12  -4    1.15    0.34
  -8 -12   4    2.80    0.60
  -8 -12   4    2.49    0.58
   8 -12  -4    2.26    0.46
  -8  12   4    2.44    0.34
   8  12  -4    2.55    0.37
  -6 -12   4    5.41    0.66
   6 -12  -4    3.80    0.57
  -6 -12   4    4.97    0.65
  -6  12   4    4.74    0.46
  -6  12   4    3.62    0.45
  -4 -12   4    1.70    0.44
   4 -12  -4    1.62    0.48
  -4 -12   4    1.57    0.48
   4  12  -4    2.00    0.31
  -4  12   4    2.10    0.32
  -4  12   4    1.64    0.28
   2 -12  -4    2.14    0.52
  -2 -12   4    3.59    0.55
  -2 -12   4    4.14    0.50
  -2  12   4    3.47    0.38
  -2  12   4    3.65    0.35
   2  12  -4    3.16    0.36
   0 -12  -4    1.07    0.47
   0 -12   4    1.54    0.45
   0 -12   4    1.52    0.46
   0  12   4    1.65    0.32
   0  12  -4    1.20    0.29
   0  12   4    1.58    0.26
   2 -12   4    6.57    0.69
  -2 -12  -4    7.64    0.85
   2  12   4    6.42    0.64
  -2  12  -4    6.70    0.55
  -4 -12  -4    4.33    0.67
   4 -12   4    2.82    0.48
  -4  12  -4    4.15    0.39
   6 -12   4    0.66    0.39
  -6 -12  -4    1.90    0.58
  -6  12  -4    1.46    0.30
  -8 -12  -4    1.96    0.63
   8 -12   4    0.53    0.37
 -10 -12  -4    1.71    0.65
  10 -12   4    0.41    0.34
  12 -12   4    0.25    0.32
 -17  13   4    0.24    0.34
 -15 -13   4    0.69    0.71
 -13 -13   4   -0.18    0.66
 -13  13   4    0.04    0.30
 -11 -13   4    0.04    0.60
  11 -13  -4   -0.20    0.37
 -11  13   4    0.29    0.29
  -9 -13   4    0.63    0.63
  -9 -13   4    1.42    0.58
   9 -13  -4    1.22    0.44
   9  13  -4    2.02    0.38
  -9  13   4    1.26    0.30
  -7 -13   4    1.35    0.57
  -7 -13   4    1.29    0.54
   7 -13  -4    0.65    0.45
   7  13  -4    1.74    0.32
  -5 -13   4    6.57    0.78
  -5 -13   4    6.17    0.85
   5 -13  -4    4.78    0.65
   5  13  -4    6.34    0.53
  -5  13   4    5.63    0.53
   3 -13  -4    0.91    0.52
  -3 -13   4    1.30    0.48
   3  13  -4    1.84    0.32
  -3  13   4    1.20    0.32
  -1 -13   4    1.81    0.52
   1 -13  -4    0.68    0.50
   1  13  -4    1.16    0.31
  -1  13   4    1.35    0.32
   1 -13   4    5.44    0.71
  -1 -13  -4    6.02    0.73
   1  13   4    6.65    0.56
  -1  13  -4    5.86    0.52
   3 -13   4    1.40    0.45
  -3 -13  -4    1.99    0.62
  -3  13  -4    2.43    0.34
   5 -13   4    5.12    0.64
  -5 -13  -4    6.63    0.81
  -7 -13  -4    1.76    0.68
   7 -13   4    1.31    0.43
   9 -13   4    0.38    0.37
  -9 -13  -4    0.48    0.66
  11 -13   4    0.38    0.37
  13 -13   4   -0.36    0.35
 -16  14   4   -0.20    0.33
 -14 -14   4   -0.65    0.72
 -14  14   4   -0.10    0.32
 -12 -14   4   -0.33    0.71
  12  14  -4   -0.23    0.38
  10 -14  -4   -0.55    0.41
 -10  14   4    0.39    0.29
  -8 -14   4    0.02    0.54
   8 -14  -4    0.63    0.46
  -8  14   4    0.12    0.28
   8  14  -4    1.18    0.34
  -6 -14   4    0.68    0.54
   6 -14  -4    0.47    0.48
  -6  14   4    0.39    0.29
   6  14  -4    1.22    0.31
   4 -14  -4    0.57    0.52
  -4 -14   4    0.77    0.54
  -4  14   4    0.63    0.32
   4  14  -4    1.33    0.32
   2 -14  -4   -0.15    0.52
  -2 -14   4    0.21    0.48
  -2  14   4    0.56    0.33
   2  14  -4    0.37    0.28
   0 -14   4    1.92    0.53
   0 -14  -4    1.47    0.60
   0  14   4    1.93    0.37
   0  14  -4    1.82    0.33
   2 -14   4    1.53    0.50
  -2 -14  -4    0.61    0.61
  -2  14  -4    1.24    0.31
   2  14   4    1.66    0.36
   4 -14   4    0.28    0.44
  -4 -14  -4    0.33    0.61
   6 -14   4    0.34    0.43
  -6 -14  -4    0.80    0.62
   8 -14   4    0.59    0.43
  -8 -14  -4    0.70    0.61
  10 -14   4    0.01    0.39
 -10 -14  -4    1.04    0.72
  12 -14   4   -0.85    0.34
 -15  15   4   -0.50    0.32
 -13  15   4   -0.24    0.30
  11 -15  -4   -0.75    0.42
 -11  15   4    0.00    0.31
   9 -15  -4   -0.76    0.44
   9  15  -4    0.65    0.37
  -9  15   4    0.48    0.31
  -7 -15   4   -0.37    0.54
   7 -15  -4   -0.23    0.51
  -7  15   4    0.37    0.29
   7  15  -4    0.76    0.33
  -5 -15   4   -0.14    0.54
   5 -15  -4   -0.40    0.50
   5  15  -4    0.21    0.32
  -5  15   4    0.14    0.32
  -3 -15   4    0.06    0.53
   3 -15  -4   -1.08    0.51
  -3  15   4    0.41    0.32
   3  15  -4    0.28    0.29
  -1 -15   4   -0.71    0.47
   1 -15  -4   -0.38    0.56
  -1  15   4    0.20    0.34
   1  15  -4    0.09    0.27
  -1 -15  -4    0.33    0.62
   1 -15   4   -0.44    0.48
   1  15   4    0.57    0.36
  -1  15  -4    0.26    0.29
  -3 -15  -4    0.89    0.64
   3 -15   4    0.83    0.50
  -5 -15  -4    0.78    0.66
   5 -15   4    1.45    0.52
  -7 -15  -4   -0.32    0.68
   7 -15   4   -0.65    0.42
  -7  15  -4    0.26    0.30
   9 -15   4   -0.71    0.40
  -9 -15  -4   -0.29    0.70
  11 -15   4   -0.52    0.40
 -14  16   4    0.18    0.35
  12  16  -4    0.23    0.42
  10 -16  -4   -0.55    0.51
 -10  16   4    0.19    0.32
  10  16  -4    0.21    0.39
   8 -16  -4   -0.71    0.49
  -8 -16   4   -0.55    0.60
  -8  16   4   -0.21    0.29
   8  16  -4    0.32    0.37
   6 -16  -4   -0.77    0.52
  -6 -16   4   -0.84    0.52
   6  16  -4    0.26    0.33
  -6  16   4   -0.08    0.31
   4 -16  -4   -1.39    0.53
  -4 -16   4   -1.16    0.54
   4  16  -4    0.32    0.32
  -4  16   4   -0.27    0.32
  -2 -16   4   -0.64    0.54
   2 -16  -4   -0.52    0.58
  -2  16   4    0.52    0.35
   2  16  -4    0.25    0.29
   0 -16  -4   -0.48    0.62
   0 -16   4   -0.59    0.52
   0  16  -4   -0.22    0.29
   0  16   4   -0.13    0.37
  -2 -16  -4   -0.81    0.65
   2 -16   4   -0.52    0.50
   2  16   4    0.22    0.37
  -2  16  -4    0.17    0.30
  -4 -16  -4    0.19    0.65
   4 -16   4   -0.28    0.50
   4  16   4    0.43    0.38
   6 -16   4   -0.58    0.47
  -6 -16  -4    0.54    0.78
  -6  16  -4    0.76    0.32
  -8 -16  -4   -0.25    0.70
   8 -16   4   -0.39    0.47
  -8  16  -4    0.37    0.31
  11  17  -4    0.13    0.45
 -11  17   4   -0.09    0.32
  -9  17   4    0.07    0.33
   9  17  -4   -0.29    0.40
  -7 -17   4   -0.38    0.62
   7  17  -4    0.64    0.40
  -5 -17   4   -0.60    0.61
   5  17  -4    0.09    0.36
  -5  17   4    0.07    0.34
  -3 -17   4   -0.02    0.66
   3  17  -4   -0.06    0.33
  -3  17   4   -0.14    0.38
   1 -17  -4   -0.47    0.82
  -1 -17   4   -0.57    0.57
   1  17  -4   -0.14    0.31
  -1  17   4   -0.64    0.35
  -1 -17  -4   -0.43    0.86
   1  17   4   -0.38    0.40
  -1  17  -4   -0.10    0.32
  -3  17  -4    0.51    0.34
   3  17   4    0.43    0.40
  -5  17  -4   -0.13    0.32
  -8  18   4    0.65    0.39
   8  18  -4    0.41    0.43
  -6  18   4    0.41    0.36
   6  18  -4    0.74    0.42
   4  18  -4    0.32    0.38
  -4  18   4    0.12    0.42
  -2  18   4   -0.64    0.41
   2  18  -4   -0.24    0.34
   0  18   4   -0.13    0.39
  -2  18  -4    0.25    0.34
  -4  18  -4    0.00    0.34
   3  19  -4    0.16    0.39
   1  19  -4   -0.33    0.37
  -1  19   4    0.27    0.46
   1  19   4   -0.37    0.47
  -1  19  -4   -0.07    0.35
   3  19   4    0.80    0.48
  22   0  -5   -0.16    0.44
 -22   0   5   -0.65    0.67
 -20   0   5    0.13    0.58
  20   0  -5   -0.21    0.41
  18   0  -5    0.17    0.35
 -18   0   5   -0.67    0.53
  16   0  -5    0.17    0.29
 -16   0   5    0.02    0.48
 -14   0   5   -0.13    0.39
  14   0  -5    0.18    0.23
 -12   0   5    0.11    0.35
  12   0  -5   -0.06    0.18
  10   0  -5   -0.12    0.15
 -10   0   5   -0.12    0.31
 -10   0   5    0.00    0.19
  -8   0   5    0.35    0.28
  -8   0   5    0.06    0.18
   8   0  -5   -0.02    0.13
  -6   0   5    0.02    0.13
  -6   0   5   -0.33    0.20
   6   0  -5   -0.06    0.09
  -4   0   5    0.00    0.16
  -4   0   5    0.05    0.12
  -2   0   5    0.00    0.11
  -2   0   5   -0.15    0.11
  -2   0   5   -0.05    0.16
   0   0   5   -0.08    0.12
   0   0   5   -0.10    0.15
   0   0   5   -0.09    0.16
   2   0   5   -0.04    0.15
  -2   0  -5   -0.09    0.25
   2   0   5   -0.28    0.16
   4   0   5   -0.05    0.13
   4   0   5   -0.07    0.12
  -4   0  -5   -0.21    0.22
  -6   0  -5    0.01    0.26
   6   0   5    0.13    0.14
   6   0   5    0.09    0.13
   8   0   5    0.27    0.18
  -8   0  -5    0.06    0.36
   8   0   5    0.05    0.15
 -10   0  -5    0.37    0.39
  10   0   5    0.17    0.19
  10   0   5    0.12    0.16
 -12   0  -5    0.38    0.45
  12   0   5   -0.03    0.22
 -14   0  -5    0.52    0.53
  14   0   5   -0.06    0.27
  16   0   5   -0.47    0.33
 -16   0  -5    0.23    0.59
  18   0   5   -0.10    0.40
 -18   0  -5   -0.46    0.61
  20   0   5   -0.24    0.44
 -20   0  -5    0.08    0.72
 -23   1   5   -0.43    0.80
  21  -1  -5    0.67    0.46
 -21  -1   5   -0.84    0.64
 -21   1   5   -0.27    0.64
  21   1  -5    0.03    0.45
  19  -1  -5    0.58    0.37
 -19  -1   5   -0.66    0.53
  19   1  -5    0.46    0.40
 -19   1   5   -0.42    0.51
  17  -1  -5    0.31    0.31
 -17  -1   5   -0.18    0.48
 -17   1   5   -0.07    0.47
  17   1  -5    0.39    0.34
  15  -1  -5    0.42    0.27
 -15  -1   5   -0.01    0.43
  15   1  -5    0.37    0.27
 -15   1   5   -0.16    0.42
 -13  -1   5    1.81    0.42
  13  -1  -5    1.54    0.25
 -13  -1   5    1.81    0.27
 -13   1   5    2.06    0.44
  13   1  -5    2.14    0.29
 -11  -1   5    0.37    0.34
  11  -1  -5    0.59    0.18
  11   1  -5    0.87    0.19
 -11   1   5    0.73    0.21
 -11   1   5    0.68    0.34
  -9  -1   5    2.55    0.25
  -9  -1   5    2.57    0.39
   9  -1  -5    2.45    0.28
  -9   1   5    2.71    0.26
  -9   1   5    2.40    0.36
   9   1  -5    2.25    0.27
   7  -1  -5    2.58    0.23
  -7  -1   5    2.56    0.25
  -7  -1   5    3.08    0.40
  -7   1   5    1.77    0.25
  -7   1   5    2.89    0.25
   7   1  -5    2.31    0.23
  -5  -1   5    3.83    0.36
  -5  -1   5    3.60    0.27
  -5   1   5    3.38    0.29
   5   1  -5    3.58    0.25
  -5   1   5    3.54    0.27
  -3  -1   5   21.91    1.23
  -3  -1   5   21.05    1.20
  -3  -1   5   20.92    1.20
  -3  -1   5   21.41    1.20
  -3   1   5   21.64    1.21
  -3   1   5   21.45    1.21
  -3   1   5   21.96    1.20
  -1  -1   5   17.53    1.02
  -1  -1   5   18.63    1.06
  -1  -1   5   18.28    1.04
  -1   1   5   18.72    1.04
  -1   1   5   17.62    1.03
  -1   1   5   18.74    1.04
  -1  -1  -5   23.54    1.35
   1  -1   5   23.74    1.35
   1  -1   5   23.24    1.33
   1  -1   5   24.62    1.31
   1   1   5   23.43    1.33
   1   1   5   22.95    1.33
   3  -1   5    5.31    0.33
   3  -1   5    5.03    0.36
  -3  -1  -5    4.61    0.46
  -3   1  -5    4.49    0.44
   3   1   5    4.79    0.34
   3   1   5    4.82    0.35
   5  -1   5    6.09    0.41
   5  -1   5    5.81    0.41
  -5  -1  -5    6.28    0.52
   5   1   5    6.67    0.43
  -5   1  -5    6.38    0.52
   5   1   5    6.52    0.41
   7  -1   5    7.34    0.50
   7  -1   5    7.41    0.49
  -7  -1  -5    7.46    0.65
   7   1   5    7.45    0.49
   7   1   5    7.46    0.51
  -7   1  -5    6.63    0.63
   9  -1   5    6.27    0.44
   9  -1   5    6.24    0.48
  -9  -1  -5    6.62    0.68
  -9   1  -5    6.58    0.66
   9   1   5    5.88    0.48
   9   1   5    6.19    0.45
  11  -1   5    4.62    0.45
 -11  -1  -5    4.91    0.62
 -11   1  -5    4.46    0.63
  11   1   5    4.99    0.45
 -13  -1  -5    1.23    0.53
  13  -1   5    1.26    0.29
 -13   1  -5    1.45    0.52
  13   1   5    1.55    0.30
 -15  -1  -5    1.96    0.62
  15  -1   5    2.02    0.38
  15   1   5    1.66    0.38
 -15   1  -5    2.37    0.64
  17  -1   5    0.12    0.36
 -17  -1  -5    0.25    0.59
  17   1   5   -0.10    0.38
 -17   1  -5    0.54    0.62
 -19  -1  -5   -0.18    0.66
  19  -1   5   -0.51    0.40
 -19   1  -5   -0.01    0.66
  19   1   5   -0.52    0.42
  21  -1   5   -0.49    0.48
 -21  -1  -5    0.30    0.73
  21   1   5   -0.04    0.50
 -21   1  -5    0.22    0.76
 -22  -2   5   -0.80    0.67
  22   2  -5    0.70    0.51
 -22   2   5    0.06    0.67
 -20  -2   5   -0.24    0.62
  20  -2  -5    0.69    0.40
  20   2  -5    0.32    0.44
 -20   2   5    0.06    0.56
  18  -2  -5    0.29    0.33
 -18  -2   5   -0.28    0.51
  18   2  -5    0.33    0.38
 -18   2   5   -0.41    0.46
  16  -2  -5    0.65    0.29
 -16  -2   5   -0.48    0.45
 -16   2   5    0.00    0.45
  16   2  -5    0.38    0.33
 -14  -2   5    1.11    0.44
  14  -2  -5    1.40    0.26
 -14  -2   5    1.69    0.29
 -14   2   5    1.47    0.44
  14   2  -5    1.63    0.30
 -12  -2   5    0.15    0.22
 -12  -2   5    0.51    0.36
  12  -2  -5    0.12    0.16
 -12   2   5    0.05    0.34
 -12   2   5    0.45    0.22
  12   2  -5    0.44    0.20
 -10  -2   5    0.65    0.21
 -10  -2   5    0.56    0.33
  10  -2  -5    0.74    0.17
 -10   2   5    0.81    0.20
  10   2  -5    0.80    0.18
   8  -2  -5    2.68    0.26
  -8  -2   5    3.16    0.40
  -8  -2   5    2.90    0.26
  -8   2   5    2.30    0.34
   8   2  -5    2.86    0.27
  -8   2   5    2.65    0.26
  -6  -2   5    4.96    0.45
  -6  -2   5    4.57    0.33
  -6   2   5    4.76    0.38
   6   2  -5    4.17    0.31
  -6   2   5    4.72    0.35
  -6   2   5    4.79    0.33
  -4  -2   5   14.66    0.85
   4  -2  -5   16.74    0.87
  -4  -2   5   15.95    0.90
  -4   2   5   14.54    0.85
   4   2  -5   13.49    0.84
  -4   2   5   14.71    0.86
  -2  -2   5    2.81    0.33
  -2   2   5    3.18    0.26
  -2   2   5    2.82    0.27
   0  -2   5    4.23    0.34
   0  -2   5    3.89    0.37
   0   2   5    3.77    0.31
   0   2   5    3.88    0.32
  -2  -2  -5    6.13    0.50
   2  -2   5    7.14    0.41
   2  -2   5    6.80    0.45
   2  -2   5    6.55    0.48
   2   2   5    6.80    0.44
   2   2   5    6.48    0.44
  -4  -2  -5    7.70    0.58
   4  -2   5    7.92    0.50
   4   2   5    7.83    0.49
  -4   2  -5    7.93    0.58
   4   2   5    7.95    0.50
   6  -2   5   26.67    1.50
   6  -2   5   27.61    1.50
  -6  -2  -5   25.11    1.57
  -6   2  -5   25.76    1.57
   6   2   5   26.58    1.51
   6   2   5   27.25    1.50
  -8  -2  -5    5.05    0.62
   8  -2   5    4.40    0.39
   8  -2   5    4.38    0.37
  -8   2  -5    5.29    0.58
   8   2   5    4.51    0.38
   8   2   5    4.76    0.43
  10  -2   5    3.33    0.37
 -10  -2  -5    4.33    0.58
  10  -2   5    3.20    0.34
  10   2   5    3.62    0.34
  10   2   5    3.42    0.35
 -10   2  -5    4.02    0.52
  12  -2   5    1.60    0.28
 -12  -2  -5    1.38    0.53
 -12   2  -5    1.34    0.47
  12   2   5    1.89    0.30
  14  -2   5    1.95    0.34
 -14  -2  -5    1.57    0.56
 -14   2  -5    2.04    0.57
  14   2   5    1.60    0.35
 -16  -2  -5    2.01    0.64
  16  -2   5    1.61    0.41
 -16   2  -5    2.21    0.66
  16   2   5    1.76    0.42
  18  -2   5    2.46    0.49
 -18  -2  -5    1.63    0.71
  18   2   5    2.16    0.51
 -18   2  -5    2.05    0.73
 -20  -2  -5   -0.17    0.70
  20  -2   5    0.43    0.48
 -20   2  -5    0.87    0.74
  20   2   5   -0.21    0.48
  21  -3  -5    0.68    0.41
 -21  -3   5   -0.25    0.61
 -21   3   5   -0.34    0.64
  21   3  -5    0.12    0.46
 -19  -3   5   -0.12    0.54
  19  -3  -5    0.99    0.37
 -19   3   5    0.17    0.51
  19   3  -5    1.21    0.44
 -17  -3   5    0.60    0.50
  17  -3  -5    1.02    0.33
  17   3  -5    0.92    0.37
 -17   3   5    0.00    0.47
 -15  -3   5    0.83    0.46
  15  -3  -5    1.66    0.29
 -15   3   5    1.05    0.44
  15   3  -5    1.59    0.33
  13  -3  -5    0.90    0.22
 -13  -3   5    1.24    0.41
  13   3  -5    1.35    0.27
  11  -3  -5    1.39    0.20
 -11  -3   5    0.85    0.37
 -11   3   5    1.04    0.32
  11   3  -5    1.37    0.23
  -9  -3   5    6.17    0.44
  -9  -3   5    5.93    0.59
   9  -3  -5    6.38    0.43
  -9   3   5    6.12    0.52
   9   3  -5    6.15    0.43
  -9   3   5    5.83    0.44
  -7  -3   5    3.26    0.39
  -7  -3   5    2.79    0.26
   7   3  -5    2.86    0.26
  -7   3   5    2.89    0.29
  -7   3   5    2.75    0.35
  -7   3   5    2.83    0.33
   5  -3  -5    5.37    0.39
  -5  -3   5    5.98    0.46
  -5  -3   5    5.35    0.36
  -5   3   5    5.24    0.36
  -5   3   5    5.57    0.38
   5   3  -5    4.89    0.33
  -3  -3   5    2.75    0.31
  -3  -3   5    2.51    0.21
   3  -3  -5    2.58    0.26
  -3   3   5    2.58    0.24
  -3   3   5    2.10    0.22
  -1  -3   5    9.28    0.55
  -1  -3   5    8.99    0.58
   1  -3  -5    8.39    0.59
  -1   3   5    8.41    0.53
   1  -3   5    8.39    0.55
   1  -3   5    8.21    0.53
   1   3   5    8.57    0.52
   3  -3   5    1.99    0.25
  -3  -3  -5    2.29    0.32
   3  -3   5    2.27    0.19
   3   3   5    1.77    0.20
   3   3   5    2.17    0.23
  -5  -3  -5   49.01    2.81
   5  -3   5   50.46    2.78
   5   3   5   50.57    2.78
  -5   3  -5   50.25    2.83
   5   3   5   49.81    2.77
   7  -3   5   28.87    1.57
   7  -3   5   27.59    1.55
  -7  -3  -5   26.91    1.65
  -7   3  -5   26.88    1.64
   7   3   5   26.09    1.57
   7   3   5   27.80    1.56
   9  -3   5    8.62    0.56
   9  -3   5    8.36    0.57
  -9  -3  -5    8.04    0.76
  -9   3  -5    8.87    0.71
   9   3   5    7.95    0.55
   9   3   5    7.99    0.59
  11  -3   5    1.50    0.25
 -11  -3  -5    1.68    0.50
  11  -3   5    1.54    0.23
 -11   3  -5    1.91    0.47
  11   3   5    1.64    0.29
 -13  -3  -5    0.94    0.52
  13  -3   5    1.29    0.28
 -13   3  -5    0.60    0.48
  13   3   5    1.07    0.31
  15  -3   5    3.72    0.45
 -15  -3  -5    2.79    0.67
  15   3   5    3.91    0.48
 -15   3  -5    2.77    0.65
 -17  -3  -5    2.51    0.73
  17  -3   5    3.21    0.48
 -17   3  -5    2.55    0.71
  17   3   5    3.62    0.54
 -19  -3  -5   -0.70    0.65
  19  -3   5    0.08    0.41
  19   3   5    0.38    0.48
 -19   3  -5    0.60    0.70
 -21  -3  -5   -0.42    0.74
  21  -3   5    0.08    0.46
 -21   3  -5    0.17    0.76
  21   3   5   -0.61    0.48
  22   4  -5   -0.41    0.53
  20  -4  -5    0.48    0.37
 -20  -4   5   -0.30    0.59
  20   4  -5   -0.12    0.47
  18  -4  -5    0.19    0.32
 -18  -4   5   -0.24    0.51
 -18   4   5   -0.32    0.83
  18   4  -5   -0.15    0.38
  16  -4  -5    2.40    0.36
 -16  -4   5    1.35    0.52
  16   4  -5    3.10    0.42
  14  -4  -5    5.81    0.47
 -14  -4   5    4.24    0.60
  14   4  -5    6.14    0.53
 -14   4   5    3.98    0.56
 -12  -4   5    2.40    0.47
 -12  -4   5    3.34    0.33
  12  -4  -5    2.75    0.32
 -12   4   5    2.88    0.42
  12   4  -5    3.17    0.37
 -10  -4   5    2.18    0.28
  10  -4  -5    2.37    0.27
 -10  -4   5    2.22    0.41
 -10   4   5    3.18    0.28
 -10   4   5    2.49    0.35
  10   4  -5    2.56    0.26
  -8  -4   5    4.62    0.41
  -8  -4   5    5.80    0.57
   8   4  -5    5.80    0.39
  -8   4   5    5.14    0.41
  -6  -4   5    4.33    0.48
   6  -4  -5    4.95    0.41
  -6  -4   5    3.88    0.35
  -6   4   5    4.04    0.35
   6   4  -5    4.88    0.32
  -6   4   5    4.35    0.37
  -4  -4   5   12.54    0.72
  -4  -4   5   13.03    0.79
  -4  -4   5   11.70    0.74
   4  -4  -5   12.29    0.77
  -4   4   5   12.54    0.73
  -4   4   5   12.09    0.72
  -2  -4   5   25.09    1.39
   2  -4  -5   23.84    1.39
  -2  -4   5   23.72    1.37
  -2   4   5   23.68    1.35
   0  -4   5    8.23    0.54
   0  -4   5    8.47    0.53
   0   4   5    8.00    0.51
   2  -4   5    8.87    0.61
  -2  -4  -5   11.20    0.65
   2  -4   5    9.06    0.60
   2   4   5    9.33    0.58
   4  -4   5    7.46    0.49
  -4  -4  -5    5.94    0.54
   4  -4   5    7.63    0.43
  -4  -4  -5    5.95    0.52
   4   4   5    7.38    0.47
   6  -4   5    8.65    0.57
  -6  -4  -5    8.62    0.69
  -6  -4  -5    7.18    0.59
  -6   4  -5    7.79    0.65
   6   4   5    8.64    0.57
   8  -4   5   26.03    1.50
  -8  -4  -5   27.41    1.54
   8  -4   5   25.85    1.49
  -8  -4  -5   25.35    1.60
   8   4   5   25.28    1.51
  -8   4  -5   26.64    1.58
 -10  -4  -5   19.82    1.15
  10  -4   5   19.24    1.12
 -10  -4  -5   17.83    1.27
  10  -4   5   18.66    1.12
  10   4   5   19.48    1.15
 -10   4  -5   17.47    1.23
  12  -4   5    1.75    0.28
 -12  -4  -5    1.64    0.53
  12  -4   5    1.71    0.27
 -12   4  -5    1.60    0.49
  12   4   5    1.79    0.33
  14  -4   5   -0.10    0.27
 -14  -4  -5   -0.22    0.54
 -14   4  -5    0.74    0.52
  14   4   5   -0.22    0.32
  16  -4   5    3.73    0.48
 -16  -4  -5    1.94    0.67
  16   4   5    3.94    0.53
 -16   4  -5    2.62    0.65
 -18  -4  -5    0.12    0.67
  18  -4   5    2.18    0.46
  18   4   5    1.41    0.49
 -18   4  -5    1.39    0.67
 -20  -4  -5   -0.09    0.73
  20  -4   5    0.98    0.46
 -20   4  -5    1.01    0.71
  20   4   5    0.59    0.51
  21  -5  -5    0.82    0.45
 -21  -5   5   -0.09    0.63
  21   5  -5    0.32    0.52
  19  -5  -5    1.67    0.40
 -19  -5   5    0.10    0.56
  19   5  -5    1.12    0.44
 -17  -5   5    0.51    0.51
  17  -5  -5    1.30    0.33
  17   5  -5    0.81    0.37
 -15  -5   5    1.02    0.50
  15  -5  -5    2.73    0.34
  15   5  -5    2.77    0.38
 -15   5   5    1.04    0.74
  13  -5  -5    3.81    0.39
 -13  -5   5    3.11    0.53
  13   5  -5    4.50    0.44
 -13   5   5    3.41    0.36
 -13   5   5    3.17    0.45
 -11  -5   5    3.97    0.50
  11  -5  -5    3.15    0.35
  11   5  -5    4.25    0.39
 -11   5   5    3.99    0.35
 -11   5   5    3.41    0.46
  -9  -5   5    9.87    0.79
  -9  -5   5   10.82    0.67
   9   5  -5   10.58    0.66
  -9   5   5   11.03    0.66
  -7  -5   5   10.68    0.65
  -7  -5   5   10.44    0.77
   7  -5  -5   10.16    0.69
  -7   5   5   10.40    0.67
   7   5  -5   10.13    0.62
  -7   5   5   10.08    0.64
   5  -5  -5   14.59    0.89
  -5  -5   5   14.65    0.92
  -5  -5   5   13.44    0.85
  -5   5   5   14.22    0.84
  -5   5   5   13.19    0.82
  -3  -5   5   16.21    0.93
   3  -5  -5   13.62    0.95
  -3  -5   5   17.52    0.97
   3   5  -5   13.82    0.89
  -3   5   5   16.65    0.91
  -3   5   5   15.66    0.90
  -1  -5   5    4.65    0.41
   1  -5  -5    5.57    0.43
  -1  -5   5    4.63    0.39
  -1   5   5    4.42    0.35
  -1  -5  -5    8.77    0.64
   1  -5   5    9.18    0.60
   1  -5   5    9.26    0.61
   1   5   5    9.33    0.57
   3  -5   5    2.00    0.28
   3  -5   5    2.24    0.27
  -3  -5  -5    2.66    0.35
  -3  -5  -5    3.30    0.34
   3   5   5    1.67    0.23
  -5  -5  -5    8.22    0.65
   5  -5   5    9.39    0.61
  -5  -5  -5    8.75    0.68
   5  -5   5    9.62    0.55
  -5   5  -5    8.15    0.67
   5   5   5    9.11    0.60
   7  -5   5   15.83    0.97
   7  -5   5   17.64    1.02
  -7  -5  -5   16.51    1.10
  -7   5  -5   16.86    1.09
   7   5   5   17.59    1.02
  -9  -5  -5   10.95    0.71
   9  -5   5    9.10    0.63
   9  -5   5    8.99    0.65
  -9  -5  -5    9.41    0.83
   9   5   5    9.48    0.68
  -9   5  -5   10.43    0.78
 -11  -5  -5    9.41    0.68
 -11  -5  -5    8.18    0.84
  11  -5   5    9.08    0.63
  11  -5   5    8.75    0.62
 -11   5  -5    8.25    0.77
  11   5   5    8.89    0.67
 -13  -5  -5    4.19    0.69
  13  -5   5    3.50    0.39
  13  -5   5    2.82    0.37
 -13   5  -5    4.04    0.61
  13   5   5    3.11    0.43
 -15  -5  -5    1.86    0.65
  15  -5   5    3.35    0.43
  15   5   5    2.77    0.47
 -15   5  -5    2.32    0.60
 -17  -5  -5    2.54    0.75
  17  -5   5    3.93    0.51
 -17   5  -5    2.69    0.67
  17   5   5    4.18    0.57
  19  -5   5    0.47    0.44
 -19  -5  -5   -0.39    0.67
 -19   5  -5    0.06    0.64
  19   5   5    0.16    0.46
  21  -5   5    1.12    0.70
 -21   5  -5    1.28    0.72
  20  -6  -5    0.75    0.39
 -20  -6   5   -0.10    0.60
 -18  -6   5    0.14    0.54
  18  -6  -5    1.30    0.35
  18   6  -5    0.71    0.42
 -16  -6   5    0.96    0.52
  16  -6  -5    1.10    0.30
  16   6  -5    0.74    0.34
  14  -6  -5    1.78    0.29
 -14  -6   5    1.67    0.50
  14   6  -5    1.39    0.32
 -14   6   5    2.31    0.33
  12  -6  -5    5.17    0.45
 -12  -6   5    4.43    0.60
  12   6  -5    6.11    0.48
 -12   6   5    5.24    0.46
 -10  -6   5    4.65    0.42
  10  -6  -5    4.01    0.36
 -10  -6   5    4.35    0.58
  10   6  -5    4.87    0.39
  -8  -6   5    4.75    0.57
   8  -6  -5    4.41    0.44
  -8  -6   5    4.78    0.42
  -8  -6   5    5.18    0.41
   8   6  -5    4.90    0.37
  -8   6   5    4.33    0.43
  -8   6   5    5.59    0.40
   6  -6  -5    3.60    0.42
  -6  -6   5    3.72    0.44
  -6  -6   5    3.11    0.36
  -6   6   5    3.25    0.35
  -6   6   5    3.61    0.33
  -4  -6   5   13.35    0.85
   4  -6  -5   14.13    0.89
  -4  -6   5   14.57    0.91
  -4   6   5   12.85    0.81
  -4   6   5   14.01    0.83
   4   6  -5   13.57    0.80
  -2  -6   5   30.72    1.73
   2  -6  -5   28.32    1.74
  -2  -6   5   28.86    1.70
  -2   6   5   30.81    1.68
   2   6  -5   30.57    1.67
   0  -6   5    3.05    0.37
   0  -6  -5    3.57    0.37
   0  -6   5    3.09    0.37
   0   6   5    3.09    0.31
   0   6  -5    3.24    0.29
   2  -6   5   21.89    1.28
  -2  -6  -5   20.05    1.31
   2  -6   5   22.80    1.28
   2   6   5   21.76    1.24
  -4  -6  -5   13.96    0.90
  -4  -6  -5   14.17    0.93
   4  -6   5   14.05    0.89
   4   6   5   14.76    0.87
  -6  -6  -5   16.17    0.98
  -6  -6  -5   14.58    1.00
   6  -6   5   15.03    0.88
   6  -6   5   14.60    0.94
   6   6   5   14.79    0.92
  -6   6  -5   15.58    1.00
   8  -6   5    4.78    0.44
  -8  -6  -5    3.81    0.58
   8  -6   5    4.78    0.36
  -8   6  -5    4.17    0.53
   8   6   5    5.01    0.44
 -10  -6  -5    2.88    0.37
 -10  -6  -5    2.82    0.53
  10  -6   5    2.34    0.32
  10  -6   5    2.67    0.29
 -10   6  -5    2.86    0.47
  10   6   5    2.74    0.34
 -12  -6  -5    4.99    0.70
  12  -6   5    5.73    0.49
  12  -6   5    4.64    0.48
 -12   6  -5    5.64    0.67
  12   6   5    4.62    0.50
  14  -6   5    1.25    0.32
 -14  -6  -5    1.64    0.63
 -14   6  -5    2.66    0.55
  14   6   5    1.54    0.41
 -16  -6  -5    0.37    0.63
  16  -6   5    0.74    0.35
  16   6   5    1.22    0.44
 -16   6  -5    1.53    0.56
 -18  -6  -5    0.01    0.66
  18  -6   5    0.65    0.40
  18   6   5   -0.31    0.43
 -18   6  -5    1.12    0.62
  20  -6   5    0.19    0.45
 -20  -6  -5   -0.07    0.75
  20   6   5    0.59    0.52
 -20   6  -5    0.73    0.63
 -19  -7   5    0.26    0.59
  19  -7  -5    0.87    0.35
 -17  -7   5   -0.47    0.51
  17  -7  -5    0.26    0.27
 -15  -7   5    1.33    0.54
  15  -7  -5    2.56    0.34
 -15   7   5    1.76    0.33
 -13  -7   5    2.73    0.38
 -13  -7   5    2.16    0.52
  13  -7  -5    1.72    0.29
  11  -7  -5    3.97    0.37
  11  -7  -5    3.09    0.40
 -11  -7   5    3.51    0.56
 -11   7   5    3.77    0.36
  11   7  -5    3.94    0.38
  -9  -7   5    6.62    0.69
   9  -7  -5    6.72    0.56
  -9   7   5    7.37    0.51
   9   7  -5    6.83    0.48
  -7  -7   5    2.12    0.42
  -7  -7   5    2.77    0.32
   7  -7  -5    2.35    0.36
  -7   7   5    2.40    0.28
   7   7  -5    2.93    0.26
  -7   7   5    2.28    0.29
   5  -7  -5   11.30    0.83
  -5  -7   5   12.94    0.86
  -5   7   5   12.08    0.74
   5   7  -5   11.67    0.72
  -5   7   5   12.65    0.75
   3  -7  -5   15.14    1.02
  -3  -7   5   16.06    0.98
  -3  -7   5   16.69    1.02
   3   7  -5   16.24    0.93
  -3   7   5   16.07    0.94
  -3   7   5   15.20    0.93
  -1  -7   5    7.86    0.57
   1  -7  -5    5.68    0.60
  -1  -7   5    7.64    0.56
  -1   7   5    8.69    0.52
   1   7  -5    6.63    0.48
  -1  -7  -5    2.43    0.36
   1  -7   5    2.52    0.37
   1  -7   5    2.52    0.32
   1   7   5    2.47    0.30
  -1   7  -5    2.88    0.28
   3  -7   5   10.86    0.73
  -3  -7  -5   11.41    0.79
   3  -7   5   10.66    0.74
   3   7   5   11.42    0.70
  -5  -7  -5   10.25    0.72
  -5  -7  -5    9.35    0.70
   5  -7   5    9.54    0.57
   5  -7   5    9.42    0.67
  -5   7  -5    9.32    0.70
   5   7   5    9.78    0.64
   7  -7   5    7.36    0.44
  -7  -7  -5    6.45    0.59
  -7  -7  -5    5.56    0.62
   7  -7   5    6.33    0.53
  -7   7  -5    5.99    0.58
   7   7   5    6.77    0.53
   9  -7   5    0.77    0.18
   9  -7   5    0.60    0.24
  -9  -7  -5    0.50    0.26
  -9  -7  -5   -0.01    0.39
  -9   7  -5    0.57    0.34
   9   7   5    0.58    0.26
  11  -7   5    1.77    0.31
 -11  -7  -5    2.67    0.40
 -11  -7  -5    2.02    0.54
  11  -7   5    2.08    0.28
 -11   7  -5    2.07    0.45
  11   7   5    1.80    0.35
  13  -7   5    6.70    0.57
 -13  -7  -5    5.34    0.76
  13  -7   5    5.77    0.55
 -13   7  -5    6.44    0.72
  13   7   5    7.29    0.69
 -15  -7  -5    0.10    0.59
  15  -7   5    0.31    0.30
  15   7   5    0.75    0.41
 -15   7  -5    1.60    0.50
 -17  -7  -5   -0.63    0.64
  17  -7   5    0.58    0.37
 -17   7  -5    0.95    0.54
  17   7   5    0.02    0.44
  19  -7   5    0.56    0.44
 -19  -7  -5    0.21    0.72
  19   7   5    0.25    0.48
 -19   7  -5    1.74    0.64
 -18  -8   5    0.22    0.59
  18  -8  -5    1.18    0.33
 -16  -8   5    0.27    0.55
  16  -8  -5    1.21    0.30
 -16   8   5    0.88    0.33
 -14  -8   5   -0.62    0.49
  14  -8  -5    0.26    0.23
 -12  -8   5    1.49    0.52
  12  -8  -5    2.42    0.30
 -12   8   5    2.66    0.34
 -10  -8   5    2.79    0.53
  10  -8  -5    2.03    0.34
  10  -8  -5    2.62    0.31
  10   8  -5    3.12    0.31
 -10   8   5    2.52    0.32
   8  -8  -5   11.75    0.86
  -8  -8   5   14.39    0.86
  -8  -8   5   11.71    0.96
  -8   8   5   13.40    0.79
   8   8  -5   13.32    0.78
  -8   8   5   11.68    0.82
  -6  -8   5    6.86    0.64
   6  -8  -5    6.18    0.61
   6   8  -5    6.07    0.44
  -6   8   5    6.10    0.46
  -6   8   5    6.06    0.49
  -4  -8   5    2.59    0.34
  -4  -8   5    1.99    0.36
   4  -8  -5    2.00    0.36
  -4   8   5    2.40    0.26
   4   8  -5    2.18    0.24
  -4   8   5    2.02    0.26
  -2  -8   5    2.49    0.35
   2  -8  -5    2.52    0.37
  -2  -8   5    2.13    0.33
   2   8  -5    2.81    0.26
  -2   8   5    2.42    0.27
   0  -8  -5    3.91    0.53
   0  -8   5    5.21    0.47
   0  -8   5    5.24    0.47
   0   8  -5    4.49    0.38
   0   8   5    5.97    0.41
  -2  -8  -5    3.56    0.47
   2  -8   5    3.42    0.42
   2  -8   5    3.56    0.40
   2   8   5    2.99    0.33
   4  -8   5    8.58    0.64
  -4  -8  -5    8.02    0.63
  -4  -8  -5    8.86    0.69
   4   8   5    8.83    0.59
   6  -8   5    5.20    0.50
   6  -8   5    5.95    0.38
  -6  -8  -5    4.69    0.55
  -6  -8  -5    6.24    0.59
   6   8   5    5.02    0.47
  -8  -8  -5    1.27    0.37
  -8  -8  -5    1.08    0.42
   8  -8   5    1.48    0.30
   8  -8   5    1.94    0.21
   8   8   5    1.91    0.30
  10  -8   5    0.34    0.18
  10  -8   5    0.24    0.25
 -10  -8  -5    0.32    0.34
 -10  -8  -5   -0.04    0.44
  10   8   5    0.11    0.28
 -10   8  -5    0.30    0.31
 -12  -8  -5    3.16    0.65
  12  -8   5    4.04    0.43
  12  -8   5    3.22    0.41
 -12   8  -5    4.34    0.57
  12   8   5    3.69    0.46
 -14  -8  -5    1.87    0.64
  14  -8   5    3.30    0.41
  14   8   5    2.76    0.47
 -14   8  -5    3.53    0.56
 -16  -8  -5    0.28    0.61
  16  -8   5    0.86    0.35
  16   8   5    0.89    0.44
 -16   8  -5    2.16    0.53
 -18  -8  -5    0.23    0.68
  18  -8   5    1.13    0.42
  18   8   5    1.27    0.51
  20  -8   5    0.23    0.48
  19  -9  -5    0.39    0.32
 -17  -9   5   -0.72    0.57
  17  -9  -5    0.86    0.30
  15  -9  -5    0.30    0.25
 -15  -9   5   -0.47    0.54
 -15   9   5    0.05    0.31
  13  -9  -5    0.08    0.23
 -13  -9   5   -0.50    0.50
 -13   9   5    0.04    0.29
  11  -9  -5    7.18    0.52
 -11  -9   5    6.14    0.83
  11  -9  -5    5.32    0.55
 -11   9   5    6.12    0.52
   9  -9  -5    0.61    0.32
  -9  -9   5    0.15    0.45
  -9  -9   5    1.00    0.34
  -9   9   5    0.77    0.26
   9   9  -5    1.25    0.24
  -7  -9   5    1.86    0.46
   7  -9  -5    2.72    0.40
  -7   9   5    2.26    0.30
   7   9  -5    3.10    0.29
  -7   9   5    2.55    0.31
  -5  -9   5    3.49    0.43
  -5  -9   5    2.93    0.46
   5  -9  -5    3.14    0.45
   5   9  -5    3.79    0.32
  -5   9   5    3.15    0.32
  -5   9   5    2.85    0.32
   3  -9  -5    2.13    0.40
  -3  -9   5    2.14    0.36
  -3  -9   5    2.17    0.38
  -3   9   5    2.01    0.27
  -3   9   5    2.25    0.26
   3   9  -5    2.01    0.26
   1  -9  -5    3.78    0.46
  -1  -9   5    3.60    0.45
  -1  -9   5    3.38    0.44
   1   9  -5    3.49    0.34
  -1   9   5    3.45    0.36
  -1   9   5    3.40    0.34
   1  -9   5    1.18    0.28
   1  -9   5    0.74    0.28
  -1  -9  -5    0.82    0.33
   1   9   5    0.92    0.22
  -1   9  -5    0.95    0.22
   3  -9   5    9.35    0.66
  -3  -9  -5    8.64    0.75
   3  -9   5    8.92    0.68
   3   9   5    8.76    0.60
  -5  -9  -5    5.65    0.63
  -5  -9  -5    4.28    0.53
   5  -9   5    5.37    0.52
   5   9   5    5.08    0.46
  -5   9  -5    5.05    0.54
  -7  -9  -5    0.94    0.39
   7  -9   5    0.55    0.28
  -7  -9  -5    0.93    0.41
   7   9   5    0.33    0.25
  -7   9  -5    1.04    0.34
  -9  -9  -5    0.14    0.41
   9  -9   5    0.47    0.29
   9  -9   5    0.80    0.19
  -9  -9  -5    0.58    0.41
  -9   9  -5    0.56    0.35
   9   9   5    0.84    0.30
 -11  -9  -5    0.54    0.50
 -11  -9  -5    1.51    0.45
  11  -9   5    1.11    0.32
  11  -9   5    1.40    0.26
  11   9   5    1.75    0.38
 -11   9  -5    1.75    0.37
  13  -9   5    0.53    0.23
 -13  -9  -5    0.35    0.56
  13  -9   5    0.62    0.30
  13   9   5    1.22    0.41
  15  -9   5    1.22    0.34
 -15  -9  -5    0.33    0.61
  15   9   5    1.40    0.43
  17  -9   5    0.43    0.35
 -17  -9  -5   -0.48    0.64
  17   9   5    0.01    0.43
  19  -9   5    0.15    0.44
 -19  -9  -5   -0.95    0.87
  19   9   5   -0.74    0.47
 -18 -10   5   -0.61    0.64
  18 -10  -5    0.38    0.31
 -16 -10   5   -0.18    0.58
  16 -10  -5    0.70    0.29
 -14 -10   5   -0.04    0.54
  14 -10  -5    0.28    0.24
 -14  10   5    0.11    0.31
 -12 -10   5    0.39    0.54
  12 -10  -5    0.74    0.24
  12  10  -5    0.58    0.30
 -12  10   5    0.78    0.30
  10 -10  -5    2.04    0.39
 -10 -10   5    3.09    0.59
 -10  10   5    2.79    0.35
  -8 -10   5    0.37    0.46
   8 -10  -5    0.74    0.35
  -8 -10   5    0.07    0.35
  -8  10   5    0.39    0.27
   8  10  -5    0.81    0.26
  -8  10   5    0.63    0.26
   6 -10  -5    0.40    0.35
  -6 -10   5   -0.01    0.35
  -6 -10   5    0.09    0.39
  -6  10   5    0.03    0.22
  -6  10   5   -0.08    0.23
   6  10  -5    0.21    0.22
  -4 -10   5    2.16    0.43
  -4 -10   5    2.79    0.43
   4 -10  -5    3.41    0.50
  -4  10   5    2.63    0.31
  -4  10   5    2.63    0.31
   4  10  -5    3.05    0.30
   2 -10  -5    4.53    0.53
  -2 -10   5    4.19    0.51
  -2 -10   5    4.36    0.51
  -2  10   5    3.56    0.39
   2  10  -5    4.24    0.38
   0 -10   5    1.24    0.31
   0 -10   5    1.82    0.35
   0 -10  -5    1.15    0.39
   0  10   5    1.76    0.25
   0  10  -5    1.12    0.25
   2 -10   5    4.30    0.48
  -2 -10  -5    3.52    0.52
   2 -10   5    3.86    0.48
   2  10   5    4.44    0.39
  -2  10  -5    3.89    0.39
  -4 -10  -5   -0.05    0.38
   4 -10   5   -0.11    0.29
   4  10   5    0.10    0.21
  -4  10  -5    0.18    0.22
   6 -10   5    3.67    0.47
  -6 -10  -5    5.21    0.61
   6  10   5    4.43    0.46
  -6  10  -5    4.63    0.54
  -8 -10  -5    0.67    0.45
  -8 -10  -5    1.17    0.46
   8 -10   5    0.58    0.32
  -8  10  -5    1.70    0.40
   8  10   5    1.13    0.31
 -10 -10  -5    1.64    0.47
  10 -10   5    0.82    0.32
 -10 -10  -5    0.46    0.47
  10  10   5    1.36    0.35
 -10  10  -5    1.35    0.49
 -12 -10  -5    0.24    0.52
  12 -10   5    0.73    0.32
  12  10   5    1.04    0.37
 -14 -10  -5   -1.32    0.54
  14  10   5   -0.08    0.38
 -16 -10  -5   -0.53    0.60
  16  10   5    0.06    0.44
 -18 -10  -5   -0.73    0.68
  17 -11  -5    0.82    0.31
 -17 -11   5    0.37    0.65
  15 -11  -5    0.60    0.27
 -15 -11   5   -0.02    0.59
 -15  11   5   -0.44    0.31
  15  11  -5    0.46    0.34
  13 -11  -5    0.63    0.26
 -13 -11   5    0.07    0.57
  13  11  -5    0.53    0.34
 -13  11   5    0.33    0.30
 -11 -11   5   -0.19    0.54
  11 -11  -5    0.08    0.21
  11 -11  -5   -0.54    0.30
 -11  11   5   -0.27    0.28
  11  11  -5    0.03    0.30
  -9 -11   5   -0.47    0.44
  -9 -11   5    0.32    0.51
   9 -11  -5   -0.32    0.34
   9  11  -5    0.49    0.27
  -9  11   5    0.04    0.27
  -7 -11   5    1.15    0.48
   7 -11  -5    1.12    0.41
  -7 -11   5    0.42    0.47
  -7  11   5    1.06    0.27
   7  11  -5    0.58    0.26
  -7  11   5    0.51    0.26
   5 -11  -5    0.34    0.39
  -5 -11   5   -0.12    0.40
  -5 -11   5    0.68    0.40
  -5  11   5    0.44    0.24
  -5  11   5    0.09    0.26
   5  11  -5    0.06    0.23
   3 -11  -5    0.09    0.40
  -3 -11   5   -0.16    0.34
  -3 -11   5    0.28    0.36
  -3  11   5   -0.13    0.25
   3  11  -5    0.21    0.22
  -3  11   5    0.38    0.22
   1 -11  -5    0.95    0.42
  -1 -11   5    1.32    0.36
  -1 -11   5    1.15    0.37
   1  11  -5    0.68    0.25
  -1  11   5    1.01    0.23
  -1 -11  -5    0.47    0.42
   1 -11   5    0.36    0.30
   1 -11   5    0.30    0.32
  -1  11  -5    0.21    0.24
   1  11   5    0.84    0.23
   3 -11   5    0.19    0.32
   3 -11   5    0.28    0.28
  -3 -11  -5    0.17    0.43
   3  11   5    0.41    0.23
  -5 -11  -5    1.56    0.51
   5 -11   5    0.34    0.35
   5  11   5    0.82    0.25
  -5  11  -5    0.99    0.37
   7 -11   5    0.21    0.34
  -7 -11  -5    0.99    0.52
   7  11   5    0.72    0.29
   9 -11   5    1.10    0.36
  -9 -11  -5    2.30    0.59
   9  11   5    1.45    0.34
  11 -11   5    0.07    0.31
  11  11   5    0.05    0.31
 -13 -11  -5   -0.85    0.61
  13 -11   5    0.06    0.31
 -15 -11  -5   -0.73    0.61
 -17 -11  -5   -1.33    0.67
 -16 -12   5   -0.52    0.65
  16 -12  -5    0.41    0.28
 -14 -12   5   -0.17    0.65
  14 -12  -5    0.42    0.26
 -14  12   5   -0.39    0.30
 -12 -12   5   -0.39    0.58
  12 -12  -5    0.53    0.24
  12  12  -5    0.30    0.32
  10 -12  -5    0.87    0.23
  10 -12  -5    0.24    0.37
 -10 -12   5    0.06    0.55
  10  12  -5    1.22    0.33
 -10  12   5    0.48    0.29
   8 -12  -5    0.14    0.39
  -8 -12   5    0.28    0.43
  -8 -12   5    0.85    0.53
   8  12  -5    0.42    0.30
  -8  12   5    0.78    0.29
  -8  12   5    0.10    0.26
  -6 -12   5   -0.13    0.42
   6 -12  -5    0.23    0.42
  -6 -12   5    0.44    0.47
   6  12  -5    0.22    0.26
  -6  12   5    0.07    0.24
  -6  12   5    0.78    0.29
   4 -12  -5   -0.12    0.43
  -4 -12   5    0.44    0.41
  -4 -12   5    0.27    0.41
   4  12  -5    0.64    0.26
  -4  12   5    0.67    0.26
  -4  12   5    0.56    0.28
   2 -12  -5    0.55    0.45
  -2 -12   5    0.78    0.41
  -2 -12   5    1.15    0.39
  -2  12   5    0.70    0.24
   2  12  -5    0.94    0.27
  -2  12   5    1.17    0.30
   0 -12   5    0.40    0.40
   0 -12  -5    1.05    0.49
   0 -12   5    1.21    0.38
   0  12  -5    1.09    0.28
   0  12   5    1.13    0.31
   0  12   5    0.94    0.25
   2 -12   5    0.30    0.38
   2 -12   5    0.19    0.39
  -2 -12  -5    0.89    0.50
   2  12   5    0.57    0.25
  -4 -12  -5    1.17    0.53
   4 -12   5    0.93    0.40
  -4  12  -5    0.31    0.28
   4  12   5    0.82    0.26
   6 -12   5   -0.30    0.35
  -6 -12  -5    0.14    0.52
   8 -12   5   -0.13    0.34
  -8 -12  -5    0.77    0.55
 -10 -12  -5    0.27    0.59
  10 -12   5   -0.01    0.34
  12 -12   5   -0.36    0.30
  15 -13  -5    0.13    0.28
 -15 -13   5   -0.35    0.73
 -15  13   5   -0.30    0.32
  13 -13  -5    0.46    0.28
 -13 -13   5    0.10    0.66
 -13  13   5    0.20    0.31
  11 -13  -5   -0.89    0.35
 -11 -13   5    0.30    0.65
  11 -13  -5    0.40    0.24
 -11  13   5   -0.09    0.29
  11  13  -5    0.03    0.32
   9 -13  -5   -0.45    0.39
  -9 -13   5    0.41    0.58
  -9  13   5    0.23    0.32
  -7 -13   5   -0.46    0.49
  -7 -13   5   -0.30    0.49
   7 -13  -5    0.20    0.45
  -7  13   5   -0.26    0.26
   7  13  -5    0.10    0.28
  -7  13   5    0.06    0.27
   5 -13  -5    0.41    0.47
  -5 -13   5   -0.21    0.41
  -5 -13   5    0.47    0.47
  -5  13   5    0.05    0.29
   5  13  -5    0.32    0.27
  -5  13   5   -0.04    0.29
  -3 -13   5   -0.01    0.42
   3 -13  -5   -0.49    0.46
  -3 -13   5    0.01    0.48
  -3  13   5    0.01    0.30
   3  13  -5    0.03    0.26
  -1 -13   5    0.50    0.43
   1 -13  -5    0.41    0.49
  -1  13   5    0.76    0.32
   1  13  -5    0.53    0.28
   1 -13   5    0.13    0.39
  -1 -13  -5    0.25    0.55
  -1  13  -5    0.53    0.28
   1  13   5    0.66    0.32
  -3 -13  -5    0.74    0.59
   3 -13   5    0.58    0.43
  -3  13  -5    0.16    0.27
  -5 -13  -5    1.06    0.61
   5 -13   5    0.37    0.42
   7 -13   5    0.31    0.39
  -7 -13  -5   -0.12    0.62
   9 -13   5   -0.04    0.37
  -9 -13  -5   -0.15    0.65
  11 -13   5   -0.16    0.36
  13 -13   5   -0.16    0.35
 -14 -14   5   -0.60    0.71
 -12 -14   5   -0.48    0.69
  12  14  -5   -0.10    0.38
  10 -14  -5   -0.27    0.41
 -10 -14   5   -0.22    0.62
  10  14  -5   -0.10    0.33
 -10  14   5    0.21    0.29
   8 -14  -5    0.22    0.45
  -8 -14   5   -0.62    0.49
   8  14  -5    0.76    0.33
  -8  14   5    0.35    0.29
   6 -14  -5    0.19    0.50
  -6 -14   5   -0.65    0.46
  -6  14   5    0.21    0.30
   6  14  -5    0.55    0.29
  -4 -14   5   -0.34    0.44
   4 -14  -5   -0.02    0.52
   4  14  -5    1.09    0.30
  -4  14   5    0.54    0.32
  -2 -14   5    0.28    0.50
   2 -14  -5    0.21    0.54
   2  14  -5    0.44    0.28
  -2  14   5    0.33    0.30
   0 -14   5    0.22    0.46
   0 -14  -5   -0.03    0.53
   0  14  -5    0.12    0.27
   0  14   5    0.63    0.33
  -2 -14  -5    0.53    0.58
   2 -14   5    0.14    0.46
  -2  14  -5    0.94    0.30
   4 -14   5    0.27    0.45
  -4 -14  -5    0.23    0.60
   6 -14   5   -0.19    0.40
  -6 -14  -5    0.28    0.64
  -8 -14  -5    0.17    0.67
   8 -14   5   -0.25    0.39
  10 -14   5   -0.10    0.39
 -10 -14  -5    0.16    0.68
  12 -14   5   -0.17    0.36
 -13  15   5   -0.07    0.32
  11 -15  -5   -0.90    0.44
  11  15  -5    0.04    0.37
 -11  15   5   -0.13    0.30
   9 -15  -5   -0.58    0.45
   9  15  -5    0.64    0.35
  -9  15   5    0.13    0.32
   7 -15  -5   -0.06    0.51
  -7 -15   5   -0.06    0.53
  -7  15   5    0.36    0.30
   7  15  -5    0.71    0.32
  -5 -15   5    0.17    0.52
   5 -15  -5   -0.50    0.53
  -5  15   5    0.02    0.32
   5  15  -5    0.18    0.31
  -3 -15   5   -0.58    0.50
   3 -15  -5   -0.54    0.54
   3  15  -5   -0.19    0.27
   1 -15  -5    0.02    0.57
  -1 -15   5   -0.06    0.48
   1  15  -5    0.33    0.28
   1 -15   5    0.21    0.50
  -1 -15  -5    1.01    0.67
  -1  15  -5    0.60    0.31
   1  15   5    0.57    0.36
   3 -15   5    0.15    0.48
  -3 -15  -5    0.66    0.64
  -5 -15  -5    0.74    0.66
   5 -15   5    0.47    0.48
   7 -15   5   -0.54    0.43
  -7 -15  -5   -0.38    0.68
   9 -15   5   -0.32    0.41
  -9 -15  -5   -0.31    0.73
  11 -15   5   -0.31    0.41
  12  16  -5    0.03    0.40
  10 -16  -5   -1.07    0.50
 -10  16   5   -0.54    0.31
  10  16  -5    0.56    0.38
   8 -16  -5   -0.67    0.52
  -8 -16   5    0.02    0.73
  -8  16   5    0.29    0.31
   8  16  -5    0.14    0.34
   6 -16  -5   -0.74    0.53
  -6 -16   5   -0.67    0.52
   6  16  -5    0.43    0.32
   4 -16  -5   -0.67    0.60
  -4 -16   5   -0.44    0.52
   4  16  -5    0.38    0.31
  -2 -16   5   -0.14    0.54
   2 -16  -5   -0.80    0.60
   2  16  -5    0.36    0.28
  -2  16   5    0.23    0.36
   0 -16   5   -0.55    0.54
   0 -16  -5    0.11    0.66
   0  16  -5    0.28    0.32
  -2 -16  -5    0.05    0.66
   2 -16   5    0.46    0.56
  -4 -16  -5    0.78    0.71
   4 -16   5    0.28    0.52
  -4  16  -5    0.18    0.32
   6 -16   5    0.54    0.51
  -6 -16  -5    1.37    0.82
  -8 -16  -5   -0.38    0.73
  11  17  -5   -0.08    0.42
 -11  17   5    0.22    0.35
  -9  17   5   -0.09    0.34
  -7  17   5   -0.49    0.35
   7  17  -5    0.29    0.37
  -5 -17   5   -0.45    0.60
  -5  17   5    0.15    0.33
   5  17  -5    0.54    0.37
  -3 -17   5   -0.26    0.59
   3  17  -5    0.34    0.32
  -3  17   5    0.04    0.38
  -1 -17   5   -0.59    0.67
   1  17  -5    0.07    0.32
  -1  17   5    0.11    0.39
   1  17   5    0.27    0.41
   3  17   5    0.11    0.41
  -3  17  -5    0.67    0.33
  -7  17  -5   -0.01    0.32
  -8  18   5    0.17    0.35
   8  18  -5    0.54    0.39
  -6  18   5    0.56    0.40
   6  18  -5    1.35    0.43
   4  18  -5    0.39    0.37
  -4  18   5    0.04    0.40
  -2  18   5    0.46    0.43
   2  18  -5   -0.11    0.33
   0  18  -5    0.46    0.35
  -2  18  -5    0.53    0.34
  -6  18  -5    0.02    0.35
  -8  18  -5    0.19    0.34
  -3  19   5    0.15    0.44
   3  19  -5   -0.11    0.39
  -1  19   5   -0.19    0.43
   1  19  -5    0.72    0.37
   1  19   5    0.32    0.47
  -1  19  -5    0.03    0.36
  -3  19  -5    0.60    0.39
  22   0  -6    0.80    0.49
 -22   0   6   -0.31    0.62
  20   0  -6    2.04    0.46
 -20   0   6    0.42    0.58
 -18   0   6   -0.25    0.51
  18   0  -6    0.45    0.35
 -16   0   6    0.60    0.29
  16   0  -6    1.08    0.32
 -16   0   6   -0.06    0.46
 -14   0   6    5.15    0.46
  14   0  -6    6.67    0.50
 -14   0   6    4.33    0.63
 -12   0   6   11.77    0.73
  12   0  -6   12.60    0.74
 -12   0   6   10.57    0.85
 -10   0   6    3.42    0.29
  10   0  -6    2.42    0.29
 -10   0   6    3.32    0.46
  -8   0   6    2.11    0.34
  -8   0   6    1.88    0.23
   8   0  -6    1.32    0.19
  -6   0   6   13.12    0.82
  -6   0   6   13.13    0.76
  -4   0   6  222.15   12.89
  -4   0   6  238.66   12.87
  -4   0   6  246.78   12.88
  -2   0   6  231.34   12.75
  -2   0   6  235.92   12.77
   0   0   6   17.40    1.00
   0   0   6   17.97    1.01
   0   0   6   16.72    0.98
   2   0   6   32.79    1.84
  -2   0  -6   34.02    1.88
   2   0   6   32.25    1.85
  -4   0  -6    5.13    0.45
   4   0   6    4.85    0.36
   4   0   6    4.80    0.34
  -6   0  -6   93.69    5.17
   6   0   6   92.51    5.11
   6   0   6   92.63    5.11
  -8   0  -6    7.48    0.70
   8   0   6    7.83    0.53
   8   0   6    7.81    0.54
  10   0   6   26.48    1.53
 -10   0  -6   26.46    1.65
  10   0   6   26.37    1.52
 -12   0  -6   12.65    1.02
  12   0   6   12.44    0.83
  14   0   6    5.09    0.56
 -14   0  -6    5.19    0.74
 -16   0  -6    1.97    0.65
  16   0   6    0.64    0.39
 -18   0  -6    1.19    0.67
  18   0   6    1.69    0.46
  20   0   6    1.52    0.52
 -20   0  -6    1.32    0.75
 -23   1   6   -0.36    0.74
  21  -1  -6    0.36    0.43
 -21  -1   6    0.03    0.62
 -21   1   6   -0.23    0.64
  21   1  -6    0.89    0.47
 -19  -1   6   -0.07    0.55
  19  -1  -6    0.51    0.39
 -19   1   6   -0.19    0.54
  19   1  -6    0.31    0.40
  17  -1  -6    1.41    0.36
 -17  -1   6    0.46    0.51
 -17  -1   6    0.50    0.31
 -17   1   6    0.50    0.48
  17   1  -6    1.36    0.36
  15  -1  -6    1.81    0.32
 -15  -1   6    0.82    0.47
 -15   1   6    2.01    0.48
  15   1  -6    2.09    0.33
 -13  -1   6    3.30    0.34
 -13  -1   6    3.40    0.50
  13  -1  -6    3.50    0.37
 -13   1   6    3.15    0.34
 -13   1   6    3.07    0.47
  13   1  -6    3.77    0.40
 -11  -1   6    4.30    0.38
 -11  -1   6    4.34    0.53
  11  -1  -6    4.25    0.36
 -11   1   6    3.64    0.50
  11   1  -6    4.74    0.37
 -11   1   6    4.14    0.38
   9  -1  -6   14.23    0.82
  -9  -1   6   13.07    0.92
  -9  -1   6   13.76    0.82
   9   1  -6   14.21    0.82
  -9   1   6   13.82    0.82
  -9   1   6   13.09    0.89
  -7  -1   6   11.53    0.70
  -7  -1   6    9.79    0.59
  -7   1   6    9.40    0.59
   7   1  -6    8.43    0.58
  -5  -1   6   16.54    0.94
  -5  -1   6   15.65    0.89
  -5   1   6   15.80    0.90
  -5   1   6   14.64    0.92
  -5   1   6   15.55    0.89
  -3  -1   6  171.56    9.51
  -3  -1   6  178.06    9.54
  -3  -1   6  165.57    9.52
  -3   1   6  170.98    9.52
  -3   1   6  176.19    9.52
  -3   1   6  182.76    9.52
  -1  -1   6    5.93    0.37
  -1  -1   6    5.92    0.45
  -1  -1   6    5.55    0.40
  -1   1   6    6.38    0.42
  -1   1   6    6.09    0.40
  -1   1   6    5.87    0.40
   1  -1   6    0.86    0.20
   1  -1   6    0.81    0.17
   1  -1   6    0.83    0.14
   1   1   6    0.66    0.16
   1   1   6    0.82    0.16
  -3  -1  -6    2.40    0.32
   3  -1   6    3.44    0.28
   3  -1   6    3.11    0.24
  -3   1  -6    2.72    0.33
   3   1   6    3.63    0.27
   3   1   6    3.49    0.27
  -5  -1  -6   35.18    2.00
   5  -1   6   33.66    1.95
   5  -1   6   35.59    1.94
   5   1   6   34.76    1.95
  -5   1  -6   34.93    2.00
   5   1   6   34.72    1.95
   7  -1   6   21.87    1.29
   7  -1   6   21.88    1.28
  -7  -1  -6   21.98    1.39
   7   1   6   23.11    1.30
  -7   1  -6   23.02    1.38
   7   1   6   22.16    1.28
  -9  -1  -6   12.72    0.95
   9  -1   6   12.78    0.81
   9  -1   6   12.91    0.79
  -9   1  -6   12.81    0.94
   9   1   6   13.23    0.83
   9   1   6   13.22    0.79
  11  -1   6    9.79    0.69
  11  -1   6   10.07    0.66
 -11  -1  -6    9.67    0.87
 -11   1  -6   10.25    0.85
  11   1   6    9.91    0.69
 -13  -1  -6    2.55    0.58
  13  -1   6    1.55    0.30
  13   1   6    1.44    0.32
 -13   1  -6    1.69    0.54
 -15  -1  -6    0.81    0.59
  15  -1   6    0.61    0.33
  15   1   6    0.24    0.34
 -15   1  -6    0.61    0.59
 -17  -1  -6    3.21    0.74
  17  -1   6    4.18    0.53
 -17   1  -6    2.88    0.73
  17   1   6    4.17    0.54
  19  -1   6    1.43    0.50
 -19  -1  -6    1.59    0.73
 -19   1  -6    1.72    0.73
  19   1   6    1.55    0.50
 -21  -1  -6    0.43    0.75
  21  -1   6   -0.18    0.49
 -21   1  -6    0.57    0.75
  21   1   6    0.01    0.51
 -22  -2   6   -0.03    0.78
 -22   2   6   -0.44    0.57
  22   2  -6    0.96    0.52
 -20  -2   6    0.72    0.62
  20  -2  -6    1.30    0.43
 -20   2   6   -0.14    0.55
  20   2  -6    0.34    0.44
  18  -2  -6    0.45    0.33
 -18  -2   6   -0.17    0.51
 -18   2   6   -0.14    0.49
  18   2  -6    0.22    0.37
 -16  -2   6    0.38    0.48
  16  -2  -6    0.99    0.30
  16   2  -6    1.31    0.34
 -16   2   6   -0.09    0.44
 -14  -2   6    0.59    0.42
  14  -2  -6    0.45    0.23
 -14   2   6    0.55    0.39
  14   2  -6    0.90    0.27
  12  -2  -6    2.70    0.31
 -12  -2   6    3.08    0.46
 -12   2   6    2.71    0.39
 -12   2   6    2.96    0.30
  12   2  -6    3.03    0.36
  10  -2  -6    9.44    0.62
 -10  -2   6    9.69    0.75
 -10   2   6   10.51    0.62
  10   2  -6    9.79    0.62
  -8  -2   6    9.53    0.74
  -8  -2   6   10.29    0.63
  -8   2   6   10.30    0.69
   8   2  -6   10.17    0.62
  -8   2   6   10.05    0.62
  -6  -2   6    5.47    0.36
  -6  -2   6    5.20    0.47
  -6   2   6    4.84    0.40
   6   2  -6    4.75    0.33
  -6   2   6    5.34    0.38
  -6   2   6    4.73    0.36
  -4  -2   6    0.43    0.19
  -4  -2   6    0.56    0.13
  -4  -2   6    0.59    0.13
  -4   2   6    0.61    0.14
  -2  -2   6   15.21    0.89
  -2  -2   6   13.21    0.85
  -2   2   6   14.85    0.85
  -2   2   6   15.95    0.86
   0  -2   6    8.94    0.59
   0  -2   6    9.37    0.57
   0   2   6    9.29    0.56
   0   2   6    8.84    0.55
  -2  -2  -6   64.12    3.38
   2  -2   6   62.91    3.34
   2  -2   6   59.77    3.36
   2  -2   6   59.91    3.38
   2   2   6   59.52    3.35
   2   2   6   59.31    3.36
   4  -2   6    3.03    0.29
  -4  -2  -6    3.28    0.35
  -4   2  -6    2.93    0.36
   4   2   6    3.02    0.29
   4   2   6    2.92    0.27
  -6  -2  -6    2.20    0.40
   6  -2   6    2.52    0.29
   6  -2   6    2.50    0.27
   6   2   6    2.43    0.29
   6   2   6    2.52    0.26
  -6   2  -6    2.80    0.38
  -8  -2  -6   11.72    0.93
   8  -2   6   12.26    0.77
   8  -2   6   12.80    0.77
   8   2   6   12.35    0.79
   8   2   6   12.61    0.77
  -8   2  -6   12.24    0.89
  10  -2   6    3.72    0.36
 -10  -2  -6    3.91    0.56
  10  -2   6    3.23    0.38
  10   2   6    3.60    0.41
  10   2   6    3.57    0.36
 -10   2  -6    4.19    0.57
  12  -2   6    8.12    0.57
  12  -2   6    8.13    0.62
 -12  -2  -6    7.24    0.86
  12   2   6    8.16    0.63
 -12   2  -6    8.27    0.80
 -14  -2  -6    4.37    0.72
  14  -2   6    5.11    0.49
  14   2   6    4.34    0.49
 -14   2  -6    4.25    0.68
 -16  -2  -6    3.71    0.78
  16  -2   6    5.28    0.62
  16   2   6    5.91    0.67
 -16   2  -6    5.87    0.82
  18  -2   6    1.48    0.44
 -18  -2  -6    1.20    0.68
 -18   2  -6    1.69    0.71
  18   2   6    1.41    0.48
  20  -2   6   -0.37    0.47
 -20  -2  -6    0.92    0.75
  20   2   6    0.03    0.49
 -20   2  -6    0.84    0.74
 -21  -3   6   -0.37    0.62
  21  -3  -6    0.58    0.40
  21   3  -6    0.21    0.47
 -19  -3   6   -0.22    0.57
  19  -3  -6    1.02    0.37
 -19   3   6    0.31    0.50
  19   3  -6    0.40    0.41
  17  -3  -6    2.01    0.35
 -17  -3   6    1.59    0.56
 -17   3   6    0.83    0.47
  17   3  -6    2.55    0.42
 -15  -3   6   -0.19    0.44
  15  -3  -6    0.56    0.25
  15   3  -6    0.48    0.29
 -15   3   6    0.07    0.30
  13  -3  -6    0.69    0.19
 -13  -3   6    0.51    0.40
 -13   3   6    0.18    0.31
  13   3  -6    0.60    0.24
 -13   3   6    0.57    0.24
 -11  -3   6    9.99    0.81
  11  -3  -6   10.79    0.68
 -11   3   6   10.64    0.67
 -11   3   6   10.95    0.75
  11   3  -6   10.87    0.68
   9  -3  -6    1.36    0.19
  -9  -3   6    1.90    0.24
  -9  -3   6    1.98    0.38
   9   3  -6    1.31    0.20
  -9   3   6    1.98    0.30
  -9   3   6    2.25    0.24
  -7  -3   6    5.19    0.39
  -7  -3   6    5.10    0.54
  -7   3   6    4.79    0.39
  -7   3   6    5.26    0.42
   7   3  -6    5.55    0.36
  -5  -3   6    9.34    0.55
  -5  -3   6    9.02    0.55
  -5  -3   6   10.02    0.64
   5  -3  -6    9.15    0.58
   5   3  -6    7.81    0.52
  -5   3   6    8.48    0.54
  -5   3   6    9.32    0.56
  -3  -3   6    1.96    0.26
  -3  -3   6    1.96    0.19
   3  -3  -6    1.65    0.23
  -3   3   6    1.90    0.20
  -1  -3   6   13.12    0.79
  -1  -3   6   13.13    0.77
  -1   3   6   12.68    0.76
   1  -3   6    0.80    0.19
   1  -3   6    0.67    0.16
   1   3   6    0.66    0.15
   1   3   6    0.77    0.16
   3  -3   6   24.32    1.28
   3  -3   6   23.29    1.31
  -3  -3  -6   21.81    1.33
   3   3   6   23.01    1.31
   3   3   6   22.21    1.30
   5  -3   6   29.21    1.70
  -5  -3  -6   31.73    1.76
  -5   3  -6   30.97    1.76
   5   3   6   29.93    1.70
   5   3   6   28.54    1.69
   7  -3   6    9.34    0.59
  -7  -3  -6    8.74    0.76
   7  -3   6    9.40    0.61
  -7   3  -6    8.40    0.72
   7   3   6    9.36    0.63
   7   3   6    9.15    0.60
   9  -3   6    9.75    0.63
   9  -3   6    9.72    0.63
  -9  -3  -6    8.38    0.82
   9   3   6    9.69    0.62
   9   3   6    9.58    0.66
  -9   3  -6    8.93    0.77
  11  -3   6    2.11    0.28
  11  -3   6    2.73    0.31
 -11  -3  -6    2.64    0.56
  11   3   6    2.51    0.34
 -11   3  -6    2.79    0.49
  11   3   6    2.23    0.28
  13  -3   6    1.57    0.31
  13  -3   6    1.47    0.27
 -13  -3  -6    1.52    0.57
  13   3   6    1.29    0.33
 -13   3  -6    1.02    0.49
 -15  -3  -6    3.55    0.73
  15  -3   6    4.13    0.49
 -15   3  -6    4.23    0.71
  15   3   6    4.68    0.53
  17  -3   6    0.97    0.40
 -17  -3  -6    0.17    0.67
  17   3   6    1.18    0.44
 -17   3  -6    1.10    0.66
  19  -3   6    0.27    0.43
 -19  -3  -6    0.65    0.70
 -19   3  -6    0.85    0.71
  19   3   6    0.52    0.48
  21  -3   6    1.00    0.56
 -21  -3  -6   -0.34    0.78
  21   3   6    0.28    0.55
 -21   3  -6   -0.14    0.75
  22   4  -6    0.22    0.50
  20  -4  -6    0.56    0.36
 -20  -4   6   -0.24    0.57
  20   4  -6    0.06    0.46
  18  -4  -6    0.50    0.31
 -18  -4   6    0.05    0.51
 -18   4   6    0.06    0.30
  18   4  -6    0.27    0.38
 -16  -4   6    0.02    0.46
  16  -4  -6    1.02    0.29
 -16   4   6    0.50    0.40
  16   4  -6    1.32    0.35
 -14  -4   6    0.57    0.44
  14  -4  -6    1.30    0.26
 -14   4   6    0.70    0.39
  14   4  -6    1.22    0.29
 -12  -4   6    4.98    0.46
 -12  -4   6    4.28    0.56
  12  -4  -6    5.07    0.42
 -12   4   6    6.03    0.44
  12   4  -6    5.77    0.47
 -12   4   6    4.92    0.53
 -10  -4   6    2.33    0.41
  10  -4  -6    1.88    0.23
 -10  -4   6    2.41    0.29
 -10   4   6    2.58    0.34
  10   4  -6    2.37    0.29
 -10   4   6    2.90    0.28
  -8  -4   6    2.57    0.40
  -8  -4   6    2.50    0.26
  -8   4   6    2.04    0.28
   8   4  -6    1.99    0.21
  -8   4   6    2.56    0.26
  -6  -4   6    3.40    0.47
   6  -4  -6    3.44    0.37
  -6  -4   6    3.62    0.30
  -6   4   6    3.58    0.32
  -6   4   6    3.27    0.34
  -4  -4   6    5.14    0.38
  -4  -4   6    5.26    0.40
  -4  -4   6    6.45    0.49
   4  -4  -6    5.65    0.45
  -4   4   6    5.29    0.38
  -4   4   6    5.75    0.40
  -2  -4   6    1.97    0.27
   2  -4  -6    2.20    0.27
  -2  -4   6    1.89    0.22
  -2   4   6    2.07    0.21
   0  -4   6    6.44    0.45
   0  -4  -6    6.47    0.49
   0  -4   6    6.75    0.47
   0   4   6    6.22    0.43
  -2  -4  -6    2.71    0.35
   2  -4   6    3.09    0.31
   2  -4   6    3.04    0.33
   2   4   6    3.16    0.28
  -4  -4  -6    4.44    0.46
   4  -4   6    3.88    0.38
   4  -4   6    4.34    0.31
   4   4   6    4.57    0.37
  -4   4  -6    4.91    0.46
   6  -4   6    5.29    0.43
  -6  -4  -6    4.63    0.58
   6  -4   6    4.67    0.36
   6   4   6    5.08    0.43
  -6   4  -6    4.72    0.53
  -8  -4  -6    4.25    0.54
   8  -4   6    3.61    0.34
   8  -4   6    3.52    0.38
   8   4   6    3.57    0.41
  -8   4  -6    3.40    0.50
 -10  -4  -6    9.46    0.88
  10  -4   6   10.33    0.67
  10  -4   6    9.88    0.67
 -10   4  -6    9.92    0.81
  10   4   6   10.04    0.70
 -12  -4  -6    0.27    0.51
  12  -4   6    0.55    0.24
  12  -4   6    0.87    0.23
 -12   4  -6    0.94    0.46
  12   4   6    0.54    0.29
 -14  -4  -6   -0.31    0.55
  14  -4   6   -0.15    0.28
  14   4   6   -0.15    0.34
 -14   4  -6    0.44    0.50
 -16  -4  -6    1.12    0.67
  16  -4   6    1.25    0.38
 -16   4  -6    1.84    0.63
  16   4   6    1.55    0.45
  18  -4   6    0.10    0.40
 -18  -4  -6   -0.23    0.67
 -18   4  -6    0.54    0.66
  18   4   6   -0.25    0.45
  20  -4   6    0.55    0.47
 -20  -4  -6   -0.34    0.73
  20   4   6    0.36    0.52
 -20   4  -6    1.73    0.75
 -21  -5   6   -0.41    0.74
  21   5  -6    0.39    0.60
 -19  -5   6   -0.49    0.54
  19  -5  -6    0.13    0.33
  19   5  -6    0.06    0.40
  17  -5  -6    1.59    0.34
 -17  -5   6    0.55    0.51
  17   5  -6    0.45    0.36
  15  -5  -6    0.47    0.25
 -15  -5   6    0.27    0.46
  15   5  -6    0.12    0.30
 -13  -5   6   -0.20    0.39
  13  -5  -6   -0.08    0.18
 -13  -5   6    0.31    0.28
  13   5  -6    0.07    0.24
 -13   5   6    0.12    0.25
 -13   5   6    0.51    0.47
  11  -5  -6    0.15    0.16
 -11  -5   6   -0.17    0.24
 -11  -5   6    0.14    0.36
 -11   5   6    0.30    0.24
 -11   5   6    0.25    0.28
  11   5  -6    0.02    0.19
  -9  -5   6    0.03    0.32
  -9  -5   6    0.13    0.21
  -9   5   6    0.40    0.21
   9   5  -6   -0.15    0.15
  -7  -5   6    2.54    0.27
   7  -5  -6    2.62    0.31
  -7  -5   6    2.22    0.39
  -7   5   6    2.36    0.26
  -7   5   6    2.56    0.29
  -5  -5   6    8.47    0.67
  -5  -5   6    8.29    0.55
   5  -5  -6    8.02    0.61
  -5  -5   6    8.24    0.57
  -5   5   6    8.64    0.56
  -5   5   6    8.13    0.54
  -3  -5   6    3.45    0.40
  -3  -5   6    3.27    0.34
   3  -5  -6    3.00    0.39
   3   5  -6    2.50    0.27
  -3   5   6    3.11    0.31
  -1  -5   6    9.20    0.61
  -1  -5   6    9.41    0.63
   1  -5  -6    8.90    0.66
  -1   5   6    9.36    0.58
   1  -5   6   26.94    1.52
  -1  -5  -6   24.74    1.53
   1  -5   6   25.96    1.50
   1   5   6   27.02    1.48
  -3  -5  -6   10.55    0.75
   3  -5   6   11.09    0.70
   3  -5   6   10.93    0.72
   3   5   6   10.53    0.68
  -5  -5  -6   11.63    0.80
  -5  -5  -6   10.73    0.77
   5  -5   6   11.14    0.66
   5  -5   6   10.47    0.72
   5   5   6   10.77    0.71
  -5   5  -6   11.59    0.79
  -7  -5  -6    0.11    0.24
   7  -5   6    0.27    0.14
  -7  -5  -6    0.13    0.36
   7  -5   6    0.05    0.20
  -7   5  -6    0.18    0.29
   7   5   6    0.05    0.21
   9  -5   6    6.73    0.53
   9  -5   6    6.78    0.49
  -9  -5  -6    6.16    0.56
  -9  -5  -6    6.40    0.71
   9   5   6    7.37    0.55
  -9   5  -6    6.50    0.65
 -11  -5  -6    2.77    0.39
  11  -5   6    2.98    0.34
 -11  -5  -6    2.70    0.58
  11  -5   6    3.27    0.38
  11   5   6    2.94    0.38
 -11   5  -6    3.27    0.52
 -13  -5  -6    0.30    0.56
  13  -5   6    0.80    0.25
  13  -5   6    0.88    0.28
  13   5   6    0.79    0.35
 -13   5  -6    1.16    0.50
 -15  -5  -6    0.52    0.60
  15  -5   6    0.45    0.32
 -15   5  -6    1.27    0.53
  15   5   6    0.78    0.40
 -17  -5  -6    0.49    0.66
  17  -5   6    0.37    0.38
  17   5   6    0.70    0.44
 -17   5  -6    0.22    0.57
  19  -5   6   -0.32    0.40
 -19  -5  -6   -0.93    0.68
  19   5   6    0.02    0.48
 -19   5  -6    0.70    0.65
 -21   5  -6    1.11    0.71
  20  -6  -6    0.63    0.37
 -20  -6   6   -0.34    0.60
  18  -6  -6    0.84    0.32
 -18  -6   6   -0.05    0.53
 -18   6   6    0.49    0.31
 -16  -6   6    0.32    0.50
  16  -6  -6    1.33    0.30
  16   6  -6    1.19    0.35
  14  -6  -6    0.43    0.23
 -14  -6   6    0.02    0.31
 -14  -6   6    0.44    0.46
 -14   6   6   -0.02    0.28
  14   6  -6    0.35    0.27
 -12  -6   6    0.25    0.40
  12  -6  -6   -0.09    0.18
 -12  -6   6   -0.05    0.28
  12   6  -6   -0.07    0.22
 -10  -6   6    1.11    0.26
 -10  -6   6    1.26    0.40
  10  -6  -6    1.23    0.25
  10   6  -6    1.00    0.21
 -10   6   6    1.30    0.26
   8  -6  -6    5.01    0.49
  -8  -6   6    4.70    0.58
  -8  -6   6    5.22    0.43
  -8  -6   6    5.49    0.42
  -8   6   6    4.77    0.44
  -8   6   6    5.19    0.41
   6  -6  -6    0.12    0.25
  -6  -6   6    0.00    0.32
  -6  -6   6    0.06    0.21
  -6   6   6    0.08    0.20
  -6   6   6   -0.09    0.19
  -4  -6   6    0.19    0.23
   4  -6  -6    0.05    0.25
  -4  -6   6    0.06    0.29
   4   6  -6    0.01    0.15
  -4   6   6    0.19    0.19
  -4   6   6    0.18    0.19
  -2  -6   6    1.64    0.27
  -2  -6   6    1.38    0.30
   2  -6  -6    1.24    0.30
  -2   6   6    1.29    0.23
   0  -6   6    4.02    0.40
   0  -6  -6    3.66    0.45
   0  -6   6    3.97    0.42
   0   6   6    4.18    0.35
  -2  -6  -6    3.76    0.47
   2  -6   6    3.50    0.41
   2  -6   6    3.95    0.39
   2   6   6    4.03    0.35
  -4  -6  -6    0.38    0.29
   4  -6   6    0.40    0.22
  -4  -6  -6    0.27    0.27
   4   6   6    0.59    0.21
   6  -6   6    0.22    0.21
   6  -6   6    0.22    0.12
  -6  -6  -6    0.01    0.26
  -6  -6  -6    0.13    0.32
  -6   6  -6    0.32    0.29
   6   6   6    0.21    0.21
  -8  -6  -6    1.95    0.33
   8  -6   6    2.21    0.30
  -8  -6  -6    1.51    0.43
   8  -6   6    2.09    0.23
   8   6   6    1.93    0.30
  -8   6  -6    2.16    0.40
  10  -6   6    6.21    0.54
 -10  -6  -6    6.32    0.74
 -10  -6  -6    6.95    0.60
  10  -6   6    6.43    0.49
 -10   6  -6    6.20    0.67
  10   6   6    7.13    0.58
  12  -6   6    4.85    0.50
 -12  -6  -6    6.28    0.76
  12  -6   6    5.67    0.50
 -12   6  -6    4.71    0.68
  12   6   6    5.23    0.61
 -14  -6  -6    0.82    0.61
  14  -6   6    0.32    0.28
  14   6   6    0.04    0.38
 -14   6  -6    1.17    0.51
 -16  -6  -6   -0.17    0.62
  16  -6   6   -0.17    0.33
  16   6   6    0.27    0.42
 -16   6  -6    0.80    0.53
  18  -6   6   -0.35    0.37
 -18  -6  -6   -0.59    0.65
 -18   6  -6    0.61    0.56
  18   6   6   -0.40    0.45
 -20  -6  -6    0.35    0.77
  20  -6   6    0.91    0.47
  20   6   6    0.96    0.55
 -20   6  -6    1.32    0.68
 -23   7   6    0.57    0.36
  19  -7  -6    0.41    0.34
 -19  -7   6   -0.38    0.57
  17  -7  -6    0.25    0.28
 -17  -7   6    0.04    0.53
  15  -7  -6    0.16    0.25
 -15  -7   6   -0.06    0.48
 -15   7   6    0.19    0.32
 -13  -7   6    0.85    0.48
  13  -7  -6    0.73    0.25
 -11  -7   6    0.81    0.45
  11  -7  -6    1.06    0.29
  11  -7  -6    1.27    0.22
 -11   7   6    1.79    0.30
  -9  -7   6    0.29    0.38
   9  -7  -6    0.12    0.25
  -9   7   6    0.21    0.24
  -9   7   6    0.26    0.23
  -7  -7   6    0.49    0.36
   7  -7  -6    0.40    0.29
  -7  -7   6    0.77    0.25
  -7   7   6    0.50    0.21
  -7   7   6    0.60    0.22
  -5  -7   6    0.75    0.33
   5  -7  -6    1.14    0.30
   5   7  -6    0.97    0.18
  -5   7   6    0.80    0.22
  -5   7   6    0.60    0.21
  -3  -7   6    2.06    0.31
   3  -7  -6    1.67    0.33
  -3  -7   6    1.88    0.35
  -3   7   6    1.72    0.24
   3   7  -6    2.26    0.23
  -3   7   6    1.88    0.24
  -1  -7   6    0.46    0.27
   1  -7  -6    0.88    0.28
  -1  -7   6    0.76    0.25
  -1   7   6    0.72    0.21
   1   7  -6    0.83    0.19
   1  -7   6    2.30    0.32
  -1  -7  -6    1.75    0.34
   1  -7   6    2.42    0.31
   1   7   6    2.23    0.26
   3  -7   6    2.92    0.38
   3  -7   6    2.73    0.39
  -3  -7  -6    2.69    0.39
   3   7   6    3.29    0.33
  -5  -7  -6    2.29    0.38
   5  -7   6    3.19    0.35
  -5  -7  -6    2.67    0.39
   5  -7   6    2.69    0.25
  -5   7  -6    2.89    0.39
   5   7   6    2.43    0.31
   7  -7   6    0.02    0.22
  -7  -7  -6   -0.21    0.27
   7  -7   6    0.23    0.14
  -7  -7  -6    0.00    0.35
   7   7   6    0.23    0.23
  -7   7  -6    0.17    0.30
  -9  -7  -6   -0.02    0.40
   9  -7   6    0.25    0.17
  -9  -7  -6    0.58    0.16
   9  -7   6    0.02    0.23
   9   7   6    0.28    0.26
  -9   7  -6   -0.04    0.33
 -11  -7  -6    1.71    0.40
 -11  -7  -6    1.26    0.53
  11  -7   6    1.81    0.32
  11   7   6    2.00    0.36
 -11   7  -6    1.87    0.46
  13  -7   6    1.56    0.32
 -13  -7  -6    1.38    0.59
  13  -7   6    1.97    0.32
  13   7   6    2.01    0.42
 -13   7  -6    1.99    0.51
 -15  -7  -6   -0.35    0.58
  15  -7   6    0.26    0.30
  15   7   6   -0.21    0.41
 -15   7  -6    1.03    0.49
  17  -7   6   -0.14    0.35
 -17  -7  -6   -0.66    0.62
  17   7   6   -0.12    0.45
 -17   7  -6    0.52    0.51
 -19  -7  -6   -0.78    0.70
  19  -7   6    0.21    0.45
 -19   7  -6    1.01    0.61
  19   7   6    0.42    0.50
 -18  -8   6   -0.56    0.57
  18  -8  -6    0.56    0.31
 -16  -8   6   -0.25    0.53
  16  -8  -6    0.17    0.26
 -14  -8   6   -0.22    0.49
  14  -8  -6    0.39    0.24
 -14   8   6    0.30    0.31
  12  -8  -6    0.55    0.22
 -12  -8   6    0.30    0.48
 -12   8   6    0.20    0.29
  10  -8  -6    0.73    0.29
 -10  -8   6    0.57    0.45
 -10   8   6    0.79    0.27
  -8  -8   6    3.20    0.51
  -8  -8   6    3.68    0.43
   8  -8  -6    2.90    0.41
  -8   8   6    3.34    0.33
  -8   8   6    2.62    0.35
   8   8  -6    3.85    0.34
  -6  -8   6    1.94    0.42
   6  -8  -6    2.44    0.40
  -6   8   6    1.92    0.27
  -6   8   6    1.98    0.28
   6   8  -6    2.06    0.24
   4  -8  -6    0.13    0.29
  -4  -8   6   -0.25    0.25
  -4  -8   6    0.04    0.30
  -4   8   6   -0.22    0.20
  -4   8   6    0.24    0.20
   4   8  -6    0.09    0.18
   2  -8  -6    0.53    0.31
  -2  -8   6    0.78    0.27
  -2  -8   6    0.93    0.30
   2   8  -6    1.06    0.20
  -2   8   6    0.72    0.21
  -2   8   6    0.55    0.21
   0  -8   6    3.94    0.42
   0  -8  -6    2.95    0.41
   0  -8   6    3.49    0.43
   0   8   6    3.77    0.36
   2  -8   6    1.81    0.31
  -2  -8  -6    1.84    0.36
   2  -8   6    2.00    0.32
   2   8   6    1.83    0.24
  -4  -8  -6    9.98    0.80
   4  -8   6   10.74    0.73
   4   8   6   10.66    0.69
  -6  -8  -6    2.41    0.43
  -6  -8  -6    3.66    0.48
   6  -8   6    3.66    0.29
   6  -8   6    3.23    0.43
   6   8   6    3.29    0.40
  -6   8  -6    3.60    0.47
   8  -8   6    0.22    0.15
  -8  -8  -6   -0.31    0.32
  -8  -8  -6   -0.03    0.37
   8  -8   6   -0.15    0.24
  -8   8  -6    0.06    0.32
   8   8   6   -0.38    0.24
 -10  -8  -6    1.19    0.27
  10  -8   6    1.20    0.23
 -10  -8  -6    0.30    0.47
  10  -8   6    1.34    0.31
  10   8   6    1.29    0.34
 -10   8  -6    0.73    0.40
 -12  -8  -6    2.71    0.64
  12  -8   6    2.37    0.37
 -12   8  -6    2.93    0.53
  12   8   6    3.32    0.47
 -14  -8  -6   -0.03    0.59
  14  -8   6    0.25    0.27
  14   8   6    0.12    0.38
 -14   8  -6    1.05    0.46
 -16  -8  -6    0.04    0.64
  16  -8   6    0.83    0.35
 -16   8  -6    1.78    0.50
  16   8   6    0.84    0.44
 -18  -8  -6   -0.27    0.66
  18  -8   6    0.34    0.41
  18   8   6    0.35    0.48
 -18   8  -6    1.51    0.63
  17  -9  -6    0.77    0.29
 -17  -9   6   -0.02    0.58
 -17   9   6   -0.25    0.34
 -15  -9   6    0.47    0.55
  15  -9  -6    1.82    0.31
 -15   9   6    0.90    0.34
 -13  -9   6   -0.18    0.51
  13  -9  -6    0.20    0.23
  13   9  -6    0.06    0.29
 -11  -9   6    0.00    0.49
  11  -9  -6    0.28    0.28
  11  -9  -6    0.61    0.21
 -11   9   6    0.51    0.29
   9  -9  -6    3.65    0.46
  -9  -9   6    3.78    0.60
  -9  -9   6    4.26    0.50
   9   9  -6    4.05    0.36
  -9   9   6    4.36    0.43
  -9   9   6    3.76    0.41
   7  -9  -6    3.27    0.44
  -7  -9   6    1.53    0.33
  -7  -9   6    2.67    0.49
  -7   9   6    2.87    0.32
   7   9  -6    3.18    0.29
  -7   9   6    2.16    0.31
  -5  -9   6    4.14    0.58
   5  -9  -6    4.61    0.58
  -5  -9   6    4.93    0.51
   5   9  -6    4.75    0.39
  -5   9   6    4.93    0.41
  -5   9   6    4.24    0.42
  -3  -9   6    1.37    0.32
   3  -9  -6    1.38    0.38
  -3  -9   6    1.46    0.36
  -3   9   6    1.31    0.24
   3   9  -6    1.36    0.23
  -3   9   6    1.63    0.25
   1  -9  -6    2.24    0.40
  -1  -9   6    1.89    0.34
  -1  -9   6    1.99    0.35
  -1   9   6    2.17    0.28
   1   9  -6    2.30    0.27
  -1  -9  -6    2.95    0.45
   1  -9   6    3.47    0.41
   1  -9   6    2.95    0.39
  -1   9  -6    3.76    0.32
   1   9   6    2.72    0.31
  -3  -9  -6    5.78    0.62
   3  -9   6    5.64    0.53
   3  -9   6    5.77    0.54
   3   9   6    6.28    0.47
  -5  -9  -6    9.49    0.80
   5  -9   6    9.54    0.72
   5   9   6    9.98    0.68
  -7  -9  -6    1.88    0.45
   7  -9   6    2.78    0.38
  -7  -9  -6    1.74    0.42
   7   9   6    2.74    0.35
  -9  -9  -6    2.30    0.47
  -9  -9  -6    1.24    0.47
   9  -9   6    1.31    0.33
   9   9   6    1.71    0.35
 -11  -9  -6    1.06    0.52
 -11  -9  -6    2.12    0.45
  11  -9   6    1.18    0.33
  11   9   6    1.48    0.37
 -11   9  -6    1.44    0.41
 -13  -9  -6    1.62    0.61
  13  -9   6    1.86    0.36
  13   9   6    3.60    0.51
 -13   9  -6    2.94    0.53
 -15  -9  -6   -0.31    0.58
  15  -9   6    0.16    0.31
  15   9   6    0.37    0.43
 -15   9  -6    0.92    0.58
  17  -9   6    0.29    0.41
 -17  -9  -6   -0.06    0.69
  17   9   6    0.48    0.47
  19  -9   6    0.35    0.51
  19   9   6   -0.37    0.51
  18 -10  -6    0.72    0.32
 -18  10   6    0.21    0.34
 -16 -10   6   -0.01    0.59
  16 -10  -6    0.63    0.29
 -16  10   6   -0.27    0.33
 -14 -10   6    1.24    0.61
  14 -10  -6    1.59    0.30
 -14  10   6    0.88    0.34
 -12 -10   6    0.05    0.53
  12 -10  -6    0.05    0.22
 -12  10   6    0.17    0.28
  12  10  -6    0.63    0.29
 -10 -10   6    0.55    0.51
  10 -10  -6    0.45    0.33
 -10  10   6    1.10    0.30
   8 -10  -6    1.84    0.40
  -8 -10   6    1.70    0.52
  -8 -10   6    2.54    0.42
   8  10  -6    2.34    0.31
  -8  10   6    2.06    0.32
  -8  10   6    2.16    0.33
  -6 -10   6    3.36    0.45
   6 -10  -6    2.81    0.49
  -6 -10   6    2.35    0.50
  -6  10   6    2.63    0.33
   6  10  -6    2.82    0.31
  -6  10   6    2.78    0.33
   4 -10  -6    3.17    0.50
  -4 -10   6    3.30    0.49
  -4 -10   6    3.34    0.45
   4  10  -6    3.83    0.36
  -4  10   6    3.01    0.34
  -4  10   6    3.79    0.35
  -2 -10   6    3.65    0.48
   2 -10  -6    4.33    0.53
  -2 -10   6    3.68    0.52
  -2  10   6    3.71    0.38
  -2  10   6    3.85    0.39
   0 -10   6    1.15    0.34
   0 -10   6    1.25    0.33
   0 -10  -6    1.24    0.39
   0  10   6    1.07    0.24
   0  10  -6    1.45    0.25
   2 -10   6    3.34    0.42
  -2 -10  -6    3.17    0.50
   2 -10   6    3.06    0.42
   2  10   6    3.40    0.35
  -4 -10  -6    1.45    0.45
   4 -10   6    1.96    0.38
   4  10   6    2.25    0.30
   6 -10   6    3.78    0.47
  -6 -10  -6    4.40    0.61
  -6  10  -6    4.39    0.55
   6  10   6    4.37    0.46
   8 -10   6    3.43    0.47
  -8 -10  -6    4.51    0.62
  -8 -10  -6    3.79    0.67
   8  10   6    4.50    0.46
  -8  10  -6    4.24    0.59
 -10 -10  -6    1.27    0.51
 -10 -10  -6    3.45    0.58
  10 -10   6    1.84    0.37
  10  10   6    2.39    0.39
 -10  10  -6    2.01    0.45
 -12 -10  -6    2.31    0.62
  12 -10   6    3.45    0.45
  12  10   6    3.93    0.50
 -14 -10  -6   -0.83    0.57
  14  10   6    0.56    0.39
 -16 -10  -6   -1.04    0.61
  16  10   6   -0.09    0.46
 -18 -10  -6   -0.69    0.68
  18  10   6    0.39    0.53
 -17 -11   6   -0.17    0.69
  17 -11  -6    0.89    0.30
 -17  11   6   -0.29    0.34
 -15 -11   6    0.04    0.62
  15 -11  -6    0.98    0.28
 -15  11   6    0.56    0.35
 -13 -11   6    1.15    0.61
  13 -11  -6    1.47    0.30
  13  11  -6    1.47    0.35
 -11 -11   6    0.21    0.56
  11 -11  -6    0.73    0.23
  11 -11  -6   -0.45    0.32
 -11  11   6    0.23    0.29
  11  11  -6    0.35    0.30
   9 -11  -6    1.61    0.41
  -9 -11   6    1.86    0.57
  -9 -11   6    1.87    0.52
  -9  11   6    1.53    0.32
  -9  11   6    1.97    0.32
   9  11  -6    1.91    0.32
   7 -11  -6    1.58    0.44
  -7 -11   6    1.72    0.44
  -7 -11   6    1.56    0.52
  -7  11   6    1.48    0.32
   7  11  -6    2.17    0.30
  -7  11   6    1.55    0.30
   5 -11  -6    1.53    0.47
  -5 -11   6    1.92    0.49
  -5 -11   6    1.93    0.43
  -5  11   6    2.15    0.31
  -5  11   6    1.92    0.31
   5  11  -6    2.20    0.29
  -3 -11   6    1.68    0.41
  -3 -11   6    1.86    0.42
   3 -11  -6    0.72    0.45
   3  11  -6    1.12    0.26
  -3  11   6    1.83    0.27
  -3  11   6    1.94    0.31
   1 -11  -6    0.22    0.40
  -1 -11   6    0.27    0.34
  -1 -11   6    0.02    0.33
  -1  11   6   -0.04    0.26
  -1  11   6    0.21    0.21
  -1 -11  -6    5.63    0.74
   1 -11   6    7.02    0.62
   1 -11   6    6.16    0.63
   1  11   6    6.82    0.54
  -1  11  -6    6.67    0.51
   3 -11   6    0.03    0.33
   3 -11   6   -0.07    0.28
  -3 -11  -6    0.43    0.43
   3  11   6    0.11    0.23
  -3  11  -6   -0.08    0.25
   5 -11   6    1.24    0.38
  -5 -11  -6    1.51    0.52
   5  11   6    1.78    0.31
  -5  11  -6    1.18    0.38
  -7 -11  -6    2.61    0.59
   7 -11   6    1.40    0.40
   7  11   6    1.81    0.34
  -7  11  -6    2.10    0.48
  -9 -11  -6    4.60    0.68
   9 -11   6    2.95    0.47
   9  11   6    3.61    0.45
  11 -11   6    0.43    0.34
 -11 -11  -6    2.10    0.93
  11  11   6    1.56    0.38
  13 -11   6    0.49    0.33
  13  11   6    0.96    0.42
 -15 -11  -6    0.96    0.78
 -17 -11  -6   -0.25    0.76
 -18  12   6    0.36    0.36
 -16 -12   6    0.52    0.72
  16 -12  -6    0.56    0.30
 -16  12   6   -0.45    0.34
 -14 -12   6    0.16    0.62
  14 -12  -6    0.31    0.26
  14  12  -6    0.14    0.36
 -14  12   6    0.11    0.33
  12 -12  -6    0.91    0.27
 -12 -12   6   -0.26    0.59
 -12  12   6    0.78    0.32
  12  12  -6    1.38    0.35
  10 -12  -6    0.31    0.38
 -10 -12   6    0.15    0.58
  10  12  -6    1.23    0.33
 -10  12   6    0.41    0.29
   8 -12  -6    2.03    0.49
  -8 -12   6    2.63    0.62
  -8 -12   6    2.13    0.51
  -8  12   6    1.55    0.32
  -8  12   6    2.10    0.35
   8  12  -6    2.35    0.36
   6 -12  -6    2.25    0.51
  -6 -12   6    2.37    0.56
  -6 -12   6    2.35    0.54
  -6  12   6    2.25    0.33
   6  12  -6    2.55    0.34
  -6  12   6    2.47    0.33
  -4 -12   6    1.23    0.45
   4 -12  -6    0.76    0.48
  -4 -12   6    1.06    0.47
   4  12  -6    0.50    0.25
  -4  12   6    1.51    0.31
  -4  12   6    1.10    0.27
   2 -12  -6    0.58    0.48
  -2 -12   6    0.29    0.38
  -2 -12   6    0.32    0.37
  -2  12   6    0.51    0.30
   2  12  -6    0.09    0.25
  -2  12   6    0.73    0.25
   0 -12   6    4.39    0.58
   0 -12  -6    5.80    0.68
   0 -12   6    5.03    0.61
   0  12   6    4.50    0.45
  -2 -12  -6    5.68    0.71
   2 -12   6    5.61    0.59
   2 -12   6    4.92    0.62
  -2  12  -6    5.16    0.48
   2  12   6    4.79    0.50
   4 -12   6    2.40    0.47
  -4 -12  -6    4.11    0.69
   4  12   6    3.36    0.37
   6 -12   6    0.90    0.39
  -6 -12  -6    1.76    0.62
   6  12   6    1.42    0.31
  -8 -12  -6    1.57    0.63
   8 -12   6    1.41    0.43
   8  12   6    1.26    0.38
 -10 -12  -6    2.15    0.64
  10 -12   6    0.74    0.36
  12 -12   6   -0.12    0.34
 -17  13   6    0.30    0.36
  15 -13  -6    0.71    0.29
 -15 -13   6   -0.31    0.70
 -15  13   6   -0.18    0.34
 -13 -13   6    0.02    0.65
  13 -13  -6    0.48    0.27
 -13  13   6   -0.19    0.32
  11 -13  -6    0.13    0.39
  11 -13  -6    1.59    0.29
 -11 -13   6    0.62    0.64
 -11  13   6    0.67    0.32
  11  13  -6    1.36    0.35
  -9 -13   6    1.27    0.64
   9 -13  -6    0.61    0.44
  -9  13   6    0.37    0.29
   9  13  -6    0.98    0.32
  -7 -13   6    2.46    0.57
   7 -13  -6    2.23    0.53
  -7 -13   6    2.65    0.62
  -7  13   6    2.68    0.37
   7  13  -6    2.47    0.37
  -7  13   6    2.62    0.37
   5 -13  -6    2.61    0.57
  -5 -13   6    3.51    0.60
  -5 -13   6    3.46    0.53
  -5  13   6    3.19    0.39
   5  13  -6    3.31    0.36
  -5  13   6    2.83    0.38
  -3 -13   6    0.61    0.43
   3 -13  -6    0.80    0.51
  -3 -13   6    0.26    0.42
  -3  13   6    0.25    0.26
  -3  13   6    0.39    0.30
   3  13  -6    0.59    0.27
  -1 -13   6    6.60    0.86
  -1 -13   6    5.54    0.66
   1 -13  -6    6.71    0.79
  -1  13   6    5.44    0.53
  -1  13   6    5.43    0.54
   1  13  -6    5.86    0.51
  -1 -13  -6    1.99    0.62
   1 -13   6    1.56    0.47
   1  13   6    0.89    0.34
  -1  13  -6    2.15    0.33
  -3 -13  -6    4.39    0.73
   3 -13   6    3.54    0.55
  -3  13  -6    3.95    0.41
  -5 -13  -6    5.18    0.77
   5 -13   6    3.03    0.53
   7 -13   6    0.13    0.40
  -7 -13  -6    0.35    0.63
   9 -13   6    0.91    0.42
  -9 -13  -6    1.75    0.67
  11 -13   6   -0.25    0.34
  13 -13   6    0.84    0.41
 -16  14   6   -0.33    0.36
 -14 -14   6    0.07    0.77
 -12 -14   6   -0.15    0.72
 -12  14   6    0.10    0.31
  12  14  -6   -0.18    0.36
  10 -14  -6   -0.48    0.41
 -10 -14   6    0.78    0.67
  10  14  -6    0.81    0.34
 -10  14   6    0.40    0.30
  -8 -14   6    0.06    0.52
   8 -14  -6   -0.20    0.46
  -8 -14   6    0.34    0.59
   8  14  -6    0.38    0.31
  -8  14   6    0.44    0.34
   6 -14  -6    0.35    0.53
  -6 -14   6    1.00    0.53
   6  14  -6    1.44    0.30
  -6  14   6    1.05    0.33
   4 -14  -6    0.44    0.54
  -4 -14   6    0.63    0.51
   4  14  -6    0.65    0.28
  -2 -14   6    0.51    0.49
   2 -14  -6    0.62    0.56
  -2  14   6    0.97    0.34
   2  14  -6    1.09    0.30
   0 -14   6    1.56    0.52
   0 -14  -6    2.73    0.66
   0  14  -6    2.05    0.34
   2 -14   6    0.75    0.49
  -2 -14  -6    0.96    0.63
  -2  14  -6    0.59    0.31
   4 -14   6    0.60    0.46
  -4 -14  -6    0.74    0.67
  -6 -14  -6    1.19    0.68
   6 -14   6   -0.05    0.41
   8 -14   6    0.24    0.42
  -8 -14  -6    1.19    0.77
  10 -14   6    0.03    0.41
 -10 -14  -6    0.25    0.74
  12 -14   6    0.19    0.41
 -15  15   6   -0.35    0.35
  15  15  -6   -0.03    0.42
 -13  15   6    0.25    0.33
  11 -15  -6   -1.08    0.49
 -11  15   6   -0.07    0.32
   9 -15  -6    0.05    0.47
   9  15  -6    0.40    0.35
  -9  15   6   -0.04    0.30
  -7 -15   6   -0.28    0.52
   7 -15  -6   -0.35    0.50
  -7  15   6    0.41    0.32
   7  15  -6    0.37    0.31
   5 -15  -6    0.02    0.56
  -5 -15   6   -0.36    0.49
   5  15  -6    0.20    0.31
  -5  15   6    0.21    0.33
  -3 -15   6    0.12    0.51
   3 -15  -6   -0.06    0.57
  -3  15   6    0.12    0.33
   3  15  -6    0.75    0.29
  -1 -15   6   -0.71    0.46
   1 -15  -6   -0.66    0.57
  -1  15   6   -0.28    0.33
   1 -15   6    0.20    0.49
  -1 -15  -6    0.65    0.66
  -1  15  -6    0.58    0.31
  -3 -15  -6    0.79    0.65
   3 -15   6    0.22    0.48
  -3  15  -6    0.38    0.32
   5 -15   6   -0.38    0.44
  -5 -15  -6    0.25    0.68
  -5  15  -6    0.48    0.31
   7 -15   6    0.10    0.45
  -7 -15  -6   -0.10    0.72
  -9 -15  -6    1.09    0.80
   9 -15   6   -0.04    0.44
  11 -15   6   -0.19    0.40
  10 -16  -6   -0.94    0.60
 -10  16   6    0.11    0.35
   8 -16  -6   -0.79    0.52
  -8  16   6   -0.28    0.37
   8  16  -6    0.68    0.35
   6 -16  -6   -0.93    0.57
  -6 -16   6   -0.75    0.52
   6  16  -6    0.43    0.33
  -6  16   6    0.09    0.35
  -4 -16   6   -0.34    0.53
   4 -16  -6   -0.85    0.58
  -4  16   6    0.17    0.33
   4  16  -6    0.25    0.31
   2 -16  -6   -0.21    0.66
  -2 -16   6   -0.50    0.51
   2  16  -6    0.09    0.29
  -2  16   6    0.54    0.37
   0 -16  -6   -0.33    0.65
   0 -16   6   -0.44    0.52
   2 -16   6   -0.50    0.51
   2  16   6    0.60    0.38
  -2  16  -6    0.32    0.32
   4 -16   6   -0.67    0.49
  -4 -16  -6    0.20    0.73
  -4  16  -6    0.11    0.31
   6 -16   6    0.12    0.49
  -6 -16  -6    0.06    0.73
  -6  16  -6    0.09    0.31
  -8 -16  -6   -0.32    0.76
  11  17  -6    0.21    0.40
 -11  17   6   -0.15    0.35
   9  17  -6   -0.24    0.39
  -9  17   6    0.02    0.35
   7  17  -6   -0.01    0.37
  -5  17   6    0.56    0.39
   5  17  -6    0.23    0.35
  -3  17   6    0.42    0.38
   3  17  -6    0.05    0.31
  -1  17   6   -0.12    0.38
   1  17  -6   -0.10    0.32
  -1  17  -6    0.26    0.32
  -3  17  -6   -0.17    0.32
  -5  17  -6   -0.18    0.32
   8  18  -6    0.23    0.38
  -8  18   6    0.06    0.37
   6  18  -6   -0.12    0.38
   2  18  -6   -0.02    0.35
  -2  18   6    0.19    0.41
  -2  18  -6   -0.19    0.33
  -4  18  -6    0.03    0.35
  -1  19  -6    0.46    0.37
   1  19   6    0.02    0.44
  22   0  -7    0.60    0.48
 -22   0   7   -0.88    0.62
  20   0  -7    0.29    0.40
 -20   0   7   -0.41    0.55
 -18   0   7   -0.50    0.50
  18   0  -7    0.23    0.33
 -16   0   7   -0.24    0.45
  16   0  -7    0.68    0.31
 -14   0   7   -0.21    0.25
  14   0  -7   -0.06    0.22
 -14   0   7   -0.42    0.38
 -12   0   7   -0.22    0.34
  12   0  -7   -0.04    0.17
 -12   0   7   -0.01    0.22
 -10   0   7   -0.11    0.21
 -10   0   7   -0.38    0.30
  10   0  -7   -0.07    0.14
  -8   0   7   -0.05    0.20
   8   0  -7   -0.09    0.13
  -8   0   7   -0.21    0.27
  -6   0   7    0.01    0.16
  -6   0   7    0.20    0.16
  -6   0   7   -0.25    0.20
  -4   0   7   -0.11    0.12
  -4   0   7    0.16    0.16
  -4   0   7   -0.02    0.11
  -2   0   7   -0.02    0.12
  -2   0   7   -0.19    0.10
  -2   0   7   -0.05    0.15
   0   0   7   -0.08    0.11
   0   0   7   -0.01    0.16
   0   0   7   -0.07    0.14
   2   0   7    0.06    0.12
   2   0   7    0.01    0.14
  -2   0  -7   -0.17    0.18
  -4   0  -7   -0.13    0.22
   4   0   7   -0.05    0.14
   4   0   7    0.09    0.13
  -6   0  -7    0.14    0.31
   6   0   7    0.07    0.17
   6   0   7    0.03    0.17
   8   0   7   -0.17    0.17
   8   0   7    0.03    0.20
  -8   0  -7    0.09    0.33
  10   0   7    0.18    0.19
 -10   0  -7   -0.12    0.38
  10   0   7    0.06    0.21
  12   0   7   -0.18    0.24
  12   0   7    0.17    0.20
 -12   0  -7   -0.03    0.44
  14   0   7   -0.22    0.29
 -14   0  -7   -0.11    0.52
  16   0   7    0.03    0.36
 -16   0  -7   -0.23    0.58
  18   0   7    0.04    0.42
 -18   0  -7   -0.38    0.62
  20   0   7   -0.54    0.46
 -20   0  -7    0.09    0.70
  21  -1  -7    0.87    0.44
 -21  -1   7   -0.30    0.62
 -21   1   7   -0.54    0.55
  21   1  -7    0.97    0.47
  19  -1  -7    0.22    0.36
 -19  -1   7   -0.37    0.54
 -19   1   7   -0.42    0.50
  19   1  -7    0.24    0.38
 -17  -1   7    0.15    0.31
 -17  -1   7    0.04    0.49
  17  -1  -7    0.36    0.32
  17   1  -7    0.02    0.31
 -17   1   7   -0.37    0.44
  15  -1  -7    0.53    0.25
 -15  -1   7    0.49    0.45
 -15   1   7    0.16    0.43
 -15   1   7   -0.08    0.28
  15   1  -7    0.65    0.29
 -13  -1   7    0.61    0.25
 -13  -1   7    0.72    0.41
  13  -1  -7    0.22    0.19
 -13   1   7    0.29    0.37
  13   1  -7    0.45    0.22
 -13   1   7    0.82    0.25
 -11  -1   7    2.39    0.41
 -11  -1   7    2.49    0.28
  11  -1  -7    2.44    0.29
  11   1  -7    2.78    0.30
 -11   1   7    2.76    0.40
  -9  -1   7    2.95    0.27
   9  -1  -7    2.65    0.28
  -9  -1   7    3.08    0.40
  -9   1   7    2.96    0.27
  -9   1   7    1.99    0.33
   9   1  -7    2.67    0.27
  -7  -1   7    3.12    0.37
  -7  -1   7    2.40    0.24
  -7   1   7    2.33    0.27
   7   1  -7    2.14    0.24
  -7   1   7    2.27    0.24
  -5  -1   7    7.91    0.48
  -5  -1   7    8.20    0.55
  -5   1   7    7.86    0.50
  -5   1   7    7.74    0.52
  -5   1   7    7.45    0.48
  -3  -1   7   10.37    0.69
  -3  -1   7   11.69    0.68
  -3  -1   7   12.46    0.73
  -3   1   7   11.87    0.69
  -3   1   7   12.48    0.70
  -1  -1   7    7.09    0.46
  -1  -1   7    7.36    0.49
  -1  -1   7    6.95    0.43
  -1   1   7    7.12    0.46
  -1   1   7    6.72    0.45
  -1   1   7    7.65    0.47
   1  -1   7    0.75    0.19
   1  -1   7    0.71    0.16
   1  -1   7    0.75    0.13
  -1  -1  -7    0.72    0.19
   1   1   7    0.83    0.15
   1   1   7    0.73    0.15
  -3  -1  -7   10.11    0.68
   3  -1   7    9.19    0.61
   3  -1   7   10.84    0.63
   3   1   7   10.77    0.62
  -3   1  -7   10.44    0.68
   3   1   7   10.30    0.63
   5  -1   7    1.25    0.19
   5  -1   7    1.40    0.21
  -5  -1  -7    2.12    0.34
  -5   1  -7    1.53    0.32
   5   1   7    1.44    0.20
   5   1   7    1.42    0.21
   7  -1   7    0.57    0.20
  -7  -1  -7    0.61    0.36
   7  -1   7    0.39    0.18
   7   1   7    0.39    0.18
   7   1   7    0.53    0.20
  -7   1  -7    0.32    0.34
   9  -1   7    1.30    0.25
  -9  -1  -7    1.55    0.43
   9  -1   7    1.64    0.24
   9   1   7    1.86    0.24
   9   1   7    1.80    0.27
  -9   1  -7    1.83    0.40
  11  -1   7    3.50    0.35
  11  -1   7    3.16    0.36
 -11  -1  -7    2.80    0.54
  11   1   7    2.89    0.36
  11   1   7    3.04    0.35
 -11   1  -7    2.55    0.51
  13  -1   7    0.93    0.29
  13  -1   7    0.86    0.25
 -13  -1  -7    0.29    0.51
 -13   1  -7    0.67    0.49
  13   1   7    0.63    0.30
 -15  -1  -7    2.72    0.66
  15  -1   7    1.82    0.41
  15   1   7    2.28    0.43
 -15   1  -7    2.56    0.63
  17  -1   7    1.17    0.42
 -17  -1  -7    0.95    0.66
 -17   1  -7    1.34    0.65
  17   1   7    0.53    0.43
 -19  -1  -7    0.76    0.71
  19  -1   7   -0.07    0.45
 -19   1  -7    0.32    0.67
  19   1   7    0.51    0.46
 -21  -1  -7   -0.30    0.76
  21  -1   7   -0.25    0.54
 -21   1  -7    0.31    0.75
  21   1   7   -0.16    0.65
 -22  -2   7   -0.20    0.71
 -22   2   7   -0.36    0.85
  22   2  -7    0.22    0.48
 -20  -2   7   -0.59    0.59
  20  -2  -7    0.34    0.39
  20   2  -7    0.03    0.41
 -20   2   7   -0.26    0.51
  18  -2  -7   -0.05    0.32
 -18  -2   7   -0.15    0.56
  18   2  -7    0.36    0.37
 -18   2   7   -0.21    0.48
  16  -2  -7    1.98    0.34
 -16  -2   7    1.12    0.52
  16   2  -7    2.24    0.37
 -16   2   7    1.00    0.46
 -14  -2   7    1.12    0.45
  14  -2  -7    1.23    0.25
  14   2  -7    1.21    0.28
 -14   2   7    1.19    0.40
  12  -2  -7   -0.10    0.15
 -12  -2   7    0.08    0.36
 -12  -2   7    0.26    0.23
 -12   2   7   -0.16    0.22
  12   2  -7   -0.11    0.18
 -12   2   7   -0.14    0.23
 -10  -2   7    2.03    0.40
  10  -2  -7    2.03    0.23
 -10  -2   7    2.41    0.27
  10   2  -7    2.25    0.23
 -10   2   7    1.78    0.32
 -10   2   7    2.27    0.26
  -8  -2   7    0.47    0.20
  -8  -2   7   -0.06    0.31
  -8   2   7    0.01    0.25
  -8   2   7    0.32    0.20
   8   2  -7    0.13    0.14
  -6  -2   7    4.01    0.45
  -6  -2   7    3.96    0.33
  -6   2   7    3.72    0.32
  -6   2   7    4.05    0.37
  -6   2   7    4.10    0.35
  -4  -2   7    6.44    0.40
  -4  -2   7    6.31    0.42
  -4  -2   7    6.91    0.50
  -4   2   7    5.81    0.41
  -4   2   7    6.94    0.43
  -4   2   7    6.86    0.43
  -2  -2   7    3.25    0.29
  -2  -2   7    3.42    0.34
  -2   2   7    3.44    0.28
  -2   2   7    3.50    0.28
   0  -2   7    5.53    0.41
   0  -2   7    5.43    0.39
   0   2   7    5.37    0.38
   0   2   7    5.27    0.37
   2  -2   7    0.99    0.13
   2  -2   7    0.82    0.17
   2  -2   7    0.95    0.20
  -2  -2  -7    0.20    0.21
   2   2   7    0.81    0.17
   2   2   7    0.83    0.16
   4  -2   7    9.18    0.57
  -4  -2  -7    8.00    0.64
   4   2   7    9.47    0.57
   4   2   7    9.24    0.56
  -4   2  -7    8.02    0.63
   6  -2   7   13.47    0.80
   6  -2   7   13.18    0.79
  -6  -2  -7   12.14    0.91
   6   2   7   13.48    0.81
   6   2   7   13.40    0.80
  -6   2  -7   12.22    0.89
   8  -2   7    3.97    0.38
  -8  -2  -7    4.15    0.59
   8  -2   7    3.83    0.37
   8   2   7    3.78    0.38
   8   2   7    4.35    0.41
  -8   2  -7    4.08    0.54
  10  -2   7    1.94    0.26
  10  -2   7    2.10    0.28
 -10  -2  -7    1.05    0.47
 -10   2  -7    1.64    0.42
  10   2   7    2.03    0.27
  10   2   7    1.55    0.28
  12  -2   7    1.87    0.31
 -12  -2  -7    1.32    0.54
  12  -2   7    1.64    0.26
  12   2   7    1.43    0.31
  12   2   7    1.85    0.27
 -12   2  -7    1.28    0.48
 -14  -2  -7    1.54    0.60
  14  -2   7    1.62    0.35
 -14   2  -7    1.67    0.54
  14   2   7    1.45    0.37
 -16  -2  -7    1.58    0.66
  16  -2   7    0.82    0.39
 -16   2  -7    1.72    0.61
  16   2   7    1.68    0.43
  18  -2   7    1.01    0.45
 -18  -2  -7    0.44    0.66
  18   2   7    1.12    0.45
 -18   2  -7    1.06    0.65
  20  -2   7   -0.14    0.47
 -20  -2  -7   -0.38    0.71
 -20   2  -7    0.87    0.71
  20   2   7    0.18    0.48
 -21  -3   7   -0.38    0.63
  21  -3  -7    0.18    0.38
  21   3  -7   -0.80    0.42
  19  -3  -7    0.18    0.33
 -19  -3   7   -0.63    0.53
  19   3  -7    0.02    0.39
 -19   3   7   -0.70    0.59
 -17  -3   7   -0.27    0.48
  17  -3  -7    0.15    0.28
 -17   3   7   -0.31    0.47
  17   3  -7    0.14    0.33
 -17   3   7    0.10    0.30
 -15  -3   7    1.27    0.49
  15  -3  -7    2.54    0.31
 -15   3   7    0.53    0.32
 -13  -3   7    0.35    0.26
  13  -3  -7    0.51    0.19
 -13  -3   7    0.44    0.41
 -13   3   7    0.34    0.34
  13   3  -7    0.40    0.23
 -13   3   7    0.55    0.25
  11  -3  -7    0.66    0.18
 -11  -3   7    0.67    0.36
 -11  -3   7    0.85    0.24
 -11   3   7    0.85    0.24
  11   3  -7    0.85    0.20
 -11   3   7    0.72    0.30
  -9  -3   7    2.00    0.38
  -9   3   7    1.97    0.25
  -9   3   7    1.93    0.30
   9   3  -7    1.67    0.21
  -7  -3   7   12.95    0.88
  -7  -3   7   13.02    0.77
   7   3  -7   12.00    0.75
  -7   3   7   12.75    0.79
  -7   3   7   13.18    0.79
  -7   3   7   13.56    0.77
  -5  -3   7    3.41    0.29
   5  -3  -7    2.30    0.31
  -5  -3   7    2.85    0.28
  -5  -3   7    3.15    0.41
  -5   3   7    2.96    0.30
   5   3  -7    2.52    0.22
  -3  -3   7   11.73    0.74
  -3   3   7   11.59    0.70
  -1  -3   7    4.68    0.36
  -1  -3   7    4.48    0.39
  -1   3   7    4.62    0.34
  -1   3   7    5.14    0.36
   1  -3   7    8.73    0.58
   1  -3   7    8.71    0.56
   1   3   7    8.87    0.55
   1   3   7    8.56    0.54
   3  -3   7   17.77    1.09
  -3  -3  -7   18.95    1.11
   3  -3   7   19.12    1.05
   3   3   7   18.48    1.07
   3   3   7   18.29    1.08
  -5  -3  -7    7.76    0.70
   5  -3   7    9.41    0.60
   5  -3   7    8.47    0.55
  -5   3  -7    7.76    0.67
   5   3   7    9.77    0.60
   5   3   7    9.78    0.59
   7  -3   7    2.65    0.31
   7  -3   7    2.63    0.34
  -7  -3  -7    3.42    0.49
  -7   3  -7    4.16    0.45
   7   3   7    2.67    0.34
   7   3   7    2.67    0.31
   9  -3   7    9.37    0.61
  -9  -3  -7    7.22    0.80
   9  -3   7    9.35    0.60
   9   3   7    9.46    0.64
   9   3   7    9.35    0.61
  -9   3  -7    7.79    0.73
  11  -3   7    7.55    0.59
  11  -3   7    8.17    0.57
 -11  -3  -7    6.98    0.84
  11   3   7    8.56    0.62
  11   3   7    7.75    0.57
 -11   3  -7    6.89    0.73
 -13  -3  -7    1.91    0.61
  13  -3   7    1.89    0.29
  13  -3   7    2.09    0.34
  13   3   7    1.97    0.38
 -13   3  -7    2.94    0.58
 -15  -3  -7    3.71    0.74
  15  -3   7    3.69    0.47
  15   3   7    3.79    0.51
 -15   3  -7    3.83    0.68
 -17  -3  -7    0.03    0.63
  17  -3   7   -0.24    0.36
  17   3   7    0.12    0.42
 -17   3  -7    0.02    0.60
 -19  -3  -7    1.11    0.73
  19  -3   7    0.98    0.46
  19   3   7    0.42    0.48
 -19   3  -7    2.22    0.74
 -21   3  -7    1.31    0.80
  22   4  -7    0.00    0.50
  20  -4  -7    1.15    0.38
 -20  -4   7   -0.10    0.57
  20   4  -7    0.18    0.45
  18  -4  -7    0.20    0.31
 -18  -4   7   -0.04    0.51
  18   4  -7   -0.10    0.36
  16  -4  -7    1.32    0.30
 -16  -4   7    0.31    0.49
  16   4  -7    1.45    0.34
 -16   4   7    0.19    0.64
  14  -4  -7    1.67    0.27
 -14  -4   7    1.29    0.48
 -14  -4   7    1.52    0.33
  14   4  -7    2.27    0.33
 -14   4   7    1.25    0.30
 -14   4   7    1.10    0.39
  12  -4  -7    1.73    0.24
 -12  -4   7    0.89    0.28
 -12  -4   7    0.87    0.40
 -12   4   7    1.19    0.33
 -12   4   7    0.95    0.26
  12   4  -7    1.63    0.25
 -10  -4   7    2.36    0.42
 -10  -4   7    2.63    0.30
 -10   4   7    2.81    0.29
  10   4  -7    2.48    0.29
 -10   4   7    2.24    0.33
  -8  -4   7    3.50    0.43
  -8  -4   7    3.33    0.33
   8   4  -7    2.79    0.27
  -8   4   7    3.34    0.33
  -8   4   7    3.07    0.36
   6  -4  -7   12.59    0.80
  -6  -4   7   12.06    0.76
  -6  -4   7   13.12    0.87
  -6  -4   7   12.89    0.76
  -6   4   7   12.89    0.77
  -6   4   7   11.75    0.75
  -4  -4   7    6.53    0.44
  -4  -4   7    7.24    0.56
  -4  -4   7    5.30    0.45
   4  -4  -7    7.02    0.52
  -4   4   7    6.89    0.46
  -4   4   7    6.68    0.43
  -2  -4   7   13.18    0.85
   2  -4  -7   15.08    0.85
  -2  -4   7   12.45    0.80
  -2   4   7   12.91    0.79
   0  -4   7   17.64    1.06
   0  -4  -7   18.47    1.08
   0  -4   7   17.34    1.04
   0   4   7   17.41    1.02
   2  -4   7    2.29    0.31
   2  -4   7    2.67    0.34
   2   4   7    2.57    0.29
  -4  -4  -7   14.12    0.97
   4  -4   7   15.56    0.93
   4  -4   7   16.41    0.88
   4   4   7   16.64    0.92
  -4   4  -7   13.35    0.97
  -6  -4  -7   11.61    0.86
   6  -4   7   11.95    0.72
   6  -4   7   11.93    0.77
  -6   4  -7   11.59    0.85
   6   4   7   11.78    0.75
   6   4   7   12.06    0.76
   8  -4   7   11.52    0.74
  -8  -4  -7   11.28    0.90
   8  -4   7   11.49    0.71
  -8   4  -7   10.63    0.83
   8   4   7   11.49    0.75
  10  -4   7    7.71    0.55
 -10  -4  -7    6.11    0.78
  10  -4   7    7.51    0.54
 -10   4  -7    6.42    0.68
  10   4   7    7.66    0.59
 -12  -4  -7    1.89    0.58
  12  -4   7    1.68    0.29
  12  -4   7    1.88    0.31
 -12   4  -7    2.16    0.49
  12   4   7    1.98    0.36
 -14  -4  -7    1.95    0.65
  14  -4   7    1.58    0.36
  14   4   7    1.06    0.38
 -14   4  -7    2.15    0.56
  16  -4   7    4.55    0.51
 -16  -4  -7    2.36    0.73
 -16   4  -7    2.68    0.66
  16   4   7    3.58    0.52
  18  -4   7    0.61    0.43
 -18  -4  -7    0.47    0.70
  18   4   7    0.40    0.46
 -18   4  -7    1.27    0.68
  20  -4   7    0.96    0.49
 -20  -4  -7    0.30    0.76
  20   4   7    0.77    0.50
 -20   4  -7    1.47    0.75
  19  -5  -7    0.97    0.36
 -19  -5   7    0.01    0.57
  19   5  -7    0.84    0.42
  17  -5  -7    1.86    0.34
 -17  -5   7    1.03    0.52
  17   5  -7    1.73    0.40
 -17   5   7    1.03    0.32
 -15  -5   7    2.23    0.39
  15  -5  -7    3.74    0.43
 -15  -5   7    1.36    0.52
 -15   5   7    2.47    0.36
  15   5  -7    3.42    0.39
 -13  -5   7    2.36    0.51
  13  -5  -7    3.14    0.37
 -13  -5   7    2.59    0.37
 -13   5   7    2.98    0.35
  13   5  -7    3.48    0.40
  11  -5  -7    3.52    0.35
 -11  -5   7    3.83    0.57
 -11  -5   7    4.87    0.43
 -11   5   7    5.52    0.41
  11   5  -7    4.09    0.38
 -11   5   7    3.81    0.57
   9  -5  -7    3.05    0.40
  -9  -5   7    3.84    0.48
  -9  -5   7    4.06    0.38
   9   5  -7    3.63    0.32
  -9   5   7    4.00    0.40
  -9   5   7    4.42    0.38
  -7  -5   7    9.44    0.75
  -7  -5   7    9.60    0.62
   7  -5  -7   10.07    0.67
  -7   5   7    9.67    0.61
  -7   5   7    9.36    0.63
   5  -5  -7   21.96    1.31
  -5  -5   7   21.21    1.25
  -5  -5   7   22.72    1.28
  -5  -5   7   21.92    1.34
  -5   5   7   21.13    1.25
  -5   5   7   22.58    1.27
  -3  -5   7    6.21    0.49
   3  -5  -7    6.52    0.54
  -3  -5   7    6.70    0.56
  -3   5   7    6.09    0.46
  -1  -5   7   12.17    0.81
   1  -5  -7   12.34    0.83
  -1  -5   7   12.41    0.79
  -1   5   7   13.47    0.77
  -1  -5  -7   13.63    0.93
   1  -5   7   14.88    0.91
   1  -5   7   13.96    0.88
   1   5   7   14.75    0.86
  -3  -5  -7    3.76    0.45
   3  -5   7    4.60    0.42
   3  -5   7    4.63    0.45
   3   5   7    4.88    0.40
  -5  -5  -7   11.22    0.79
  -5  -5  -7   11.99    0.81
   5  -5   7   10.80    0.66
   5  -5   7    9.98    0.72
  -5   5  -7   12.04    0.80
   5   5   7   10.50    0.71
   7  -5   7    9.98    0.70
   7  -5   7   10.58    0.64
  -7  -5  -7   10.33    0.75
  -7  -5  -7   10.22    0.81
  -7   5  -7   10.27    0.79
   7   5   7   10.39    0.70
  -9  -5  -7   16.47    1.13
   9  -5   7   12.96    0.93
   9  -5   7   16.71    0.99
  -9   5  -7   16.09    1.08
   9   5   7   16.74    0.99
 -11  -5  -7    3.07    0.41
  11  -5   7    3.52    0.40
 -11  -5  -7    3.18    0.62
  11  -5   7    3.05    0.36
 -11   5  -7    2.93    0.52
  11   5   7    3.80    0.42
  13  -5   7    0.20    0.26
  13  -5   7    0.14    0.24
 -13  -5  -7   -0.39    0.55
 -13   5  -7    1.23    0.50
  13   5   7    0.39    0.35
 -15  -5  -7    2.49    0.71
  15  -5   7    3.06    0.43
  15   5   7    2.85    0.49
 -15   5  -7    2.95    0.62
  17  -5   7    3.66    0.51
 -17  -5  -7    2.21    0.77
  17   5   7    3.18    0.53
 -17   5  -7    2.89    0.66
 -19  -5  -7   -0.21    0.72
  19  -5   7    1.02    0.46
  19   5   7    1.30    0.51
 -19   5  -7    1.61    0.67
 -21   5  -7    0.78    0.80
 -20  -6   7   -0.08    0.62
  20  -6  -7    0.44    0.35
  18  -6  -7    1.24    0.33
 -18  -6   7   -0.06    0.54
 -18  -6   7    0.60    0.35
 -18   6   7    0.55    0.32
 -16  -6   7   -0.57    0.46
  16  -6  -7    0.44    0.27
 -16   6   7    0.52    0.32
 -14  -6   7    1.55    0.51
  14  -6  -7    2.53    0.32
 -14   6   7    1.94    0.35
  14   6  -7    1.97    0.36
 -12  -6   7    2.98    0.36
 -12  -6   7    2.85    0.53
  12  -6  -7    3.04    0.35
 -12   6   7    3.31    0.36
  12   6  -7    3.25    0.38
  10  -6  -7    2.86    0.40
 -10  -6   7    4.14    0.37
 -10  -6   7    3.83    0.57
  10   6  -7    3.84    0.35
 -10   6   7    4.18    0.39
  -8  -6   7    6.31    0.47
   8  -6  -7    6.13    0.53
  -8  -6   7    5.48    0.62
  -8   6   7    5.74    0.48
  -8   6   7    6.76    0.46
  -6  -6   7    6.80    0.63
  -6  -6   7    7.45    0.51
   6  -6  -7    5.56    0.56
  -6   6   7    6.69    0.50
  -6   6   7    6.88    0.48
  -4  -6   7   40.24    2.23
   4  -6  -7   38.40    2.26
  -4  -6   7   40.78    2.27
  -4   6   7   38.63    2.20
   4   6  -7   38.61    2.19
  -4   6   7   40.14    2.21
  -2  -6   7   13.14    0.85
  -2  -6   7   12.14    0.80
   2  -6  -7   11.79    0.85
  -2   6   7   13.27    0.78
   0  -6   7    3.08    0.38
   0  -6   7    2.86    0.36
   0  -6  -7    3.48    0.40
   0   6   7    3.15    0.33
  -2  -6  -7    8.93    0.68
   2  -6   7    8.13    0.60
   2  -6   7    8.32    0.62
   2   6   7    8.64    0.57
  -4  -6  -7   15.36    1.03
  -4  -6  -7   16.51    1.06
   4  -6   7   16.09    1.01
   4   6   7   17.68    0.99
  -6  -6  -7    6.16    0.59
  -6  -6  -7    5.97    0.56
   6  -6   7    4.88    0.48
   6  -6   7    5.59    0.39
  -6   6  -7    6.13    0.58
   6   6   7    4.96    0.47
   8  -6   7    9.32    0.57
  -8  -6  -7    9.05    0.70
   8  -6   7    8.21    0.63
  -8  -6  -7    8.14    0.77
   8   6   7    8.28    0.63
  -8   6  -7    7.97    0.71
 -10  -6  -7    8.70    0.86
 -10  -6  -7    9.48    0.73
  10  -6   7    8.88    0.67
  10   6   7    9.41    0.71
 -10   6  -7    9.31    0.80
 -12  -6  -7    3.12    0.66
 -12  -6  -7    4.24    0.56
  12  -6   7    3.96    0.45
  12  -6   7    3.67    0.46
 -12   6  -7    4.14    0.59
  12   6   7    4.02    0.48
 -14  -6  -7    1.28    0.64
  14  -6   7    1.53    0.33
 -14   6  -7    2.02    0.55
  14   6   7    0.90    0.41
 -16  -6  -7    0.62    0.66
  16  -6   7    1.15    0.39
  16   6   7    1.49    0.46
 -16   6  -7    1.89    0.56
 -18  -6  -7   -0.22    0.70
  18  -6   7    0.07    0.40
  18   6   7   -0.08    0.49
 -18   6  -7    1.93    0.60
 -20  -6  -7   -0.79    0.97
  20  -6   7    0.43    0.46
 -20   6  -7    1.50    0.70
  20   6   7    0.17    0.56
 -19  -7   7   -0.51    0.58
  19  -7  -7    0.88    0.34
  17  -7  -7    1.06    0.30
 -17  -7   7    0.72    0.56
 -17  -7   7    0.68    0.37
 -17   7   7    0.39    0.33
  15  -7  -7    1.65    0.30
 -15  -7   7    0.82    0.52
  13  -7  -7    0.46    0.23
 -13  -7   7    0.40    0.48
 -13  -7   7    0.22    0.32
 -13   7   7    0.83    0.31
 -11  -7   7    5.36    0.47
 -11  -7   7    4.45    0.61
 -11   7   7    5.83    0.48
  -9  -7   7    4.09    0.55
  -9  -7   7    4.47    0.42
   9  -7  -7    4.30    0.50
  -9   7   7    3.77    0.44
  -9   7   7    4.68    0.41
   7  -7  -7    5.57    0.59
  -7  -7   7    7.15    0.53
  -7  -7   7    6.13    0.65
  -7   7   7    6.34    0.51
  -7   7   7    7.23    0.49
  -5  -7   7    3.29    0.42
   5  -7  -7    4.83    0.53
  -5  -7   7    4.68    0.55
  -5   7   7    4.88    0.39
   5   7  -7    5.20    0.36
  -5   7   7    4.80    0.41
  -3  -7   7   18.35    1.14
  -3  -7   7   17.77    1.09
   3  -7  -7   17.46    1.13
   3   7  -7   19.19    1.03
  -3   7   7   18.60    1.06
  -3   7   7   16.23    1.04
   1  -7  -7    7.67    0.63
  -1  -7   7    7.55    0.60
  -1  -7   7    7.28    0.57
  -1   7   7    7.81    0.54
   1  -7   7    4.65    0.47
   1  -7   7    4.44    0.43
  -1  -7  -7    3.79    0.46
   1   7   7    4.90    0.40
   3  -7   7   19.45    1.18
   3  -7   7   19.38    1.17
  -3  -7  -7   19.71    1.22
   3   7   7   18.72    1.14
  -5  -7  -7    6.92    0.65
  -5  -7  -7    7.61    0.67
   5  -7   7    8.44    0.60
   5   7   7    8.84    0.58
  -5   7  -7    7.98    0.66
   7  -7   7    2.55    0.28
  -7  -7  -7    3.20    0.44
  -7  -7  -7    2.29    0.44
   7  -7   7    2.80    0.35
   7   7   7    2.49    0.33
  -7   7  -7    2.80    0.45
  -9  -7  -7    2.26    0.42
   9  -7   7    2.14    0.33
   9  -7   7    2.51    0.27
  -9  -7  -7    2.28    0.50
  -9   7  -7    2.26    0.45
   9   7   7    2.32    0.36
 -11  -7  -7    7.26    0.67
  11  -7   7    7.10    0.59
 -11  -7  -7    5.73    0.81
  11   7   7    7.09    0.66
 -11   7  -7    6.41    0.72
  13  -7   7    1.79    0.34
 -13  -7  -7    1.76    0.64
  13  -7   7    1.89    0.33
 -13   7  -7    2.82    0.54
  13   7   7    2.05    0.44
  15  -7   7    1.56    0.37
 -15  -7  -7    1.25    0.66
  15   7   7    1.87    0.47
 -15   7  -7    2.50    0.57
 -17  -7  -7    0.01    0.66
  17  -7   7    0.27    0.38
  17   7   7    0.94    0.51
 -17   7  -7    1.67    0.54
 -19  -7  -7    0.19    0.74
  19  -7   7   -0.11    0.42
 -19   7  -7    1.30    0.60
  19   7   7   -0.06    0.52
 -20   8   7    0.58    0.38
  18  -8  -7    1.56    0.35
 -18  -8   7    0.43    0.60
  16  -8  -7    0.90    0.28
 -16  -8   7   -0.06    0.53
 -16   8   7    0.77    0.34
 -14  -8   7    0.04    0.49
  14  -8  -7    0.51    0.25
 -14   8   7    0.16    0.31
 -12  -8   7    2.83    0.59
  12  -8  -7    3.22    0.35
 -12   8   7    3.39    0.39
 -10  -8   7    1.89    0.50
  10  -8  -7    2.03    0.34
 -10   8   7    2.32    0.32
  -8  -8   7    6.19    0.72
  -8  -8   7    7.43    0.57
   8  -8  -7    6.45    0.64
   8   8  -7    7.19    0.48
  -8   8   7    6.78    0.52
  -8   8   7    6.12    0.54
  -6  -8   7    4.20    0.51
   6  -8  -7    3.75    0.46
   6   8  -7    3.46    0.31
  -6   8   7    4.22    0.36
  -6   8   7    3.11    0.39
   4  -8  -7    2.06    0.40
  -4  -8   7    2.26    0.41
  -4  -8   7    2.09    0.34
   4   8  -7    2.46    0.26
  -4   8   7    2.28    0.28
  -4   8   7    1.97    0.27
   2  -8  -7    1.62    0.36
  -2  -8   7    1.82    0.35
  -2  -8   7    1.99    0.32
   2   8  -7    2.05    0.24
  -2   8   7    1.80    0.26
  -2   8   7    1.47    0.24
   0  -8   7    1.96    0.32
   0  -8   7    2.45    0.35
   0  -8  -7    1.98    0.37
   0   8   7    2.39    0.29
  -2  -8  -7   12.65    0.91
   2  -8   7   12.60    0.85
   2  -8   7   13.51    0.87
   2   8   7   12.89    0.81
  -4  -8  -7    4.71    0.55
   4  -8   7    4.79    0.48
   4   8   7    4.03    0.42
  -6  -8  -7    2.64    0.43
  -6  -8  -7    2.72    0.45
   6  -8   7    3.27    0.39
   6   8   7    3.22    0.35
  -6   8  -7    3.47    0.48
  -8  -8  -7    0.13    0.39
   8  -8   7    0.04    0.26
   8  -8   7    0.05    0.15
  -8  -8  -7    0.10    0.35
   8   8   7   -0.04    0.26
  -8   8  -7    0.21    0.34
  10  -8   7    4.30    0.51
  10  -8   7    4.22    0.42
 -10  -8  -7    4.78    0.63
 -10  -8  -7    4.08    0.52
  10   8   7    4.70    0.50
 -10   8  -7    4.51    0.64
  12  -8   7    4.16    0.51
 -12  -8  -7    4.02    0.69
  12  -8   7    3.74    0.40
  12   8   7    5.27    0.55
 -12   8  -7    4.62    0.66
 -14  -8  -7    0.11    0.59
  14  -8   7    0.95    0.32
 -14   8  -7    2.09    0.51
  14   8   7    1.68    0.44
  16  -8   7    1.17    0.38
 -16  -8  -7    0.73    0.67
 -16   8  -7    2.41    0.56
  16   8   7    0.76    0.46
 -18  -8  -7   -0.85    0.68
  18  -8   7   -0.11    0.39
 -18   8  -7    1.90    0.58
  18   8   7    0.30    0.49
 -19   9   7   -0.32    0.37
 -17  -9   7   -0.14    0.57
  17  -9  -7    0.66    0.29
  15  -9  -7    0.71    0.26
 -15  -9   7    0.13    0.55
 -15   9   7   -0.41    0.33
 -13  -9   7    1.58    0.58
  13  -9  -7    2.24    0.31
 -13   9   7    1.71    0.37
 -11  -9   7    2.62    0.59
  11  -9  -7    2.10    0.39
  11   9  -7    2.69    0.34
 -11   9   7    3.07    0.36
  -9  -9   7   -0.01    0.47
  -9  -9   7    0.12    0.37
   9  -9  -7    0.40    0.33
  -9   9   7    0.66    0.29
   9   9  -7    0.45    0.22
  -9   9   7    0.32    0.28
  -7  -9   7    1.96    0.36
   7  -9  -7    2.70    0.46
  -7  -9   7    2.70    0.50
  -7   9   7    3.01    0.33
  -7   9   7    2.58    0.33
   7   9  -7    2.56    0.29
  -5  -9   7    2.85    0.40
   5  -9  -7    2.77    0.46
  -5  -9   7    2.32    0.47
  -5   9   7    2.55    0.33
  -5   9   7    3.06    0.32
   5   9  -7    3.50    0.31
   3  -9  -7    2.32    0.43
  -3  -9   7    2.68    0.39
  -3  -9   7    2.59    0.41
   3   9  -7    2.58    0.28
  -3   9   7    2.78    0.30
  -3   9   7    2.14    0.29
  -1  -9   7    2.96    0.41
  -1  -9   7    3.24    0.40
   1  -9  -7    2.94    0.46
  -1   9   7    2.85    0.33
   1   9  -7    3.70    0.32
   1  -9   7    3.05    0.39
   1  -9   7    2.42    0.37
  -1  -9  -7    2.01    0.42
   1   9   7    2.58    0.30
   3  -9   7    3.30    0.39
   3  -9   7    3.13    0.39
  -3  -9  -7    2.36    0.45
   3   9   7    3.12    0.37
   5  -9   7    6.11    0.58
  -5  -9  -7    6.97    0.70
  -5   9  -7    7.65    0.64
   5   9   7    5.69    0.54
  -7  -9  -7    4.83    0.59
   7  -9   7    3.80    0.50
  -7  -9  -7    3.00    0.52
   7   9   7    4.28    0.48
  -7   9  -7    4.41    0.54
  -9  -9  -7    2.89    0.56
  -9  -9  -7    4.55    0.59
   9  -9   7    3.75    0.46
   9   9   7    4.10    0.45
  -9   9  -7    3.74    0.54
 -11  -9  -7    0.06    0.50
  11  -9   7    0.74    0.32
  11   9   7    1.02    0.38
 -11   9  -7    1.04    0.43
  13  -9   7    1.20    0.34
 -13  -9  -7    0.87    0.61
  13   9   7    1.52    0.45
 -13   9  -7    1.50    0.49
 -15  -9  -7   -0.21    0.61
  15   9   7   -0.33    0.41
 -15   9  -7    1.73    0.49
 -17  -9  -7   -0.58    0.66
  17   9   7    0.16    0.47
 -20  10   7    0.00    0.38
  18 -10  -7    0.61    0.39
 -16 -10   7    0.29    0.61
  16 -10  -7    0.55    0.28
 -16  10   7   -0.32    0.35
  16  10  -7    0.55    0.34
 -14 -10   7   -0.57    0.55
  14 -10  -7    0.86    0.27
 -14  10   7    0.15    0.34
  14  10  -7    0.64    0.31
 -12 -10   7    1.01    0.56
  12 -10  -7    2.08    0.30
  12  10  -7    1.96    0.31
 -12  10   7    1.50    0.35
  10 -10  -7    1.10    0.37
 -10 -10   7    1.78    0.58
  10  10  -7    1.71    0.31
 -10  10   7    1.38    0.33
  -8 -10   7   -0.21    0.35
   8 -10  -7    0.40    0.36
  -8 -10   7   -0.13    0.47
   8  10  -7   -0.04    0.24
  -8  10   7    0.18    0.28
  -8  10   7   -0.18    0.26
  -6 -10   7   -0.21    0.41
   6 -10  -7    0.24    0.40
  -6 -10   7    0.08    0.35
   6  10  -7    0.74    0.22
  -6  10   7    0.25    0.25
  -6  10   7    0.28    0.27
   4 -10  -7    3.14    0.51
  -4 -10   7    2.82    0.44
  -4 -10   7    3.20    0.49
   4  10  -7    3.64    0.33
  -4  10   7    2.72    0.33
  -4  10   7    2.81    0.33
  -2 -10   7    3.41    0.45
  -2 -10   7    3.40    0.44
   2 -10  -7    2.87    0.49
  -2  10   7    3.05    0.34
  -2  10   7    3.07    0.34
   2  10  -7    3.59    0.33
   0 -10  -7    2.06    0.45
   0 -10   7    2.27    0.38
   0 -10   7    2.33    0.39
   0  10   7    2.46    0.31
   0  10  -7    2.73    0.31
  -2 -10  -7    1.31    0.43
   2 -10   7    1.41    0.34
   2 -10   7    1.13    0.34
   2  10   7    1.48    0.27
  -4 -10  -7    0.47    0.41
   4 -10   7    0.15    0.30
   4  10   7    0.18    0.24
   6 -10   7    1.84    0.37
  -6 -10  -7    2.10    0.49
  -6  10  -7    1.17    0.27
   6  10   7    1.79    0.32
  -8 -10  -7    4.42    0.61
   8 -10   7    3.04    0.46
   8  10   7    4.59    0.48
  -8  10  -7    4.03    0.43
  10 -10   7    0.47    0.32
 -10 -10  -7    1.15    0.49
 -10 -10  -7   -0.43    0.56
  10  10   7    0.06    0.33
  12 -10   7    1.07    0.34
 -12 -10  -7    0.76    0.57
  12  10   7    1.30    0.40
 -14 -10  -7   -0.69    0.56
  14  10   7    0.39    0.42
 -16 -10  -7   -1.06    0.61
  16  10   7   -0.31    0.45
 -18 -10  -7   -0.50    0.74
  18  10   7    1.12    0.60
 -19  11   7    0.06    0.36
  17 -11  -7    0.53    0.31
  17  11  -7    0.50    0.36
  15 -11  -7    0.44    0.26
 -15 -11   7    0.29    0.61
 -15  11   7   -0.14    0.36
  13 -11  -7    0.20    0.25
 -13 -11   7    0.07    0.59
 -13  11   7    0.00    0.32
  13  11  -7    0.19    0.30
 -11 -11   7   -0.16    0.55
  11 -11  -7   -0.07    0.34
  11  11  -7    0.21    0.28
 -11  11   7    0.14    0.30
  -9 -11   7    0.05    0.52
   9 -11  -7   -0.02    0.37
  -9  11   7    0.19    0.29
   9  11  -7    0.20    0.26
  -9  11   7   -0.03    0.27
  -7 -11   7    0.16    0.49
   7 -11  -7    0.66    0.41
  -7 -11   7   -0.06    0.38
  -7  11   7    0.16    0.25
   7  11  -7    0.27    0.25
  -7  11   7    0.11    0.28
  -5 -11   7    0.24    0.44
  -5 -11   7    0.84    0.40
   5 -11  -7    0.89    0.46
  -5  11   7    1.12    0.29
  -5  11   7    0.80    0.27
   5  11  -7    0.99    0.26
   3 -11  -7    1.21    0.46
  -3 -11   7    1.16    0.41
  -3 -11   7    0.95    0.40
   3  11  -7    0.90    0.25
  -3  11   7    0.98    0.26
  -3  11   7    1.09    0.29
  -1 -11   7    1.10    0.39
   1 -11  -7    1.46    0.47
  -1 -11   7    1.11    0.39
  -1  11   7    1.12    0.25
   1  11  -7    1.04    0.26
   1 -11   7    0.23    0.33
   1 -11   7    0.17    0.35
  -1 -11  -7    0.43    0.43
   1  11   7    0.19    0.25
  -3 -11  -7    0.00    0.44
   3 -11   7    0.00    0.30
   3 -11   7    0.09    0.33
   3  11   7    0.17    0.25
   5 -11   7   -0.20    0.32
  -5 -11  -7    0.19    0.49
  -5  11  -7    0.40    0.33
   5  11   7    0.29    0.26
   7 -11   7    2.35    0.45
  -7 -11  -7    3.38    0.62
   7  11   7    3.21    0.41
  -7  11  -7    2.83    0.51
  -9 -11  -7    0.70    0.53
   9 -11   7   -0.16    0.33
   9  11   7    0.09    0.31
  -9  11  -7    0.40    0.58
  11 -11   7    0.13    0.33
 -11 -11  -7    1.23    0.56
  11  11   7    0.48    0.35
  13 -11   7    0.12    0.32
  13  11   7   -0.10    0.38
  15  11   7   -0.01    0.47
  16 -12  -7    0.36    0.28
  16  12  -7   -0.07    0.35
 -16  12   7   -0.43    0.36
  14 -12  -7    0.46    0.28
 -14 -12   7    0.11    0.67
  14  12  -7   -0.17    0.33
 -14  12   7   -0.34    0.33
  12 -12  -7    0.38    0.24
 -12 -12   7   -0.17    0.61
 -12  12   7    0.27    0.31
 -10 -12   7   -0.09    0.57
  10 -12  -7   -0.41    0.37
 -10  12   7    0.14    0.29
  10  12  -7    0.30    0.29
  -8 -12   7    0.19    0.53
  -8 -12   7    0.11    0.46
   8 -12  -7    0.50    0.42
  -8  12   7    0.38    0.28
  -8  12   7    0.83    0.31
   8  12  -7    0.32    0.29
  -6 -12   7   -0.32    0.46
   6 -12  -7   -0.41    0.43
  -6 -12   7   -0.06    0.39
   6  12  -7    0.36    0.25
  -6  12   7    0.19    0.28
  -6  12   7    0.15    0.26
  -4 -12   7   -0.25    0.39
   4 -12  -7   -0.09    0.48
  -4 -12   7    0.26    0.42
  -4  12   7    0.22    0.29
  -4  12   7    0.01    0.25
   4  12  -7   -0.05    0.24
   2 -12  -7    1.30    0.51
  -2 -12   7    1.25    0.43
  -2  12   7    1.33    0.27
   2  12  -7    1.23    0.28
   0 -12   7   -0.12    0.39
   0 -12  -7    0.48    0.48
   0 -12   7    0.47    0.37
   0  12   7    0.00    0.23
   2 -12   7    0.24    0.34
  -2 -12  -7    0.39    0.52
   2 -12   7    0.58    0.39
   2  12   7    0.23    0.28
   4 -12   7    0.03    0.36
  -4 -12  -7    0.39    0.54
   4  12   7    0.31    0.27
  -6 -12  -7    0.98    0.58
   6 -12   7   -0.01    0.37
   6  12   7    0.35    0.29
   8 -12   7   -0.24    0.36
  -8 -12  -7    0.83    0.57
   8  12   7   -0.01    0.30
  10 -12   7    0.07    0.35
 -10 -12  -7    0.22    0.58
  10  12   7   -0.06    0.33
  12 -12   7   -0.20    0.34
  15 -13  -7    0.64    0.28
 -15  13   7   -0.53    0.35
  15  13  -7    0.64    0.38
 -13 -13   7    0.27    0.67
  13 -13  -7    0.51    0.27
  13  13  -7    0.72    0.36
 -13  13   7    0.08    0.33
  11 -13  -7    0.30    0.24
  11 -13  -7   -0.66    0.42
 -11 -13   7    0.34    0.64
  11  13  -7    0.24    0.31
 -11  13   7    0.39    0.31
  -9 -13   7   -0.51    0.57
   9 -13  -7   -0.37    0.40
  -9  13   7   -0.11    0.27
  -9  13   7   -0.23    0.29
   9  13  -7    0.07    0.28
   7 -13  -7   -0.48    0.44
  -7 -13   7    0.13    0.55
  -7 -13   7   -0.06    0.43
   7  13  -7    0.21    0.28
  -7  13   7    0.16    0.30
  -7  13   7   -0.06    0.26
  -5 -13   7    0.35    0.48
  -5 -13   7    0.42    0.42
   5 -13  -7    0.56    0.51
  -5  13   7    0.63    0.30
  -5  13   7    0.29    0.27
  -3 -13   7   -0.11    0.41
  -3 -13   7   -0.12    0.44
   3 -13  -7    0.10    0.53
  -3  13   7    0.07    0.26
   3  13  -7    0.07    0.25
   1 -13  -7    0.96    0.59
  -1 -13   7    0.51    0.41
  -1 -13   7    0.38    0.46
  -1  13   7    0.74    0.25
  -1  13   7    0.14    0.32
   1 -13   7    0.75    0.59
   1 -13   7    0.08    0.42
  -1 -13  -7    0.27    0.57
  -1  13  -7    0.47    0.28
   1  13   7    0.00    0.25
   3 -13   7    0.31    0.41
  -3 -13  -7    0.76    0.58
   3  13   7    0.46    0.32
  -3  13  -7   -0.33    0.28
   5 -13   7    0.77    0.43
  -5 -13  -7    1.29    0.66
   7 -13   7   -0.21    0.40
  -7 -13  -7    1.12    0.63
  -9 -13  -7    0.85    0.65
   9 -13   7    0.24    0.38
  11 -13   7   -0.26    0.37
  13 -13   7   -0.14    0.38
 -16  14   7   -0.23    0.36
  14  14  -7    0.74    0.39
 -12 -14   7   -0.64    0.69
 -12  14   7    0.00    0.34
  12  14  -7    0.02    0.33
 -10 -14   7    0.14    0.69
  10 -14  -7   -0.50    0.42
 -10  14   7    0.13    0.30
  10  14  -7    0.22    0.33
  -8 -14   7   -0.17    0.50
  -8 -14   7    0.48    0.60
   8 -14  -7   -0.82    0.47
   8  14  -7    0.28    0.29
  -8  14   7   -0.09    0.33
  -8  14   7    0.35    0.38
   6 -14  -7   -0.03    0.52
  -6 -14   7    0.56    0.56
  -6 -14   7   -0.38    0.46
  -6  14   7    0.36    0.30
   6  14  -7    0.24    0.27
  -4 -14   7   -0.61    0.42
   4 -14  -7   -0.82    0.51
  -4  14   7    0.01    0.32
   4  14  -7    0.18    0.26
  -2 -14   7   -0.25    0.44
   2 -14  -7    0.56    0.58
   2  14  -7    0.19    0.27
   0 -14   7    0.12    0.47
   0 -14  -7    0.59    0.63
  -2 -14  -7    1.35    0.67
   2 -14   7    0.38    0.47
  -4 -14  -7    0.71    0.66
   4 -14   7   -0.28    0.42
  -6 -14  -7    0.47    0.66
   6 -14   7   -0.40    0.43
  -8 -14  -7    0.15    0.73
   8 -14   7   -0.39    0.43
  10 -14   7   -0.06    0.38
 -10 -14  -7    0.11    0.74
  12 -14   7    0.30    0.42
 -15  15   7   -0.33    0.37
  13  15  -7    0.04    0.39
 -13  15   7   -0.05    0.34
 -11  15   7    0.18    0.31
   9 -15  -7   -0.51    0.48
  -9  15   7    0.31    0.34
   7 -15  -7   -0.80    0.49
  -7 -15   7   -0.24    0.50
  -7  15   7    0.02    0.34
   7  15  -7    0.75    0.31
  -5 -15   7   -0.22    0.49
   5 -15  -7   -0.16    0.56
  -5  15   7    0.33    0.33
   5  15  -7    0.36    0.30
  -3 -15   7    0.48    0.52
   3 -15  -7   -0.22    0.61
   3  15  -7    0.54    0.29
  -3  15   7    0.04    0.36
   1 -15  -7   -0.44    0.57
  -1 -15   7   -0.11    0.49
   1  15  -7    0.04    0.29
   1 -15   7    0.10    0.49
  -1 -15  -7    1.00    0.68
  -1  15  -7    0.37    0.31
  -3 -15  -7    0.99    0.75
   3 -15   7    0.57    0.49
  -5 -15  -7    1.01    0.75
   5 -15   7    0.95    0.50
  -7 -15  -7    0.31    0.76
   7 -15   7   -0.35    0.47
   9 -15   7   -0.61    0.43
  -9 -15  -7    0.27    0.84
  12  16  -7    0.24    0.38
 -12  16   7   -0.34    0.32
  10  16  -7    0.28    0.36
 -10  16   7   -0.18    0.32
   8 -16  -7   -0.68    0.55
  -8  16   7    0.29    0.36
   8  16  -7    0.54    0.33
   6 -16  -7   -1.17    0.56
  -6 -16   7   -0.22    0.53
   6  16  -7    0.31    0.33
  -6  16   7   -0.14    0.35
   4 -16  -7   -0.42    0.63
  -4 -16   7   -0.49    0.52
   4  16  -7    0.43    0.31
   2 -16  -7    0.38    0.67
  -2 -16   7    0.08    0.53
   2  16  -7    0.27    0.30
  -2  16   7    0.14    0.38
   0 -16   7   -0.04    0.55
   0 -16  -7   -0.71    0.66
   0  16  -7    0.51    0.32
   2 -16   7   -0.20    0.51
  -2 -16  -7   -0.04    0.71
  -4 -16  -7    0.30    0.71
   4 -16   7    0.10    0.51
   6 -16   7   -0.07    0.65
  -6 -16  -7    0.58    0.85
  -8 -16  -7   -0.26    0.94
  11  17  -7    0.39    0.39
 -11  17   7   -0.07    0.40
   9  17  -7    0.00    0.35
  -7  17   7    0.43    0.39
   7  17  -7    0.41    0.36
   5  17  -7    0.42    0.33
  -5  17   7    0.09    0.35
   3  17  -7    0.28    0.33
  -3  17   7   -0.17    0.37
  -1  17   7    0.57    0.41
   1  17  -7    0.38    0.34
  -3  17  -7   -0.62    0.31
  -5  17  -7    0.38    0.34
  -8  18   7   -0.02    0.43
   6  18  -7    0.50    0.37
  -6  18   7   -0.12    0.40
  -4  18   7   -0.12    0.44
   4  18  -7    0.15    0.34
  -2  18   7   -0.21    0.38
   2  18  -7    0.12    0.34
   0  18  -7    0.56    0.35
  -4  18  -7   -0.31    0.34
 -22   0   8    0.24    0.71
  22   0  -8    1.65    0.53
 -20   0   8   -0.02    0.60
  20   0  -8    1.40    0.42
  18   0  -8    2.01    0.40
 -18   0   8    0.34    0.51
  16   0  -8    3.00    0.39
 -16   0   8    2.41    0.54
 -14   0   8    0.71    0.42
  14   0  -8    0.88    0.26
 -14   0   8    0.56    0.27
 -12   0   8    5.47    0.46
  12   0  -8    6.10    0.45
 -12   0   8    4.92    0.59
  10   0  -8    6.63    0.47
 -10   0   8    6.73    0.48
 -10   0   8    6.44    0.60
  -8   0   8   15.90    0.94
  -8   0   8   16.14    1.02
  -6   0   8   40.69    2.23
  -6   0   8   39.08    2.19
  -6   0   8   38.68    2.20
  -4   0   8  107.98    6.58
  -4   0   8  122.58    6.56
  -4   0   8  128.68    6.56
  -2   0   8   58.35    3.22
  -2   0   8   65.01    3.21
  -2   0   8   51.27    3.20
   0   0   8   10.43    0.63
   0   0   8   10.43    0.65
   0   0   8    9.98    0.61
   2   0   8    9.96    0.60
   2   0   8    9.43    0.62
  -2   0  -8   10.75    0.67
   4   0   8   48.17    2.71
  -4   0  -8   50.28    2.76
   4   0   8   48.06    2.72
  -6   0  -8   60.99    3.42
   6   0   8   60.45    3.36
   6   0   8   60.14    3.36
  -8   0  -8    6.70    0.73
   8   0   8    9.23    0.60
   8   0   8    9.55    0.61
  10   0   8   17.22    1.02
 -10   0  -8   14.47    1.13
  10   0   8   17.13    1.00
  12   0   8    0.85    0.24
 -12   0  -8    1.31    0.46
  12   0   8    0.90    0.29
 -14   0  -8    0.48    0.53
  14   0   8    0.09    0.32
 -16   0  -8    4.99    0.81
  16   0   8    5.40    0.59
 -18   0  -8    0.09    0.64
  18   0   8    0.47    0.44
 -20   0  -8    0.54    0.73
  20   0   8   -0.24    0.48
 -21  -1   8    0.48    0.69
  21  -1  -8    1.22    0.46
  21   1  -8    0.80    0.46
 -21   1   8    0.21    0.63
 -19  -1   8    0.41    0.54
  19  -1  -8    0.95    0.37
 -19   1   8    0.37    0.54
  19   1  -8    1.17    0.40
  17  -1  -8    2.62    0.38
 -17  -1   8    1.72    0.35
 -17  -1   8    1.60    0.56
  17   1  -8    2.23    0.39
 -17   1   8    1.10    0.49
 -15  -1   8    2.15    0.35
 -15  -1   8    1.40    0.49
  15  -1  -8    2.66    0.33
 -15   1   8    1.67    0.48
 -15   1   8    2.34    0.34
  15   1  -8    2.57    0.35
 -13  -1   8    2.41    0.31
  13  -1  -8    2.67    0.29
 -13  -1   8    2.19    0.47
 -13   1   8    2.32    0.44
  13   1  -8    2.44    0.30
 -13   1   8    2.03    0.32
 -11  -1   8    4.50    0.40
 -11  -1   8    3.77    0.54
  11  -1  -8    4.06    0.37
 -11   1   8    4.02    0.50
 -11   1   8    4.62    0.40
  11   1  -8    4.84    0.38
   9  -1  -8    2.06    0.23
  -9  -1   8    2.45    0.27
  -9  -1   8    2.99    0.40
   9   1  -8    2.19    0.27
  -9   1   8    2.92    0.27
  -7  -1   8   13.57    0.89
  -7  -1   8   13.35    0.80
  -7   1   8   13.15    0.80
  -7   1   8   13.91    0.82
  -5  -1   8   46.27    2.52
  -5  -1   8   43.43    2.47
  -5   1   8   44.55    2.49
  -5   1   8   45.51    2.50
  -5   1   8   44.49    2.48
  -3  -1   8   46.47    2.71
  -3  -1   8   49.97    2.75
  -3   1   8   49.40    2.72
  -3   1   8   51.06    2.73
  -1  -1   8    7.07    0.44
  -1  -1   8    7.52    0.47
  -1  -1   8    7.20    0.50
  -1   1   8    7.51    0.48
  -1   1   8    7.01    0.46
  -1   1   8    7.33    0.47
   1  -1   8   12.07    0.72
   1  -1   8   11.81    0.70
   1  -1   8   10.53    0.67
   1   1   8   11.39    0.70
   1   1   8   12.19    0.69
   3  -1   8   16.51    0.98
  -3  -1  -8   16.88    1.02
   3   1   8   16.57    0.97
   3   1   8   16.51    0.97
  -3   1  -8   16.81    1.02
   5  -1   8   20.57    1.22
  -5  -1  -8   21.29    1.30
   5  -1   8   21.13    1.21
  -5   1  -8   21.71    1.30
   5   1   8   21.16    1.22
   5   1   8   20.46    1.22
   7  -1   8   11.33    0.71
   7  -1   8   11.84    0.71
  -7  -1  -8    9.91    0.85
  -7   1  -8    9.51    0.83
   7   1   8   11.80    0.72
   7   1   8   12.08    0.73
  -9  -1  -8   10.24    0.88
   9  -1   8   11.19    0.72
   9  -1   8   11.59    0.73
  -9   1  -8   10.37    0.85
   9   1   8   11.34    0.72
   9   1   8   11.26    0.74
  11  -1   8    4.46    0.43
  11  -1   8    4.42    0.46
 -11  -1  -8    4.47    0.61
  11   1   8    3.97    0.48
 -11   1  -8    4.52    0.64
  11   1   8    3.83    0.42
  13  -1   8    0.03    0.28
  13  -1   8    0.29    0.24
 -13  -1  -8    1.18    0.54
 -13   1  -8    0.58    0.46
  13   1   8    0.33    0.24
  13   1   8    0.46    0.31
  15  -1   8    5.29    0.56
 -15  -1  -8    4.29    0.77
  15   1   8    5.12    0.56
 -15   1  -8    4.54    0.73
 -17  -1  -8    1.71    0.70
  17  -1   8    2.15    0.47
  17   1   8    2.11    0.47
 -17   1  -8    2.41    0.69
  19  -1   8   -0.51    0.44
 -19  -1  -8    0.00    0.68
  19   1   8   -0.75    0.43
 -19   1  -8    0.54    0.68
 -21   1  -8    0.81    0.96
 -22  -2   8    0.04    0.75
  22   2  -8    0.47    0.49
  20  -2  -8    0.74    0.40
 -20  -2   8    0.19    0.65
 -20   2   8   -0.16    0.52
  20   2  -8    0.83    0.43
  18  -2  -8    1.64    0.35
 -18  -2   8    0.69    0.55
 -18   2   8    0.04    0.47
  18   2  -8    1.55    0.41
 -18   2   8    0.86    0.32
  16  -2  -8    1.18    0.30
 -16  -2   8    0.38    0.49
 -16  -2   8    1.24    0.33
  16   2  -8    1.67    0.34
 -16   2   8    0.46    0.43
 -16   2   8    1.05    0.32
  14  -2  -8    1.55    0.27
 -14  -2   8    1.75    0.49
 -14  -2   8    1.78    0.32
 -14   2   8    1.02    0.38
  14   2  -8    2.00    0.30
 -14   2   8    1.88    0.31
  12  -2  -8    2.06    0.26
 -12  -2   8    2.10    0.30
 -12  -2   8    1.99    0.44
  12   2  -8    2.09    0.26
 -12   2   8    2.10    0.30
 -10  -2   8    2.57    0.41
  10  -2  -8    2.35    0.24
 -10  -2   8    2.34    0.28
  10   2  -8    2.22    0.27
 -10   2   8    2.91    0.28
 -10   2   8    2.19    0.35
  -8  -2   8    9.22    0.73
  -8  -2   8    9.80    0.61
   8   2  -8    9.33    0.59
  -8   2   8    9.85    0.67
  -8   2   8   10.06    0.64
  -8   2   8    9.69    0.61
  -6  -2   8   14.42    0.85
  -6  -2   8   14.71    0.94
  -6   2   8   14.22    0.84
  -6   2   8   13.64    0.87
  -6   2   8   15.26    0.87
  -4  -2   8    6.06    0.40
  -4  -2   8    5.84    0.43
  -4  -2   8    6.99    0.52
  -4   2   8    6.44    0.44
  -4   2   8    6.85    0.43
  -2  -2   8    2.28    0.26
  -2  -2   8    2.56    0.32
  -2   2   8    2.51    0.25
  -2   2   8    2.47    0.25
   0  -2   8   14.12    0.84
   0  -2   8   14.02    0.81
   0  -2   8   14.67    0.87
   0   2   8   14.37    0.84
   0   2   8   14.22    0.83
   2  -2   8   10.72    0.71
  -2  -2  -8   11.63    0.72
   2  -2   8   10.99    0.68
   2  -2   8   11.09    0.65
   2   2   8   10.85    0.68
   2   2   8   11.11    0.67
  -4  -2  -8   12.34    0.80
   4  -2   8   11.00    0.72
   4   2   8   10.41    0.70
   4   2   8   10.83    0.70
  -4   2  -8   12.41    0.78
  -6  -2  -8   10.39    0.84
   6  -2   8   11.60    0.72
   6  -2   8   11.55    0.70
   6   2   8   11.50    0.73
  -6   2  -8   10.37    0.81
   6   2   8   11.74    0.72
   8  -2   8    3.41    0.36
  -8  -2  -8    2.41    0.48
   8  -2   8    3.18    0.35
   8   2   8    3.28    0.38
  -8   2  -8    2.62    0.43
   8   2   8    3.59    0.36
 -10  -2  -8    5.11    0.64
  10  -2   8    5.08    0.44
  10  -2   8    5.08    0.46
  10   2   8    4.86    0.48
  10   2   8    5.13    0.45
 -10   2  -8    4.49    0.61
  12  -2   8    1.90    0.33
 -12  -2  -8    1.48    0.56
  12  -2   8    2.72    0.32
  12   2   8    2.60    0.32
 -12   2  -8    1.85    0.52
  12   2   8    2.18    0.36
  14  -2   8   10.54    0.78
 -14  -2  -8    8.66    1.04
  14   2   8   10.48    0.81
 -14   2  -8    9.35    0.94
 -16  -2  -8    3.43    0.77
  16  -2   8    5.29    0.57
 -16   2  -8    4.39    0.74
  16   2   8    5.81    0.60
  18  -2   8    0.38    0.44
 -18  -2  -8    0.21    0.67
 -18   2  -8    1.52    0.66
  18   2   8    0.54    0.44
 -20  -2  -8    0.13    0.73
  20  -2   8   -0.02    0.48
 -20   2  -8    0.82    0.71
  20   2   8   -0.19    0.48
  21  -3  -8    0.54    0.38
 -21  -3   8   -0.59    0.62
  21   3  -8    0.28    0.46
 -19  -3   8   -0.06    0.55
  19  -3  -8    0.62    0.34
  19   3  -8    0.43    0.40
 -19   3   8    0.70    0.33
  17  -3  -8    0.62    0.30
 -17  -3   8   -0.05    0.49
 -17   3   8    0.21    0.31
  17   3  -8    0.80    0.35
  15  -3  -8    0.24    0.24
 -15  -3   8    0.18    0.47
  15   3  -8    0.09    0.28
 -15   3   8   -0.38    0.33
 -15   3   8   -0.29    0.29
 -13  -3   8    4.91    0.47
  13  -3  -8    5.14    0.44
 -13  -3   8    4.51    0.59
 -13   3   8    5.32    0.45
 -13   3   8    4.29    0.54
  13   3  -8    5.38    0.46
 -11  -3   8    1.24    0.40
  11  -3  -8    1.43    0.21
  11   3  -8    1.14    0.21
 -11   3   8    1.20    0.32
 -11   3   8    1.24    0.26
  -9  -3   8    2.06    0.26
  -9  -3   8    1.74    0.38
  -9   3   8    2.30    0.26
  -9   3   8    2.22    0.29
   9   3  -8    1.82    0.21
  -9   3   8    1.66    0.29
  -7  -3   8    6.66    0.44
  -7  -3   8    6.04    0.57
   7   3  -8    5.61    0.40
  -7   3   8    6.07    0.46
  -7   3   8    6.24    0.46
  -7   3   8    6.00    0.44
  -5  -3   8    7.08    0.48
   5  -3  -8    6.61    0.53
  -5  -3   8    7.61    0.50
  -5  -3   8    7.38    0.60
  -5   3   8    7.59    0.51
  -3  -3   8    1.30    0.26
  -3  -3   8    0.79    0.17
  -3   3   8    1.22    0.19
  -1  -3   8    9.48    0.64
  -1  -3   8   10.09    0.62
  -1   3   8    9.21    0.59
  -1   3   8    9.77    0.61
   1  -3   8   17.63    1.03
   1  -3   8   17.48    1.05
   1   3   8   17.23    1.02
   1   3   8   17.89    1.03
  -3  -3  -8    6.06    0.50
   3  -3   8    5.36    0.36
   3  -3   8    5.29    0.44
   3   3   8    5.17    0.41
   3   3   8    5.01    0.42
   5  -3   8    7.29    0.52
  -5  -3  -8   10.01    0.70
   5  -3   8    7.81    0.58
   5   3   8    7.88    0.57
  -5   3  -8    9.32    0.68
   5   3   8    7.72    0.57
   7  -3   8    8.01    0.56
  -7  -3  -8    6.51    0.71
   7  -3   8    8.27    0.53
   7   3   8    7.85    0.57
   7   3   8    8.20    0.56
  -7   3  -8    7.07    0.66
  -9  -3  -8    7.04    0.76
   9  -3   8    7.65    0.54
   9  -3   8    7.35    0.55
   9   3   8    7.28    0.57
   9   3   8    7.37    0.55
  -9   3  -8    7.20    0.68
  11  -3   8    3.94    0.45
 -11  -3  -8    4.85    0.66
  11  -3   8    3.96    0.42
  11   3   8    3.73    0.42
 -11   3  -8    4.54    0.58
  11   3   8    3.94    0.43
  13  -3   8    7.38    0.64
 -13  -3  -8    6.16    0.92
  13  -3   8    7.79    0.60
 -13   3  -8    7.42    0.85
  13   3   8    7.63    0.83
  13   3   8    8.15    0.68
 -15  -3  -8    2.14    0.68
  15  -3   8    1.92    0.40
 -15   3  -8    1.66    0.56
  15   3   8    1.38    0.42
  17  -3   8    1.48    0.43
 -17  -3  -8    0.81    0.69
  17   3   8    0.88    0.44
 -17   3  -8    1.11    0.61
  19  -3   8    0.57    0.46
 -19  -3  -8    0.70    0.74
  19   3   8    0.42    0.46
 -19   3  -8    1.45    0.69
 -20  -4   8    0.26    0.62
  20  -4  -8    1.20    0.39
  20   4  -8    0.62    0.45
 -18  -4   8   -0.54    0.51
  18  -4  -8    0.74    0.32
  18   4  -8    0.73    0.39
 -18   4   8    0.45    0.32
  16  -4  -8    0.22    0.26
 -16  -4   8    0.76    0.33
 -16  -4   8    0.12    0.48
  16   4  -8    0.30    0.32
 -16   4   8    0.48    0.30
 -14  -4   8    0.55    0.30
 -14  -4   8    0.00    0.43
  14  -4  -8    0.91    0.23
  14   4  -8    0.66    0.27
 -14   4   8    0.25    0.48
 -14   4   8    0.61    0.29
 -12  -4   8    0.31    0.39
  12  -4  -8    0.40    0.18
 -12  -4   8    0.37    0.26
 -12   4   8    0.72    0.31
 -12   4   8    0.76    0.27
  12   4  -8    0.50    0.21
 -10  -4   8    0.90    0.37
 -10  -4   8    1.05    0.24
 -10   4   8    0.96    0.25
  10   4  -8    0.90    0.19
 -10   4   8    0.79    0.28
  -8  -4   8    7.41    0.50
  -8  -4   8    6.84    0.64
  -8   4   8    7.37    0.52
  -8   4   8    7.55    0.50
   8   4  -8    6.71    0.46
   6  -4  -8    2.40    0.30
  -6  -4   8    2.23    0.27
  -6  -4   8    2.31    0.38
  -6   4   8    2.34    0.27
  -6   4   8    2.55    0.26
   4  -4  -8    4.48    0.46
  -4  -4   8    4.88    0.50
  -4   4   8    4.86    0.40
  -2  -4   8   13.47    0.87
  -2  -4   8   13.76    0.84
   2  -4  -8   12.93    0.88
  -2   4   8   14.49    0.82
   0  -4   8    3.07    0.37
   0  -4   8    2.89    0.34
   0   4   8    3.17    0.31
   2  -4   8    2.40    0.28
   2  -4   8    1.97    0.31
   2   4   8    2.09    0.26
   2   4   8    2.58    0.31
   4  -4   8    1.55    0.18
   4  -4   8    1.60    0.26
  -4  -4  -8    1.51    0.35
   4   4   8    1.40    0.24
   4   4   8    1.77    0.25
   6  -4   8   16.55    1.02
   6  -4   8   16.91    0.97
  -6  -4  -8   16.27    1.10
  -6   4  -8   16.38    1.09
   6   4   8   16.46    1.01
   6   4   8   17.39    1.02
   8  -4   8    3.50    0.36
  -8  -4  -8    4.36    0.64
   8  -4   8    4.63    0.43
   8   4   8    5.22    0.45
  -8   4  -8    4.69    0.56
   8   4   8    4.86    0.43
  10  -4   8    0.15    0.21
  10  -4   8    0.20    0.20
 -10  -4  -8    0.31    0.48
 -10   4  -8    0.57    0.37
  10   4   8    0.51    0.24
  10   4   8    0.19    0.26
 -12  -4  -8    2.34    0.63
  12  -4   8    1.94    0.32
  12  -4   8    2.05    0.32
  12   4   8    2.23    0.38
 -12   4  -8    2.10    0.51
  14  -4   8    2.33    0.40
 -14  -4  -8    2.38    0.69
 -14   4  -8    3.37    0.65
  14   4   8    3.25    0.47
 -16  -4  -8    1.96    0.72
  16  -4   8    2.09    0.42
  16   4   8    1.92    0.48
 -16   4  -8    2.03    0.62
 -18  -4  -8    0.49    0.71
  18  -4   8    0.63    0.43
 -18   4  -8    1.40    0.64
  18   4   8    0.56    0.47
  20  -4   8   -0.03    0.50
 -20  -4  -8    0.39    0.76
  20   4   8    0.21    0.52
 -20   4  -8    1.51    0.74
  19  -5  -8    0.09    0.32
 -19  -5   8    0.41    0.57
 -17  -5   8    0.83    0.36
 -17  -5   8   -0.02    0.49
  17  -5  -8    0.83    0.30
  17   5  -8    0.73    0.36
 -17   5   8    1.43    0.33
  15  -5  -8    0.42    0.25
 -15  -5   8   -0.20    0.44
 -15  -5   8   -0.28    0.32
 -15   5   8    0.13    0.31
  15   5  -8    0.15    0.27
  13  -5  -8    0.36    0.21
 -13  -5   8   -0.21    0.29
 -13  -5   8   -0.08    0.42
  13   5  -8    0.33    0.23
 -13   5   8    0.26    0.28
 -11  -5   8    0.05    0.25
 -11  -5   8    0.23    0.37
 -11   5   8    0.20    0.26
  11   5  -8    0.06    0.19
  -9  -5   8    1.13    0.38
  -9  -5   8    1.37    0.26
  -9   5   8    1.30    0.28
   9   5  -8    1.57    0.19
  -9   5   8    1.56    0.27
  -7  -5   8    1.02    0.35
  -7  -5   8    1.53    0.24
  -7  -5   8    1.36    0.23
   7  -5  -8    1.35    0.28
  -7   5   8    1.02    0.23
  -7   5   8    1.15    0.25
  -5  -5   8    0.51    0.22
  -5  -5   8    0.46    0.22
  -5  -5   8    0.76    0.31
   5  -5  -8    0.58    0.26
  -5   5   8    0.54    0.21
   3  -5  -8    3.96    0.42
  -3  -5   8    3.99    0.47
  -3  -5   8    3.62    0.40
  -3   5   8    4.19    0.38
   1  -5  -8    1.07    0.30
  -1  -5   8    1.03    0.28
  -1  -5   8    1.19    0.25
  -1   5   8    1.28    0.23
  -1  -5  -8    0.22    0.27
   1  -5   8    0.54    0.26
   1  -5   8    0.54    0.22
   1   5   8    0.63    0.21
  -3  -5  -8    8.46    0.69
   3  -5   8    8.76    0.62
   3  -5   8    8.44    0.65
   3   5   8    9.95    0.61
   5  -5   8    2.21    0.29
  -5  -5  -8    1.31    0.38
   5  -5   8    1.95    0.20
   5   5   8    1.69    0.27
  -5   5  -8    1.74    0.35
   7  -5   8    4.96    0.46
  -7  -5  -8    4.05    0.60
   7  -5   8    4.94    0.37
   7   5   8    4.97    0.46
  -7   5  -8    4.31    0.55
  -9  -5  -8    6.02    0.74
   9  -5   8    6.57    0.54
  -9  -5  -8    6.05    0.57
  -9   5  -8    6.19    0.65
   9   5   8    6.94    0.55
 -11  -5  -8    3.52    0.46
 -11  -5  -8    2.75    0.64
  11  -5   8    4.00    0.43
  11  -5   8    3.89    0.43
 -11   5  -8    3.00    0.53
  11   5   8    3.96    0.44
 -13  -5  -8    0.60    0.59
  13  -5   8    0.45    0.27
  13  -5   8   -0.02    0.27
  13   5   8    0.17    0.37
 -13   5  -8    0.79    0.49
  15  -5   8    1.46    0.37
 -15  -5  -8    0.96    0.67
 -15   5  -8    2.35    0.58
  15   5   8    1.24    0.45
  17  -5   8    0.50    0.39
 -17  -5  -8    0.25    0.67
  17   5   8    0.40    0.44
 -17   5  -8    1.77    0.62
 -19  -5  -8    0.96    0.75
  19  -5   8    0.41    0.46
 -19   5  -8    1.50    0.67
  19   5   8    0.36    0.51
 -22   6   8    1.06    0.45
 -20  -6   8    0.02    0.63
  20  -6  -8    0.67    0.36
 -20   6   8   -0.29    0.37
 -18  -6   8    0.54    0.36
 -18  -6   8   -0.70    0.54
  18  -6  -8    1.08    0.33
  16  -6  -8    0.65    0.28
 -16  -6   8    0.28    0.50
 -16   6   8    0.18    0.33
  14  -6  -8    0.42    0.24
 -14  -6   8   -0.11    0.44
 -14  -6   8    0.04    0.31
 -14   6   8    0.33    0.31
  12  -6  -8    0.17    0.19
 -12  -6   8    0.28    0.42
 -12  -6   8    0.12    0.27
 -12   6   8   -0.01    0.28
 -10  -6   8    0.39    0.26
 -10  -6   8    0.25    0.38
 -10   6   8   -0.02    0.26
  10   6  -8    0.14    0.23
 -10   6   8   -0.07    0.26
   8  -6  -8    1.30    0.31
  -8  -6   8    1.05    0.39
  -8  -6   8    1.44    0.27
  -8  -6   8    1.50    0.25
  -8   6   8    1.56    0.26
  -8   6   8    1.22    0.26
  -6  -6   8    0.72    0.34
   6  -6  -8    0.57    0.27
  -6  -6   8    0.76    0.24
  -6   6   8    0.71    0.22
  -6   6   8    0.55    0.23
  -4  -6   8    0.73    0.32
  -4  -6   8    0.88    0.25
   4  -6  -8    0.49    0.28
  -4   6   8    0.60    0.21
   2  -6  -8    0.81    0.30
  -2  -6   8    1.24    0.26
  -2  -6   8    1.00    0.30
  -2   6   8    1.05    0.24
   0  -6   8   10.50    0.70
   0  -6   8   10.36    0.73
   0  -6  -8    9.73    0.76
   0   6   8   10.73    0.67
   2  -6   8    1.04    0.25
   2  -6   8    1.02    0.28
  -2  -6  -8    1.01    0.31
   2   6   8    1.05    0.23
  -4  -6  -8    0.65    0.32
   4  -6   8    0.81    0.24
  -4  -6  -8    0.60    0.31
   4   6   8    1.04    0.24
  -6  -6  -8   -0.21    0.28
   6  -6   8    0.03    0.13
   6  -6   8   -0.23    0.21
  -6  -6  -8    0.18    0.36
   6   6   8    0.21    0.23
  -6   6  -8    0.12    0.30
   8  -6   8    0.89    0.27
   8  -6   8    0.46    0.18
  -8  -6  -8    0.86    0.33
  -8  -6  -8    0.90    0.45
   8   6   8    0.96    0.28
  -8   6  -8    0.50    0.35
 -10  -6  -8    3.30    0.62
  10  -6   8    3.45    0.45
  10   6   8    3.58    0.41
 -10   6  -8    3.53    0.52
  12  -6   8    0.19    0.26
  12  -6   8    0.31    0.25
 -12  -6  -8   -0.02    0.56
 -12  -6  -8    0.71    0.37
 -12   6  -8    1.24    0.47
  12   6   8    0.10    0.35
 -14  -6  -8   -0.11    0.60
  14  -6   8    0.30    0.30
  14   6   8    0.14    0.41
 -14   6  -8    1.46    0.54
  16  -6   8    0.14    0.35
 -16  -6  -8   -0.20    0.65
  16   6   8    0.78    0.47
 -16   6  -8    1.71    0.56
 -18  -6  -8   -0.29    0.70
  18  -6   8   -0.06    0.39
 -18   6  -8    1.09    0.58
  18   6   8    0.04    0.49
  20  -6   8   -0.51    0.50
 -20   6  -8    1.62    0.67
  19  -7  -8    0.89    0.34
 -19  -7   8   -0.65    0.57
 -17  -7   8    0.34    0.36
 -17  -7   8   -0.29    0.52
  17  -7  -8    0.44    0.29
  15  -7  -8    0.37    0.25
 -15  -7   8   -0.11    0.33
 -15  -7   8   -0.06    0.48
 -13  -7   8   -0.38    0.31
  13  -7  -8    0.10    0.21
 -13  -7   8   -0.05    0.45
 -13   7   8   -0.06    0.31
 -11  -7   8    0.58    0.30
 -11  -7   8   -0.09    0.43
 -11   7   8    0.08    0.29
   9  -7  -8    0.44    0.29
  -9  -7   8    0.22    0.40
  -9   7   8    0.51    0.26
  -9   7   8    0.18    0.26
   7  -7  -8    0.07    0.28
  -7  -7   8    0.24    0.35
  -7  -7   8    0.36    0.25
  -7   7   8    0.21    0.23
  -7   7   8    0.18    0.24
   5  -7  -8    1.59    0.34
  -5  -7   8    1.85    0.38
  -5  -7   8    1.52    0.29
   5   7  -8    1.97    0.23
  -5   7   8    1.78    0.28
  -5   7   8    2.29    0.26
  -3  -7   8    3.66    0.49
  -3  -7   8    3.23    0.40
   3  -7  -8    3.14    0.41
  -3   7   8    3.12    0.30
   3   7  -8    2.97    0.31
  -3   7   8    3.05    0.36
  -1  -7   8    2.40    0.35
  -1  -7   8    2.10    0.32
   1  -7  -8    2.16    0.37
  -1   7   8    2.17    0.28
   1  -7   8    0.97    0.29
  -1  -7  -8    0.67    0.30
   1  -7   8    1.08    0.27
   1   7   8    0.87    0.23
  -3  -7  -8    5.95    0.59
   3  -7   8    6.05    0.51
   3  -7   8    6.27    0.54
   3   7   8    6.00    0.48
  -5  -7  -8    0.57    0.33
  -5  -7  -8    0.44    0.32
   5  -7   8    1.01    0.27
   5   7   8    0.78    0.25
  -5   7  -8    0.56    0.31
   7  -7   8    1.11    0.28
   7  -7   8    1.23    0.19
  -7  -7  -8    0.59    0.39
  -7  -7  -8    1.19    0.37
   7   7   8    1.13    0.28
  -7   7  -8    0.97    0.38
  -9  -7  -8    0.65    0.46
   9  -7   8    0.75    0.28
   9  -7   8    1.15    0.22
  -9  -7  -8    1.34    0.39
  -9   7  -8    0.88    0.40
   9   7   8    1.00    0.32
 -11  -7  -8    1.50    0.56
 -11  -7  -8    1.30    0.39
  11  -7   8    1.22    0.32
  11  -7   8    1.27    0.26
 -11   7  -8    1.32    0.45
  11   7   8    1.39    0.38
  13  -7   8    1.21    0.33
  13  -7   8    1.44    0.31
 -13  -7  -8    0.94    0.60
  13   7   8    1.39    0.42
 -13   7  -8    1.72    0.51
  15  -7   8   -0.19    0.31
 -15  -7  -8   -0.28    0.64
  15   7   8   -0.07    0.41
 -15   7  -8    1.38    0.55
  17  -7   8   -0.04    0.36
 -17  -7  -8   -0.58    0.65
  17   7   8   -0.10    0.44
 -17   7  -8    1.76    0.55
  19  -7   8   -0.31    0.42
 -19  -7  -8    0.20    0.73
  19   7   8   -0.11    0.49
 -19   7  -8    1.06    0.61
 -22   8   8    0.01    0.41
 -20   8   8   -0.33    0.36
 -18  -8   8    0.12    0.56
  18  -8  -8    0.57    0.31
 -18   8   8    0.12    0.35
 -16  -8   8   -0.51    0.52
  16  -8  -8    0.48    0.27
 -16   8   8    0.77    0.35
  14  -8  -8    0.39    0.25
 -14  -8   8   -0.31    0.49
  12  -8  -8    0.35    0.22
 -12  -8   8    0.16    0.47
 -12   8   8   -0.06    0.32
 -10  -8   8    1.07    0.48
  10  -8  -8    0.96    0.33
 -10   8   8    0.72    0.30
 -10   8   8    1.34    0.31
  -8  -8   8    0.20    0.40
  -8  -8   8    0.61    0.29
   8  -8  -8    0.30    0.34
  -8   8   8    0.67    0.28
   8   8  -8    0.69    0.21
  -8   8   8    0.53    0.26
   6  -8  -8    0.06    0.33
  -6  -8   8    0.51    0.38
  -6  -8   8   -0.29    0.12
  -6   8   8    0.32    0.23
   6   8  -8    0.04    0.18
  -6   8   8    0.69    0.24
   4  -8  -8    3.15    0.45
  -4  -8   8    2.89    0.44
  -4  -8   8    3.32    0.43
   4   8  -8    3.30    0.32
  -4   8   8    3.09    0.37
  -4   8   8    3.81    0.33
  -2  -8   8    2.62    0.35
   2  -8  -8    2.08    0.39
  -2  -8   8    2.25    0.38
  -2   8   8    2.37    0.30
   2   8  -8    2.70    0.27
   0  -8   8    1.66    0.31
   0  -8   8    2.06    0.35
   0  -8  -8    1.86    0.37
   0   8   8    2.08    0.28
   2  -8   8    3.75    0.47
   2  -8   8    3.68    0.45
  -2  -8  -8    3.31    0.47
   2   8   8    4.07    0.38
  -4  -8  -8    4.64    0.59
   4  -8   8    5.46    0.54
   4  -8   8    5.46    0.51
   4   8   8    6.02    0.49
  -6  -8  -8    0.39    0.35
   6  -8   8    0.11    0.27
  -6  -8  -8    0.13    0.35
   6   8   8    0.07    0.26
  -6   8  -8    0.54    0.34
  -8  -8  -8    0.31    0.37
   8  -8   8    0.60    0.29
  -8  -8  -8    0.39    0.43
   8   8   8    0.41    0.30
  -8   8  -8    0.24    0.36
 -10  -8  -8    2.06    0.55
  10  -8   8    2.30    0.37
 -10  -8  -8    2.93    0.49
  10  -8   8    2.83    0.40
 -10   8  -8    3.20    0.53
  10   8   8    3.08    0.43
  12  -8   8    1.97    0.32
  12  -8   8    1.81    0.36
 -12  -8  -8    2.89    0.56
 -12  -8  -8    1.16    0.58
 -12   8  -8    1.91    0.49
  12   8   8    2.06    0.45
 -14  -8  -8   -0.03    0.59
  14  -8   8    0.64    0.34
  14   8   8    1.19    0.45
 -14   8  -8    2.10    0.55
  16  -8   8    0.73    0.37
 -16  -8  -8    0.43    0.68
 -16   8  -8    1.75    0.57
  16   8   8    0.66    0.47
  18  -8   8   -0.01    0.40
 -18  -8  -8   -0.74    0.68
 -18   8  -8    1.56    0.55
  18   8   8   -0.24    0.47
 -17  -9   8    0.46    0.61
  17  -9  -8    1.15    0.31
 -17   9   8    0.75    0.37
 -15  -9   8    0.33    0.57
  15  -9  -8    1.19    0.30
 -15   9   8    0.36    0.36
 -13  -9   8    0.29    0.54
  13  -9  -8    0.23    0.24
 -13   9   8    0.28    0.34
 -11  -9   8    0.16    0.51
 -11   9   8    0.43    0.32
  11   9  -8    0.59    0.26
   9  -9  -8    3.10    0.47
  -9  -9   8    3.73    0.60
  -9   9   8    4.74    0.41
  -9   9   8    3.30    0.40
   9   9  -8    3.41    0.35
  -7  -9   8    0.92    0.46
  -7  -9   8    0.78    0.30
   7  -9  -8    1.13    0.40
   7   9  -8    1.75    0.24
  -7   9   8    1.46    0.29
  -7   9   8    1.21    0.28
  -5  -9   8    4.55    0.62
   5  -9  -8    4.48    0.55
  -5  -9   8    5.26    0.53
   5   9  -8    4.64    0.40
  -5   9   8    4.46    0.43
  -5   9   8    4.21    0.45
   3  -9  -8    2.51    0.46
  -3  -9   8    2.50    0.38
  -3  -9   8    2.50    0.42
  -3   9   8    2.68    0.30
   3   9  -8    2.80    0.29
  -3   9   8    2.21    0.30
  -1  -9   8    1.71    0.33
  -1  -9   8    1.89    0.36
   1  -9  -8    1.59    0.39
  -1   9   8    1.63    0.28
   1  -9   8    4.25    0.50
   1  -9   8    3.55    0.47
  -1  -9  -8    4.66    0.58
   1   9   8    4.23    0.42
  -3  -9  -8    2.28    0.45
   3  -9   8    2.92    0.39
   3  -9   8    2.49    0.38
   3   9   8    2.90    0.33
   5  -9   8    7.02    0.60
  -5  -9  -8    6.03    0.71
   5   9   8    6.59    0.56
  -7  -9  -8    1.71    0.46
  -7  -9  -8    0.85    0.49
   7  -9   8    1.20    0.34
   7   9   8    0.99    0.31
  -7   9  -8    1.40    0.42
   9  -9   8    2.29    0.40
  -9  -9  -8    1.68    0.51
  -9  -9  -8    3.42    0.55
   9   9   8    2.92    0.43
  -9   9  -8    3.27    0.53
 -11  -9  -8    1.69    0.43
 -11  -9  -8    0.94    0.55
  11  -9   8    1.37    0.35
 -11   9  -8    1.28    0.48
  11   9   8    1.74    0.42
 -13  -9  -8   -0.42    0.56
  13  -9   8    0.51    0.32
 -13   9  -8    0.82    0.46
  13   9   8    0.62    0.42
 -15  -9  -8    0.56    0.67
  15   9   8    0.70    0.48
 -15   9  -8    1.54    0.52
 -17  -9  -8   -0.19    0.66
 -17   9  -8    1.44    0.58
  17   9   8    0.50    0.54
  18  10  -8    0.25    0.36
 -18  10   8    0.07    0.37
 -16 -10   8    0.64    0.63
  16 -10  -8    1.50    0.32
 -16  10   8    0.73    0.38
 -14 -10   8    0.25    0.57
  14 -10  -8    0.73    0.27
 -14  10   8   -0.11    0.35
  12 -10  -8    0.20    0.22
 -12 -10   8   -0.45    0.53
 -12  10   8   -0.35    0.30
  12  10  -8    0.25    0.27
  10 -10  -8    0.06    0.34
 -10 -10   8    0.48    0.53
 -10  10   8    0.08    0.32
  10  10  -8    0.46    0.25
 -10  10   8   -0.35    0.28
  -8 -10   8    3.07    0.44
   8 -10  -8    1.91    0.46
  -8 -10   8    2.74    0.59
  -8  10   8    2.94    0.37
  -8  10   8    2.30    0.35
   8  10  -8    1.76    0.29
  -6 -10   8    3.75    0.60
  -6 -10   8    3.97    0.49
   6 -10  -8    3.60    0.54
  -6  10   8    4.02    0.46
  -6  10   8    4.28    0.42
   6  10  -8    4.16    0.39
  -4 -10   8    4.17    0.55
   4 -10  -8    5.52    0.68
  -4 -10   8    4.02    0.55
   4  10  -8    5.03    0.41
  -4  10   8    4.21    0.46
  -2 -10   8    1.63    0.39
  -2 -10   8    1.32    0.37
   2 -10  -8    1.69    0.45
  -2  10   8    1.40    0.29
  -2  10   8    1.62    0.28
   2  10  -8    2.11    0.27
   0 -10   8    0.82    0.33
   0 -10   8    0.64    0.34
   0 -10  -8    0.52    0.40
   0  10   8    0.45    0.26
   2 -10   8    0.92    0.34
   2 -10   8    0.70    0.32
  -2 -10  -8    1.21    0.43
   2  10   8    0.94    0.28
   4 -10   8    2.79    0.43
   4 -10   8    3.61    0.53
  -4 -10  -8    3.20    0.55
   4  10   8    3.56    0.39
   6 -10   8    4.18    0.51
  -6 -10  -8    5.59    0.73
  -6  10  -8    4.43    0.66
   6  10   8    4.54    0.51
  -8 -10  -8    2.39    0.55
   8 -10   8    1.55    0.39
   8  10   8    1.82    0.38
  -8  10  -8    1.72    0.49
  10 -10   8    1.85    0.41
 -10 -10  -8    3.36    0.58
 -10  10  -8    2.84    0.51
  10  10   8    2.59    0.44
  12 -10   8    1.37    0.36
 -12 -10  -8    1.54    0.75
  12  10   8    2.40    0.49
 -12  10  -8    2.45    0.51
 -14 -10  -8   -0.33    0.60
  14  10   8   -0.10    0.43
 -14  10  -8    1.13    0.66
 -16 -10  -8   -0.48    0.66
  16  10   8    0.67    0.49
 -18 -10  -8   -0.88    0.72
 -17  11   8    0.05    0.38
 -15 -11   8    0.49    0.64
  15 -11  -8    1.42    0.33
 -15  11   8    0.81    0.39
  15  11  -8    0.95    0.35
  13 -11  -8    0.40    0.25
 -13 -11   8    0.30    0.60
  13  11  -8    0.30    0.29
 -13  11   8   -0.12    0.32
 -11 -11   8    1.44    0.62
 -11  11   8    1.78    0.34
   9 -11  -8    0.87    0.41
  -9 -11   8    1.37    0.59
  -9  11   8    0.90    0.31
  -9  11   8    1.06    0.33
   9  11  -8    1.24    0.30
  -7 -11   8    3.34    0.63
   7 -11  -8    2.89    0.55
  -7 -11   8    3.29    0.48
   7  11  -8    2.88    0.33
  -7  11   8    2.90    0.38
  -7  11   8    2.99    0.38
  -5 -11   8    3.59    0.50
   5 -11  -8    2.68    0.55
  -5 -11   8    3.90    0.59
   5  11  -8    2.73    0.33
  -5  11   8    3.04    0.38
  -5  11   8    3.36    0.38
  -3 -11   8    0.90    0.39
   3 -11  -8    0.31    0.46
  -3 -11   8    1.03    0.43
   3  11  -8    0.33    0.25
  -3  11   8    0.56    0.26
   1 -11  -8    7.73    0.80
  -1 -11   8    6.38    0.69
  -1 -11   8    7.84    0.72
  -1  11   8    6.91    0.57
   1  11  -8    7.93    0.55
  -1 -11  -8    1.07    0.48
   1 -11   8    1.33    0.38
   1 -11   8    1.89    0.40
   1  11   8    1.27    0.32
   3 -11   8    0.21    0.32
   3 -11   8   -0.01    0.34
  -3 -11  -8    0.31    0.48
   3  11   8    0.21    0.27
   5 -11   8   -0.07    0.34
  -5 -11  -8    0.28    0.50
   5  11   8    0.41    0.28
   7 -11   8    2.45    0.46
  -7 -11  -8    4.92    0.70
  -7  11  -8    3.98    0.47
   7  11   8    3.70    0.45
   9 -11   8    2.10    0.43
  -9 -11  -8    3.30    0.67
   9  11   8    2.09    0.41
 -11 -11  -8    1.98    0.61
  11 -11   8    0.62    0.35
  11  11   8    1.04    0.40
  13 -11   8    1.87    0.41
  13  11   8    2.22    0.49
  15  11   8    1.02    0.50
  17  11   8    1.37    0.58
 -18  12   8   -0.38    0.38
  16 -12  -8    0.62    0.32
 -16  12   8   -0.20    0.37
  14 -12  -8    0.30    0.26
 -14 -12   8   -0.31    0.63
 -14  12   8    0.03    0.35
  12 -12  -8    0.48    0.26
 -12 -12   8    0.72    0.63
 -12  12   8    0.26    0.31
  12  12  -8    0.66    0.31
  10 -12  -8    0.83    0.42
 -10 -12   8    2.11    0.66
  10  12  -8    1.29    0.31
 -10  12   8    1.36    0.36
   8 -12  -8    2.63    0.52
  -8 -12   8    2.22    0.58
  -8 -12   8    2.49    0.64
  -8  12   8    2.05    0.35
   8  12  -8    2.81    0.35
  -8  12   8    1.94    0.37
  -6 -12   8    1.40    0.54
   6 -12  -8    1.17    0.51
  -6 -12   8    1.37    0.44
   6  12  -8    1.54    0.29
  -6  12   8    1.17    0.31
  -6  12   8    1.49    0.33
  -4 -12   8    3.36    0.50
   4 -12  -8    1.95    0.56
  -4 -12   8    2.70    0.54
   4  12  -8    1.93    0.32
  -4  12   8    2.53    0.36
  -4  12   8    2.59    0.35
   2 -12  -8    3.21    0.59
  -2 -12   8    2.73    0.49
  -2 -12   8    3.18    0.52
   2  12  -8    3.12    0.35
  -2  12   8    2.77    0.36
   0 -12   8    5.24    0.66
   0 -12   8    4.72    0.58
   0 -12  -8    6.05    0.74
   0  12   8    4.43    0.49
   2 -12   8    2.73    0.50
  -2 -12  -8    3.08    0.64
   2 -12   8    3.28    0.47
   2  12   8    3.28    0.41
   4 -12   8    0.67    0.39
  -4 -12  -8    1.16    0.59
   4  12   8    0.40    0.30
  -6 -12  -8    2.87    0.66
   6 -12   8    1.39    0.44
   6  12   8    1.63    0.35
  -6  12  -8    1.35    0.50
   8 -12   8    0.44    0.38
  -8 -12  -8    1.58    0.62
   8  12   8    1.08    0.35
  10 -12   8    0.45    0.38
 -10 -12  -8    1.44    0.63
  10  12   8    0.22    0.34
  12 -12   8    1.21    0.42
  12  12   8    1.75    0.45
  17  13  -8    0.30    0.41
 -17  13   8   -0.53    0.37
  15 -13  -8    0.74    0.33
 -15  13   8   -0.38    0.37
  13 -13  -8    0.59    0.28
 -13 -13   8   -0.38    0.68
  13  13  -8    0.48    0.33
 -11 -13   8   -0.04    0.66
  11  13  -8    0.62    0.31
 -11  13   8    0.17    0.33
   9 -13  -8    1.12    0.48
  -9 -13   8    1.58    0.67
  -9  13   8    1.43    0.33
   9  13  -8    1.59    0.32
  -9  13   8    1.55    0.34
  -7 -13   8    2.30    0.65
   7 -13  -8    1.88    0.54
  -7 -13   8    1.88    0.52
   7  13  -8    1.85    0.32
  -7  13   8    1.34    0.32
  -7  13   8    0.81    0.34
  -5 -13   8    1.04    0.51
  -5 -13   8    0.98    0.47
   5 -13  -8    0.98    0.56
   5  13  -8    1.39    0.29
  -5  13   8    1.29    0.33
  -5  13   8    1.17    0.31
  -3 -13   8    1.38    0.46
   3 -13  -8    2.82    0.66
  -3 -13   8    1.76    0.50
   3  13  -8    1.81    0.31
  -3  13   8    1.73    0.32
  -1 -13   8    4.22    0.60
   1 -13  -8    5.51    0.75
  -1 -13   8    5.32    0.69
  -1  13   8    4.30    0.46
   1  13  -8    4.89    0.45
  -1  13   8    4.27    0.47
  -1 -13  -8    3.20    0.68
   1 -13   8    2.19    0.51
   1 -13   8    2.88    0.49
   1  13   8    1.92    0.34
  -1  13  -8    2.68    0.37
  -3 -13  -8    3.00    0.70
   3 -13   8    2.14    0.49
   3  13   8    2.23    0.38
   5 -13   8    0.60    0.44
  -5 -13  -8    1.18    0.68
   5  13   8    1.23    0.34
   7 -13   8    0.02    0.41
  -7 -13  -8    0.45    0.62
   9 -13   8    0.88    0.42
  -9 -13  -8    1.77    0.70
 -11 -13  -8    1.44    0.85
  11 -13   8    0.08    0.38
  13 -13   8    0.75    0.40
 -16  14   8   -0.30    0.38
 -14  14   8   -0.13    0.35
  12 -14  -8    0.76    0.29
 -12 -14   8    0.72    0.72
  12  14  -8    0.42    0.35
 -12  14   8    0.32    0.33
 -10 -14   8    0.22    0.70
  10 -14  -8   -0.54    0.44
 -10  14   8   -0.09    0.34
  10  14  -8    0.16    0.31
  -8 -14   8    0.36    0.64
  -8 -14   8    0.49    0.61
   8 -14  -8    0.05    0.50
  -8  14   8    0.32    0.29
  -8  14   8    0.21    0.31
   6 -14  -8    0.01    0.53
  -6 -14   8    0.26    0.54
  -6 -14   8    0.17    0.49
  -6  14   8    0.47    0.29
   6  14  -8    0.91    0.29
  -4 -14   8    0.99    0.50
  -4 -14   8    0.60    0.50
   4 -14  -8    0.06    0.56
  -4  14   8    0.45    0.30
   4  14  -8    0.44    0.27
   2 -14  -8    1.71    0.67
  -2 -14   8    1.01    0.51
   2  14  -8    1.88    0.33
   0 -14   8    0.63    0.51
   0 -14  -8    1.59    0.67
   0  14  -8    1.08    0.32
  -2 -14  -8    1.21    0.67
   2 -14   8    0.50    0.48
  -2  14  -8    1.11    0.32
  -4 -14  -8    0.75    0.65
   4 -14   8    0.02    0.45
  -6 -14  -8    0.78    0.71
   6 -14   8   -0.04    0.45
   8 -14   8   -0.02    0.41
  -8 -14  -8    1.47    0.73
 -10 -14  -8    1.50    0.79
  10 -14   8    0.25    0.43
  12 -14   8    0.09    0.42
 -15  15   8   -0.14    0.41
 -13  15   8    0.16    0.35
 -11 -15   8   -0.44    0.72
 -11  15   8   -0.11    0.34
  11  15  -8    0.51    0.36
  -9 -15   8   -0.36    0.84
   9 -15  -8   -0.85    0.48
   9  15  -8   -0.07    0.30
  -9  15   8    0.16    0.34
   7 -15  -8   -0.39    0.55
  -7 -15   8    0.10    0.52
  -7  15   8   -0.36    0.34
   5 -15  -8   -0.39    0.56
  -5 -15   8   -0.23    0.44
  -5  15   8    0.10    0.35
   5  15  -8    0.04    0.27
  -3 -15   8   -0.62    0.48
   3 -15  -8    0.00    0.60
   3  15  -8    0.05    0.28
   1 -15  -8   -0.04    0.66
  -1 -15   8   -0.21    0.49
   1  15  -8    0.23    0.29
  -1  15   8    0.18    0.34
   1 -15   8    0.30    0.52
  -1 -15  -8    1.13    0.72
  -1  15  -8    0.79    0.32
  -3 -15  -8    2.00    0.78
   3 -15   8    0.23    0.49
  -3  15  -8    0.87    0.32
  -5 -15  -8    0.07    0.76
   5 -15   8   -0.35    0.47
   7 -15   8    0.07    0.47
  -7 -15  -8   -0.14    0.76
  -9 -15  -8    0.46    0.81
   9 -15   8    0.11    0.45
 -12  16   8    0.36    0.36
  10  16  -8    0.03    0.33
 -10  16   8   -0.21    0.35
   8 -16  -8   -0.96    0.65
   8  16  -8    0.22    0.31
  -8  16   8   -0.40    0.33
  -6 -16   8   -0.92    0.53
   6 -16  -8   -0.19    0.63
   6  16  -8    0.06    0.30
  -6  16   8   -0.02    0.36
   4 -16  -8   -0.68    0.62
  -4 -16   8   -0.03    0.56
   2 -16  -8   -0.19    0.68
  -2 -16   8   -0.65    0.52
   0 -16   8    0.06    0.53
   0 -16  -8   -0.06    0.68
   2 -16   8   -0.15    0.53
  -2 -16  -8    0.37    0.74
  -2  16  -8    0.24    0.31
   4 -16   8    0.25    0.57
  -4 -16  -8    0.06    0.77
  -6 -16  -8   -0.27    0.83
   9  17  -8    0.20    0.36
  -9  17   8    0.30    0.40
   7  17  -8   -0.24    0.34
  -7  17   8   -0.31    0.39
  -5  17   8   -0.04    0.38
   5  17  -8    0.31    0.32
   3  17  -8    0.24    0.31
  -3  17   8    0.28    0.38
   1  17  -8   -0.48    0.30
  -1  17  -8   -0.34    0.32
   6  18  -8    0.36    0.35
  -6  18   8    0.00    0.39
   4  18  -8    0.06    0.34
  -4  18   8   -0.04    0.42
   2  18  -8    0.27    0.34
  -2  18   8   -0.26    0.38
   0  18  -8    0.09    0.34
   0  18   8    0.45    0.40
 -22   0   9   -0.15    0.59
  22   0  -9    1.03    0.56
 -20   0   9   -0.18    0.56
  20   0  -9    0.16    0.38
 -18   0   9   -0.54    0.48
 -18   0   9   -0.14    0.31
  18   0  -9    0.60    0.34
  16   0  -9   -0.08    0.27
 -16   0   9   -0.11    0.29
 -16   0   9   -0.32    0.43
 -14   0   9   -0.29    0.27
  14   0  -9    0.16    0.23
 -14   0   9   -0.09    0.39
  12   0  -9   -0.07    0.17
 -12   0   9   -0.20    0.24
 -12   0   9   -0.29    0.35
 -10   0   9   -0.45    0.31
 -10   0   9    0.25    0.22
  10   0  -9    0.03    0.15
  -8   0   9   -0.21    0.20
  -8   0   9   -0.15    0.28
  -6   0   9   -0.20    0.25
  -6   0   9   -0.05    0.19
  -6   0   9    0.19    0.19
  -4   0   9   -0.03    0.15
  -4   0   9    0.08    0.20
  -4   0   9    0.00    0.15
  -2   0   9    0.04    0.18
  -2   0   9    0.04    0.14
  -2   0   9   -0.14    0.12
   0   0   9    0.12    0.18
   0   0   9    0.16    0.13
   0   0   9   -0.09    0.15
   2   0   9   -0.07    0.16
  -2   0  -9   -0.14    0.20
   2   0   9   -0.06    0.13
   4   0   9    0.08    0.18
  -4   0  -9    0.18    0.27
   4   0   9    0.09    0.16
   6   0   9    0.07    0.19
  -6   0  -9   -0.08    0.33
   6   0   9    0.08    0.20
   8   0   9    0.10    0.20
  -8   0  -9   -0.03    0.34
   8   0   9   -0.17    0.18
 -10   0  -9   -0.22    0.38
  10   0   9   -0.07    0.20
  10   0   9    0.01    0.23
  12   0   9   -0.15    0.27
  12   0   9    0.07    0.23
 -12   0  -9    0.13    0.42
  14   0   9   -0.18    0.33
 -14   0  -9    0.30    0.51
  16   0   9    0.30    0.39
 -16   0  -9    0.32    0.58
  18   0   9   -0.04    0.44
 -18   0  -9    0.09    0.66
 -20   0  -9    0.15    0.70
  20   0   9    0.12    0.48
 -21  -1   9   -0.76    0.64
  21  -1  -9    0.55    0.41
  21   1  -9    0.17    0.42
 -21   1   9   -0.07    0.58
 -19  -1   9   -0.31    0.52
  19  -1  -9    0.12    0.35
  19   1  -9    0.76    0.38
 -19   1   9    0.16    0.48
 -19   1   9   -0.21    0.32
 -17  -1   9    0.01    0.48
  17  -1  -9    1.17    0.33
 -17  -1   9   -0.23    0.31
 -17   1   9    0.22    0.46
  17   1  -9    0.85    0.33
 -15  -1   9    0.02    0.29
 -15  -1   9   -0.38    0.45
  15  -1  -9    0.25    0.25
  15   1  -9    0.28    0.27
 -15   1   9   -0.57    0.40
 -15   1   9   -0.20    0.29
  13  -1  -9    0.08    0.19
 -13  -1   9   -0.02    0.25
 -13  -1   9   -0.12    0.40
 -13   1   9   -0.11    0.36
 -13   1   9   -0.02    0.27
  13   1  -9    0.22    0.21
 -11  -1   9    0.91    0.25
 -11  -1   9    0.96    0.38
  11  -1  -9    1.22    0.21
  11   1  -9    1.53    0.21
 -11   1   9    0.73    0.26
 -11   1   9    0.52    0.33
  -9  -1   9    1.42    0.34
  -9  -1   9    1.39    0.23
   9   1  -9    1.12    0.18
  -9   1   9    1.35    0.24
  -7  -1   9    1.68    0.23
  -7  -1   9    1.54    0.33
  -7   1   9    1.49    0.24
  -7   1   9    1.44    0.23
  -7   1   9    1.03    0.26
  -5  -1   9    5.22    0.39
  -5  -1   9    4.17    0.37
  -5  -1   9    5.93    0.50
  -5   1   9    5.59    0.39
  -5   1   9    5.94    0.45
  -5   1   9    5.62    0.41
  -3  -1   9    0.25    0.09
  -3  -1   9    0.60    0.13
  -3  -1   9    0.54    0.23
  -3   1   9    0.66    0.19
  -3   1   9    0.61    0.16
  -3   1   9    0.51    0.15
  -1  -1   9    0.31    0.16
  -1  -1   9    0.17    0.19
  -1  -1   9    0.14    0.11
  -1   1   9    0.14    0.17
  -1   1   9    0.14    0.14
  -1   1   9    0.33    0.15
   1  -1   9    4.83    0.37
   1  -1   9    5.76    0.41
   1  -1   9    5.97    0.45
   1   1   9    6.15    0.40
   1   1   9    5.83    0.41
   3  -1   9    5.31    0.41
  -3  -1  -9    5.44    0.48
   3  -1   9    4.14    0.35
   3   1   9    5.34    0.39
   3   1   9    5.32    0.39
  -3   1  -9    4.87    0.47
   5  -1   9    1.38    0.23
   5  -1   9    0.83    0.20
  -5  -1  -9    0.48    0.34
   5   1   9    0.86    0.21
   5   1   9    1.16    0.22
  -5   1  -9    0.75    0.32
  -7  -1  -9    8.87    0.75
   7  -1   9    8.72    0.59
   7  -1   9    8.15    0.60
   7   1   9    9.62    0.61
   7   1   9    8.26    0.60
  -7   1  -9    8.41    0.71
   9  -1   9    9.20    0.62
   9  -1   9    9.03    0.63
  -9  -1  -9    7.99    0.78
  -9   1  -9    7.69    0.75
   9   1   9    9.33    0.62
   9   1   9    9.18    0.63
 -11  -1  -9    1.60    0.49
  11  -1   9    2.19    0.31
  11  -1   9    2.18    0.33
  11   1   9    1.95    0.33
  11   1   9    2.40    0.31
 -11   1  -9    1.66    0.47
  13  -1   9    0.54    0.31
 -13  -1  -9    0.36    0.51
  13  -1   9    0.63    0.26
 -13   1  -9    0.27    0.46
  13   1   9    0.53    0.32
  13   1   9    0.51    0.27
  15  -1   9    0.68    0.38
 -15  -1  -9    0.75    0.61
  15   1   9    0.73    0.39
 -15   1  -9    0.79    0.56
  17  -1   9    0.09    0.41
 -17  -1  -9   -0.23    0.62
 -17   1  -9    0.75    0.60
  17   1   9    0.03    0.40
  19  -1   9   -0.56    0.45
 -19  -1  -9    0.40    0.68
 -19   1  -9    0.28    0.66
  19   1   9   -0.53    0.44
  22   2  -9    0.53    0.48
 -20  -2   9   -0.29    0.58
  20  -2  -9    0.62    0.38
  20   2  -9    0.43    0.41
 -20   2   9   -0.47    0.32
  18  -2  -9    0.78    0.33
 -18  -2   9   -0.44    0.53
  18   2  -9    0.74    0.36
 -18   2   9   -0.32    0.45
  16  -2  -9    0.86    0.29
 -16  -2   9    0.36    0.32
 -16  -2   9   -0.04    0.50
  16   2  -9    0.92    0.31
 -16   2   9    0.42    0.31
 -16   2   9    0.55    0.43
 -14  -2   9   -0.02    0.45
  14  -2  -9    0.34    0.21
 -14  -2   9   -0.41    0.29
 -14   2   9   -0.22    0.26
 -14   2   9    0.16    0.28
  14   2  -9   -0.01    0.23
 -12  -2   9    1.13    0.42
  12  -2  -9    1.21    0.22
 -12  -2   9    1.13    0.27
  12   2  -9    1.15    0.23
 -12   2   9    1.30    0.28
 -12   2   9    0.50    0.30
 -10  -2   9    2.35    0.29
 -10  -2   9    2.29    0.42
 -10   2   9    2.70    0.29
  10   2  -9    2.44    0.29
 -10   2   9    2.51    0.36
  -8  -2   9    2.20    0.26
  -8  -2   9    2.00    0.37
  -8   2   9    2.19    0.25
  -8   2   9    1.91    0.28
  -8   2   9    1.89    0.29
   8   2  -9    2.01    0.21
  -6  -2   9   14.10    0.93
  -6   2   9   13.90    0.85
  -6   2   9   14.07    0.86
  -4  -2   9    3.31    0.28
  -4  -2   9    3.44    0.33
  -4  -2   9    4.23    0.44
  -4   2   9    3.87    0.35
  -4   2   9    3.51    0.33
  -2  -2   9    3.32    0.36
  -2  -2   9    3.10    0.31
  -2  -2   9    2.83    0.24
  -2   2   9    3.25    0.31
  -2   2   9    3.42    0.30
  -2   2   9    3.32    0.30
   0  -2   9    5.18    0.45
   0  -2   9    5.22    0.34
   0  -2   9    5.46    0.41
   0   2   9    5.19    0.40
   0   2   9    5.22    0.39
   2  -2   9    5.94    0.48
   2  -2   9    5.51    0.43
  -2  -2  -9    5.76    0.48
   2  -2   9    5.77    0.38
   2   2   9    5.25    0.41
   2   2   9    5.65    0.43
  -4  -2  -9   12.80    0.90
   4  -2   9   13.61    0.83
  -4   2  -9   12.48    0.88
   4   2   9   13.37    0.82
   4   2   9   13.97    0.82
   6  -2   9    2.37    0.25
  -6  -2  -9    1.88    0.42
   6  -2   9    2.49    0.30
   6   2   9    2.04    0.28
  -6   2  -9    2.01    0.39
   6   2   9    1.75    0.27
   8  -2   9    0.14    0.19
   8  -2   9   -0.01    0.19
  -8  -2  -9    0.15    0.39
  -8   2  -9   -0.11    0.31
   8   2   9    0.01    0.21
   8   2   9    0.43    0.24
  10  -2   9    5.55    0.46
  10  -2   9    4.70    0.48
 -10  -2  -9    4.92    0.63
  10   2   9    5.35    0.50
 -10   2  -9    4.76    0.60
  10   2   9    5.07    0.47
 -12  -2  -9    1.19    0.54
  12  -2   9    1.76    0.33
  12  -2   9    1.88    0.30
  12   2   9    1.96    0.31
 -12   2  -9    2.05    0.52
  12   2   9    2.02    0.36
  14  -2   9    5.97    0.64
 -14  -2  -9    5.36    0.82
 -14   2  -9    6.47    0.80
  14   2   9    6.48    0.66
  16  -2   9    2.71    0.48
 -16  -2  -9    2.35    0.73
  16   2   9    2.93    0.50
 -16   2  -9    2.45    0.63
  18  -2   9   -0.36    0.43
 -18  -2  -9   -0.13    0.66
 -18   2  -9    0.56    0.63
  18   2   9   -0.26    0.42
  20  -2   9   -0.36    0.49
 -20  -2  -9    0.68    0.76
 -20   2  -9    0.39    0.71
  20   2   9   -0.42    0.46
  21  -3  -9    0.77    0.42
 -21  -3   9   -0.27    0.67
 -21   3   9    0.18    0.35
  21   3  -9    0.09    0.46
 -19  -3   9   -0.60    0.56
 -19  -3   9    0.12    0.35
  19  -3  -9    1.21    0.36
  19   3  -9    0.53    0.40
 -19   3   9    0.34    0.34
  17  -3  -9    0.48    0.30
 -17  -3   9    0.23    0.53
  17   3  -9    0.76    0.34
 -17   3   9    0.21    0.32
 -15  -3   9    0.97    0.50
 -15  -3   9    0.58    0.33
  15  -3  -9    1.31    0.27
 -15   3   9    1.59    0.33
  15   3  -9    1.38    0.31
 -15   3   9    0.87    0.42
 -13  -3   9    0.64    0.29
 -13  -3   9    0.13    0.42
  13  -3  -9    0.85    0.22
 -13   3   9    0.40    0.35
 -13   3   9    0.20    0.28
  13   3  -9    0.88    0.24
 -11  -3   9    2.08    0.43
  11  -3  -9    1.81    0.23
 -11   3   9    1.51    0.33
 -11   3   9    1.86    0.29
  11   3  -9    2.12    0.24
  -9  -3   9    2.55    0.29
  -9  -3   9    2.73    0.42
  -9   3   9    1.97    0.32
   9   3  -9    2.26    0.26
  -9   3   9    3.11    0.29
  -9   3   9    2.51    0.31
  -7  -3   9    3.65    0.31
   7  -3  -9    2.94    0.35
  -7  -3   9    3.75    0.49
   7   3  -9    2.50    0.26
  -7   3   9    3.32    0.33
  -7   3   9    3.54    0.36
  -5  -3   9    5.61    0.44
  -5  -3   9    5.53    0.55
  -5   3   9    5.79    0.44
  -3  -3   9   22.33    1.31
  -3  -3   9   20.78    1.26
  -3   3   9   22.76    1.26
  -3   3   9   21.62    1.26
  -1  -3   9   17.93    1.05
  -1  -3   9   17.41    1.07
  -1   3   9   17.87    1.04
  -1   3   9   17.30    1.03
   1  -3   9    2.49    0.32
   1  -3   9    2.66    0.29
   1   3   9    2.52    0.27
   1   3   9    2.09    0.25
   3  -3   9   11.01    0.65
  -3  -3  -9    9.62    0.75
   3  -3   9   11.16    0.71
   3   3   9   11.00    0.69
   3   3   9   11.07    0.70
  -5  -3  -9    4.67    0.57
   5  -3   9    5.39    0.38
   5  -3   9    4.94    0.45
  -5   3  -9    5.12    0.54
   5   3   9    5.52    0.45
   5   3   9    4.62    0.44
  -7  -3  -9    4.22    0.53
   7  -3   9    4.31    0.41
   7  -3   9    3.69    0.35
   7   3   9    3.99    0.41
  -7   3  -9    3.99    0.51
   7   3   9    3.93    0.42
  -9  -3  -9    4.95    0.71
   9  -3   9    6.10    0.48
   9  -3   9    5.86    0.50
   9   3   9    6.66    0.53
  -9   3  -9    5.18    0.62
   9   3   9    6.47    0.51
  11  -3   9    3.76    0.44
 -11  -3  -9    3.47    0.63
  11  -3   9    3.71    0.43
  11   3   9    3.87    0.42
  11   3   9    3.93    0.44
 -11   3  -9    3.36    0.55
  13  -3   9    6.46    0.61
 -13  -3  -9    5.70    0.81
  13  -3   9    6.18    0.55
 -13   3  -9    6.30    0.81
  13   3   9    6.13    0.56
  13   3   9    6.44    0.64
 -15  -3  -9    2.59    0.72
  15  -3   9    1.87    0.43
  15   3   9    2.98    0.48
 -15   3  -9    2.51    0.59
 -17  -3  -9    0.91    0.71
  17  -3   9    0.53    0.43
  17   3   9    1.13    0.45
 -17   3  -9    1.73    0.61
 -19  -3  -9    0.59    0.74
  19  -3   9   -0.22    0.44
  19   3   9    0.31    0.46
 -19   3  -9    0.88    0.66
 -20  -4   9    0.34    0.61
  20  -4  -9    0.48    0.34
 -20   4   9    0.43    0.37
  20   4  -9    0.16    0.50
  18  -4  -9    0.98    0.32
 -18  -4   9   -0.07    0.53
 -18  -4   9    0.15    0.35
  18   4  -9    0.90    0.39
 -18   4   9    0.98    0.34
 -16  -4   9    1.86    0.38
 -16  -4   9    1.54    0.54
  16  -4  -9    2.46    0.34
  16   4  -9    3.24    0.40
 -16   4   9    1.49    0.36
  14  -4  -9    3.57    0.41
 -14  -4   9    2.64    0.39
 -14  -4   9    2.14    0.55
 -14   4   9    2.75    0.37
  14   4  -9    4.18    0.45
 -12  -4   9    0.51    0.28
  12  -4  -9    0.72    0.19
 -12  -4   9    0.84    0.42
 -12   4   9    0.24    0.37
 -12   4   9    0.81    0.28
  12   4  -9    0.81    0.22
 -10  -4   9    3.65    0.34
 -10  -4   9    3.16    0.47
 -10   4   9    3.64    0.34
 -10   4   9    3.06    0.41
  10   4  -9    2.85    0.31
  -8  -4   9    4.09    0.37
  -8  -4   9    3.81    0.53
   8  -4  -9    3.21    0.39
   8   4  -9    3.45    0.30
  -8   4   9    4.42    0.39
  -8   4   9    4.60    0.37
   6  -4  -9    8.02    0.64
  -6  -4   9    9.07    0.59
  -6  -4   9    8.89    0.70
  -6  -4   9    9.43    0.60
  -6   4   9    9.38    0.61
   4  -4  -9   13.17    0.87
  -4  -4   9   13.16    0.90
  -4   4   9   13.69    0.82
  -2  -4   9    8.43    0.63
  -2  -4   9    8.46    0.59
  -2   4   9    8.30    0.57
   0  -4   9    3.07    0.37
   0  -4   9    3.02    0.40
   0   4   9    2.80    0.34
   0   4   9    3.41    0.35
   2  -4   9    1.75    0.30
   2  -4   9    1.33    0.26
   2   4   9    1.78    0.26
   2   4   9    1.38    0.24
   4  -4   9   12.90    0.86
   4  -4   9   14.06    0.80
  -4  -4  -9   14.09    0.92
   4   4   9   13.48    0.86
   4   4   9   13.64    0.85
   6  -4   9    3.78    0.44
   6  -4   9    4.20    0.35
  -6  -4  -9    4.78    0.57
  -6   4  -9    4.83    0.53
   6   4   9    3.80    0.41
   6   4   9    4.11    0.42
  -8  -4  -9   12.95    1.00
   8  -4   9   13.25    0.86
   8   4   9   13.42    0.86
  -8   4  -9   13.32    0.95
   8   4   9   13.48    0.86
  10  -4   9    3.88    0.44
  10  -4   9    4.38    0.43
 -10  -4  -9    3.57    0.62
  10   4   9    3.84    0.45
 -10   4  -9    4.13    0.55
  10   4   9    4.69    0.50
  12  -4   9    2.41    0.35
  12  -4   9    2.44    0.35
 -12  -4  -9    1.58    0.62
  12   4   9    2.99    0.42
 -12   4  -9    2.11    0.53
 -14  -4  -9    4.63    0.81
  14  -4   9    4.92    0.52
  14   4   9    5.14    0.57
 -14   4  -9    5.08    0.73
 -16  -4  -9    1.22    0.70
  16  -4   9    1.74    0.44
 -16   4  -9    1.89    0.58
  16   4   9    2.08    0.50
  18  -4   9    1.18    0.48
 -18  -4  -9    0.53    0.73
 -18   4  -9    1.74    0.64
  18   4   9    0.94    0.48
 -20  -4  -9   -0.47    0.80
  20  -4   9    0.00    0.50
 -20   4  -9    1.48    0.74
 -21   5   9    0.40    0.43
 -19  -5   9    0.44    0.39
  19  -5  -9    0.86    0.34
 -19  -5   9    0.34    0.59
 -17  -5   9    0.32    0.51
  17  -5  -9    1.34    0.32
 -15  -5   9    0.73    0.49
  15  -5  -9    1.76    0.30
  15   5  -9    1.92    0.37
  13  -5  -9    1.24    0.24
 -13  -5   9    1.16    0.33
 -13  -5   9    1.21    0.47
  13   5  -9    1.66    0.28
 -13   5   9    1.74    0.33
 -11  -5   9    4.69    0.63
 -11  -5   9    6.07    0.49
 -11   5   9    5.73    0.48
  11   5  -9    5.49    0.43
  -9  -5   9    3.91    0.39
  -9  -5   9    3.92    0.50
   9   5  -9    3.48    0.31
  -9   5   9    3.36    0.41
  -9   5   9    4.14    0.38
  -7  -5   9   11.49    0.67
  -7  -5   9    9.51    0.77
  -7  -5   9   10.40    0.65
   7  -5  -9    9.21    0.71
  -7   5   9    9.69    0.67
  -5  -5   9    7.13    0.49
   5  -5  -9    5.94    0.57
  -5  -5   9    6.63    0.52
  -5  -5   9    7.40    0.62
  -5   5   9    7.55    0.52
  -3  -5   9    8.98    0.69
  -3  -5   9    8.52    0.61
   3  -5  -9    8.12    0.66
  -3   5   9    8.71    0.59
  -1  -5   9    8.58    0.63
  -1  -5   9    8.96    0.66
   1  -5  -9    9.45    0.70
  -1   5   9    9.07    0.60
   1  -5   9    0.69    0.27
   1  -5   9    0.39    0.22
  -1  -5  -9    0.96    0.30
   1   5   9    0.42    0.22
  -3  -5  -9    1.29    0.32
   3  -5   9    1.19    0.26
   3  -5   9    1.35    0.31
   3   5   9    1.36    0.25
   5  -5   9   11.86    0.81
  -5  -5  -9   12.50    0.87
   5  -5   9   12.82    0.74
  -5   5  -9   12.47    0.87
   5   5   9   12.11    0.79
   7  -5   9   10.66    0.76
  -7  -5  -9   11.09    0.88
   7  -5   9   11.57    0.70
   7   5   9   10.97    0.76
  -7   5  -9   11.69    0.86
  -9  -5  -9    1.53    0.53
   9  -5   9    1.97    0.32
  -9   5  -9    2.38    0.43
   9   5   9    1.74    0.33
  11  -5   9    0.81    0.28
 -11  -5  -9    0.88    0.57
  11  -5   9    1.07    0.26
  11   5   9    0.63    0.32
 -11   5  -9    1.30    0.45
  13  -5   9    2.92    0.39
 -13  -5  -9    2.18    0.69
  13  -5   9    2.71    0.39
  13   5   9    3.11    0.47
 -13   5  -9    3.46    0.61
  15  -5   9    6.12    0.65
 -15  -5  -9    4.59    0.86
 -15   5  -9    6.89    0.92
  15   5   9    6.25    0.67
 -17  -5  -9    1.09    0.71
  17  -5   9    1.33    0.44
  17   5   9    0.93    0.50
 -17   5  -9    2.14    0.61
 -19  -5  -9    1.51    0.79
  19  -5   9    1.32    0.52
  19   5   9    0.66    0.52
 -19   5  -9    2.23    0.70
  20  -6  -9    1.12    0.41
 -20  -6   9    0.57    0.40
 -20  -6   9   -0.18    0.77
 -20   6   9    0.47    0.41
  18  -6  -9    1.74    0.35
 -18  -6   9    0.26    0.56
 -18   6   9    1.50    0.37
  16  -6  -9    1.40    0.30
 -16  -6   9    0.42    0.51
 -16   6   9    0.84    0.34
 -14  -6   9    0.39    0.47
  14  -6  -9    0.69    0.25
 -14  -6   9    0.68    0.32
 -14   6   9    0.27    0.31
  12  -6  -9    1.09    0.22
 -12  -6   9    0.45    0.44
 -12  -6   9    0.55    0.30
 -12   6   9    1.10    0.32
 -10  -6   9    1.50    0.44
  10  -6  -9    1.27    0.30
 -10  -6   9    1.34    0.29
 -10   6   9    1.17    0.31
 -10   6   9    1.51    0.30
  -8  -6   9    4.84    0.42
  -8  -6   9    5.05    0.41
  -8  -6   9    3.90    0.56
   8  -6  -9    3.53    0.49
  -8   6   9    3.82    0.42
  -8   6   9    5.03    0.42
  -6  -6   9    8.23    0.56
   6  -6  -9    6.39    0.61
  -6  -6   9    7.36    0.67
  -6   6   9    7.41    0.51
  -6   6   9    6.78    0.53
  -4  -6   9   22.74    1.40
   4  -6  -9   22.08    1.39
  -4  -6   9   24.82    1.35
  -4   6   9   22.76    1.33
  -4   6   9   22.13    1.31
  -2  -6   9    7.53    0.56
  -2  -6   9    7.28    0.60
   2  -6  -9    6.89    0.63
  -2   6   9    7.39    0.53
   0  -6  -9   16.05    1.06
   0  -6   9   16.51    1.03
   0  -6   9   15.79    1.00
   0   6   9   16.42    0.97
  -2  -6  -9    4.88    0.51
   2  -6   9    4.37    0.47
   2  -6   9    4.38    0.43
   2   6   9    4.70    0.41
  -4  -6  -9    6.81    0.62
   4  -6   9    6.72    0.55
   4   6   9    7.34    0.53
   6  -6   9    8.26    0.53
  -6  -6  -9    8.04    0.69
   6  -6   9    7.73    0.61
  -6  -6  -9    7.83    0.71
   6   6   9    8.04    0.60
  -6   6  -9    7.81    0.70
   8  -6   9    5.38    0.43
  -8  -6  -9    4.75    0.60
  -8  -6  -9    4.63    0.68
   8  -6   9    5.62    0.53
   8   6   9    6.87    0.54
  -8   6  -9    4.78    0.62
  10  -6   9    3.82    0.37
 -10  -6  -9    3.46    0.48
  10  -6   9    3.80    0.49
 -10  -6  -9    3.70    0.65
  10   6   9    4.08    0.46
 -10   6  -9    4.21    0.57
  12  -6   9    0.29    0.27
 -12  -6  -9    0.49    0.38
 -12  -6  -9    0.28    0.61
  12  -6   9    0.83    0.27
  12   6   9    0.69    0.37
 -12   6  -9    1.17    0.49
  14  -6   9    3.80    0.46
 -14  -6  -9    2.64    0.74
 -14   6  -9    4.73    0.69
  14   6   9    3.97    0.53
  16  -6   9    1.23    0.40
 -16  -6  -9    0.78    0.67
 -16   6  -9    2.39    0.59
  16   6   9    0.99    0.48
 -18  -6  -9    0.44    0.74
  18  -6   9    1.17    0.46
  18   6   9    1.07    0.53
 -18   6  -9    2.00    0.62
  20  -6   9    0.26    0.63
 -20   6  -9    1.44    0.76
 -21   7   9   -0.16    0.39
 -19  -7   9    0.20    0.39
  19  -7  -9    1.16    0.35
 -19  -7   9   -0.48    0.58
 -19   7   9    0.02    0.35
  17  -7  -9    2.06    0.35
 -17  -7   9    1.10    0.59
 -17  -7   9    1.09    0.38
 -17   7   9    1.19    0.37
  15  -7  -9    0.63    0.27
 -15  -7   9    0.51    0.50
 -15   7   9    0.45    0.34
 -13  -7   9    0.68    0.33
  13  -7  -9    0.95    0.26
 -13  -7   9    0.94    0.50
 -13   7   9    0.66    0.33
 -11  -7   9    2.77    0.55
 -11  -7   9    3.03    0.39
 -11   7   9    3.92    0.40
  -9  -7   9    4.25    0.58
  -9  -7   9    4.54    0.44
   9  -7  -9    3.13    0.44
  -9   7   9    4.92    0.43
  -9   7   9    3.80    0.40
  -7  -7   9    1.88    0.43
   7  -7  -9    1.46    0.38
  -7  -7   9    2.39    0.32
  -7   7   9    1.86    0.30
  -7   7   9    2.31    0.30
  -5  -7   9   14.37    0.94
  -5  -7   9   14.61    1.03
   5  -7  -9   14.99    1.01
   5   7  -9   16.01    0.89
  -5   7   9   15.53    0.90
  -5   7   9   15.00    0.93
   3  -7  -9   10.09    0.81
  -3  -7   9   11.57    0.75
  -3  -7   9   10.73    0.80
   3   7  -9   10.58    0.67
  -3   7   9   11.43    0.72
  -1  -7   9    2.17    0.36
  -1  -7   9    2.29    0.32
   1  -7  -9    2.06    0.37
  -1   7   9    2.58    0.30
   1  -7   9    9.13    0.69
   1  -7   9    8.75    0.65
  -1  -7  -9    9.44    0.74
   1   7   9    9.14    0.62
  -3  -7  -9   10.31    0.79
   3  -7   9    9.65    0.73
   3  -7   9    9.83    0.71
   3   7   9   10.51    0.68
  -5  -7  -9    2.26    0.43
  -5  -7  -9    1.89    0.40
   5  -7   9    2.80    0.35
  -5   7  -9    2.61    0.42
   5   7   9    2.93    0.34
   7  -7   9    1.29    0.20
  -7  -7  -9    1.23    0.44
   7  -7   9    1.39    0.31
  -7  -7  -9    1.40    0.40
  -7   7  -9    1.71    0.42
   7   7   9    1.29    0.30
  -9  -7  -9    5.03    0.65
  -9  -7  -9    5.42    0.66
   9  -7   9    5.17    0.45
   9  -7   9    4.82    0.54
   9   7   9    5.54    0.57
  -9   7  -9    5.44    0.65
  11  -7   9    4.88    0.53
 -11  -7  -9    3.54    0.69
  11  -7   9    4.33    0.46
 -11   7  -9    4.68    0.62
  11   7   9    4.75    0.53
  13  -7   9    1.41    0.35
  13  -7   9    1.51    0.32
 -13  -7  -9    1.00    0.62
  13   7   9    2.04    0.47
 -13   7  -9    2.91    0.58
  15  -7   9    0.31    0.32
 -15  -7  -9   -0.50    0.64
 -15   7  -9    1.18    0.55
  15   7   9    0.01    0.43
 -17  -7  -9    0.17    0.73
  17  -7   9    0.28    0.39
 -17   7  -9    1.66    0.55
  17   7   9    0.63    0.48
  19  -7   9    0.15    0.45
 -19  -7  -9    0.03    0.75
 -19   7  -9    2.30    0.63
 -22   8   9    0.13    0.43
 -18  -8   9    0.05    0.57
  18  -8  -9    1.41    0.34
 -18   8   9    0.10    0.39
  16  -8  -9    0.89    0.28
 -16  -8   9    0.51    0.56
 -16   8   9    0.26    0.35
  14  -8  -9    0.96    0.27
 -14  -8   9    0.65    0.53
 -14   8   9    0.76    0.36
 -12  -8   9    0.89    0.51
 -12   8   9    0.36    0.34
  10  -8  -9    2.22    0.39
 -10  -8   9    2.09    0.54
 -10   8   9    2.53    0.36
 -10   8   9    2.11    0.36
  -8  -8   9    2.78    0.53
   8  -8  -9    2.22    0.45
  -8  -8   9    3.17    0.39
  -8   8   9    2.46    0.35
  -8   8   9    2.64    0.34
   6  -8  -9    2.25    0.44
  -6  -8   9    2.89    0.48
  -6   8   9    2.65    0.34
  -6   8   9    2.97    0.33
   6   8  -9    2.79    0.28
   4  -8  -9    4.92    0.53
  -4  -8   9    4.24    0.57
  -4  -8   9    5.02    0.49
  -4   8   9    4.00    0.40
  -4   8   9    4.06    0.42
   4   8  -9    4.23    0.37
  -2  -8   9    2.06    0.39
   2  -8  -9    1.64    0.38
  -2  -8   9    2.51    0.36
  -2   8   9    2.28    0.31
   2   8  -9    2.25    0.27
   0  -8  -9    5.45    0.59
   0  -8   9    4.97    0.54
   0  -8   9    5.06    0.51
   0   8   9    5.73    0.46
   2  -8   9    6.96    0.60
   2  -8   9    6.20    0.56
  -2  -8  -9    6.31    0.64
   2   8   9    7.05    0.53
   4  -8   9    1.78    0.36
   4  -8   9    1.53    0.32
  -4  -8  -9    2.22    0.43
   4   8   9    1.56    0.29
  -6  -8  -9    1.47    0.42
  -6  -8  -9    2.57    0.47
   6  -8   9    1.64    0.33
   6   8   9    1.94    0.33
  -6   8  -9    2.24    0.45
  -8  -8  -9    1.15    0.47
  -8  -8  -9    2.08    0.47
   8  -8   9    2.10    0.37
   8   8   9    2.53    0.39
  -8   8  -9    2.16    0.47
 -10  -8  -9    1.70    0.56
 -10  -8  -9    2.43    0.50
  10  -8   9    1.68    0.37
 -10   8  -9    2.40    0.51
  10   8   9    2.14    0.42
 -12  -8  -9    0.55    0.57
 -12  -8  -9    2.17    0.44
  12  -8   9    1.43    0.36
 -12   8  -9    2.14    0.52
  12   8   9    2.38    0.47
  14  -8   9    0.73    0.39
 -14  -8  -9   -0.40    0.63
  14   8   9    1.18    0.47
 -14   8  -9    1.54    0.53
 -16  -8  -9    0.43    0.69
  16   8   9    1.64    0.54
 -16   8  -9    3.16    0.63
 -18  -8  -9   -0.68    0.69
  18   8   9   -0.12    0.52
 -18   8  -9    1.39    0.55
 -19   9   9   -0.51    0.39
  17  -9  -9    0.98    0.30
 -17  -9   9   -0.10    0.59
 -17   9   9   -0.56    0.35
  15  -9  -9    0.34    0.26
 -15  -9   9    0.00    0.56
 -15   9   9    0.03    0.35
  13  -9  -9    2.08    0.31
 -13  -9   9    1.80    0.60
 -13   9   9    1.51    0.40
 -11  -9   9   -0.21    0.50
 -11   9   9   -0.19    0.32
  11   9  -9   -0.02    0.24
   9  -9  -9    0.43    0.37
  -9  -9   9    0.12    0.48
   9   9  -9    0.46    0.23
  -9   9   9    0.36    0.31
  -9   9   9    0.18    0.29
   7  -9  -9    3.71    0.52
  -7  -9   9    3.55    0.57
  -7  -9   9    2.81    0.42
   7   9  -9    3.86    0.36
  -7   9   9    3.69    0.40
  -5  -9   9    2.01    0.45
  -5  -9   9    1.45    0.36
   5  -9  -9    1.13    0.42
  -5   9   9    1.47    0.30
   5   9  -9    1.54    0.25
  -3  -9   9    3.23    0.46
   3  -9  -9    2.68    0.46
  -3  -9   9    3.30    0.42
  -3   9   9    2.51    0.34
   3   9  -9    3.03    0.31
  -1  -9   9    1.78    0.38
  -1  -9   9    1.61    0.35
   1  -9  -9    1.48    0.40
  -1   9   9    1.45    0.29
   1  -9   9    6.11    0.60
   1  -9   9    5.78    0.57
  -1  -9  -9    5.57    0.65
   1   9   9    6.71    0.52
  -3  -9  -9    8.80    0.78
   3  -9   9    8.60    0.70
   3  -9   9    8.02    0.66
   3   9   9    8.46    0.62
  -5  -9  -9    1.70    0.46
   5  -9   9    1.23    0.34
   5   9   9    0.99    0.30
   7  -9   9    2.06    0.38
  -7  -9  -9    2.19    0.51
   7   9   9    2.15    0.38
  -7   9  -9    1.84    0.47
  -9  -9  -9    0.05    0.50
  -9  -9  -9    0.80    0.47
   9  -9   9    0.16    0.31
  -9   9  -9    0.19    0.39
   9   9   9    0.07    0.34
 -11  -9  -9    1.13    0.54
  11  -9   9    1.36    0.38
 -11  -9  -9    2.17    0.51
 -11   9  -9    1.60    0.48
  11   9   9    1.70    0.44
  13  -9   9    0.53    0.34
 -13  -9  -9    0.57    0.59
  13   9   9    0.47    0.43
 -13   9  -9    1.49    0.49
 -15  -9  -9   -0.12    0.63
 -15   9  -9    1.17    0.51
  15   9   9    0.96    0.50
 -17  -9  -9   -0.09    0.70
 -17   9  -9    1.64    0.55
  17   9   9    0.08    0.53
  18  10  -9    0.78    0.38
 -18  10   9   -0.41    0.37
 -16 -10   9    0.30    0.63
  16 -10  -9    0.46    0.28
 -16  10   9    0.19    0.38
  14 -10  -9    0.85    0.28
 -14 -10   9    0.62    0.60
  14  10  -9    0.82    0.30
 -14  10   9    0.82    0.37
 -12 -10   9    1.09    0.59
  12  10  -9    1.21    0.28
 -12  10   9    1.20    0.36
  10 -10  -9   -0.22    0.34
 -10 -10   9   -0.55    0.51
 -10  10   9   -0.24    0.29
 -10  10   9    0.09    0.33
  10  10  -9   -0.36    0.24
  -8 -10   9    0.25    0.50
   8 -10  -9    1.06    0.45
  -8 -10   9    0.90    0.39
  -8  10   9    0.52    0.29
   8  10  -9    0.55    0.25
  -8  10   9    0.90    0.33
  -6 -10   9    0.17    0.46
   6 -10  -9   -0.05    0.41
  -6 -10   9   -0.04    0.35
  -6  10   9    0.03    0.27
   6  10  -9    0.19    0.22
  -6  10   9   -0.02    0.29
  -4 -10   9    1.62    0.40
   4 -10  -9    2.26    0.49
  -4 -10   9    1.33    0.46
  -4  10   9    1.88    0.31
  -4  10   9    1.59    0.30
   4  10  -9    2.28    0.28
   2 -10  -9    1.85    0.49
  -2 -10   9    3.77    0.49
  -2 -10   9    3.70    0.46
  -2  10   9    2.93    0.36
   0 -10   9    5.65    0.62
   0 -10   9    4.81    0.58
   0 -10  -9    5.33    0.68
   0  10   9    5.97    0.53
  -2 -10  -9    0.46    0.41
   2 -10   9    0.09    0.33
   2 -10   9    0.79    0.35
   2  10   9    1.05    0.29
   4 -10   9    1.03    0.37
  -4 -10  -9    1.88    0.49
   4 -10   9    0.72    0.34
   4  10   9    1.04    0.30
  -6 -10  -9    2.45    0.55
   6 -10   9    2.07    0.42
  -6  10  -9    2.57    0.52
   6  10   9    2.76    0.39
  -8 -10  -9    1.16    0.51
   8 -10   9    1.09    0.37
  -8  10  -9    1.01    0.44
   8  10   9    0.59    0.35
 -10 -10  -9    4.06    0.65
  10 -10   9    2.13    0.43
 -10  10  -9    2.83    0.54
  10  10   9    3.43    0.49
  12 -10   9    0.03    0.33
 -12  10  -9    0.46    0.44
  12  10   9   -0.07    0.40
 -14  10  -9    1.15    0.50
  14  10   9    0.36    0.46
  16  10   9    0.88    0.52
  19  11  -9    0.85    0.40
 -19  11   9    0.14    0.39
 -17  11   9   -0.10    0.39
  15 -11  -9    0.38    0.29
 -15 -11   9    0.38    0.65
  15  11  -9    0.38    0.32
 -15  11   9    0.27    0.38
 -13 -11   9   -0.22    0.60
  13 -11  -9    0.23    0.25
  13  11  -9    0.16    0.27
 -13  11   9   -0.66    0.34
 -11 -11   9   -0.20    0.56
  11  11  -9    0.22    0.25
 -11  11   9   -0.06    0.33
  -9 -11   9   -0.26    0.54
   9 -11  -9   -0.28    0.38
   9  11  -9   -0.24    0.24
  -9  11   9   -0.53    0.30
  -9  11   9    0.18    0.29
  -7 -11   9   -0.19    0.36
   7 -11  -9    0.71    0.46
  -7 -11   9    0.24    0.51
  -7  11   9   -0.27    0.27
   7  11  -9    0.33    0.25
  -7  11   9   -0.47    0.29
  -5 -11   9   -0.26    0.45
   5 -11  -9    0.52    0.47
  -5 -11   9   -0.13    0.37
  -5  11   9    0.31    0.30
   5  11  -9    0.21    0.24
  -5  11   9   -0.13    0.26
   3 -11  -9    1.42    0.50
  -3 -11   9    1.72    0.47
  -3 -11   9    1.19    0.41
  -3  11   9    1.24    0.31
  -3  11   9    1.69    0.31
   3  11  -9    1.69    0.29
   1 -11  -9    0.51    0.47
  -1 -11   9    0.44    0.38
  -1 -11   9    0.65    0.37
  -1  11   9    0.26    0.25
  -1 -11  -9    0.74    0.48
   1 -11   9    0.34    0.35
   1 -11   9    0.00    0.35
   1  11   9    0.01    0.28
   3 -11   9    0.33    0.34
  -3 -11  -9    0.34    0.48
   3 -11   9   -0.33    0.35
   3  11   9    0.19    0.29
   5 -11   9    0.13    0.37
  -5 -11  -9    0.91    0.51
   5  11   9    0.56    0.29
  -7 -11  -9    3.48    0.63
   7 -11   9    1.58    0.43
   7  11   9    2.37    0.40
  -7  11  -9    2.86    0.53
   9 -11   9   -0.01    0.35
  -9 -11  -9    1.12    0.58
   9  11   9    0.17    0.36
  -9  11  -9    0.48    0.40
  11 -11   9   -0.09    0.34
 -11 -11  -9    1.22    0.57
 -11  11  -9    0.61    0.44
  11  11   9    0.14    0.37
  13 -11   9   -0.13    0.35
  13  11   9    0.21    0.44
  15  11   9   -0.27    0.46
 -18  12   9   -0.25    0.40
 -16  12   9    0.15    0.39
  16  12  -9    0.32    0.35
 -14 -12   9   -0.30    0.66
  14 -12  -9    0.43    0.28
  14  12  -9    0.03    0.29
 -14  12   9   -0.38    0.36
 -12 -12   9   -0.07    0.62
 -12  12   9   -0.24    0.31
  12  12  -9    0.67    0.31
  10 -12  -9   -0.07    0.41
 -10 -12   9   -0.23    0.59
 -10  12   9   -0.23    0.32
 -10  12   9    0.14    0.30
  10  12  -9    0.48    0.28
  -8 -12   9    0.06    0.61
   8 -12  -9    0.07    0.42
  -8 -12   9   -0.21    0.55
   8  12  -9    0.40    0.26
  -8  12   9    0.38    0.28
  -8  12   9   -0.44    0.31
  -6 -12   9   -0.37    0.43
   6 -12  -9   -0.09    0.50
  -6 -12   9    0.09    0.51
   6  12  -9    0.18    0.25
  -6  12   9    0.12    0.28
   4 -12  -9    0.68    0.51
  -4 -12   9   -0.13    0.39
  -4 -12   9   -0.16    0.45
  -4  12   9    0.55    0.28
  -4  12   9    0.43    0.31
  -2 -12   9    1.15    0.42
  -2 -12   9    1.08    0.45
   2 -12  -9    1.01    0.55
  -2  12   9    0.30    0.30
  -2  12   9    0.87    0.28
   0 -12   9   -0.19    0.39
   0 -12  -9    0.45    0.52
   0 -12   9    0.56    0.39
   0  12  -9    0.34    0.28
   0  12   9    0.39    0.27
   2 -12   9    0.07    0.39
  -2 -12  -9    0.56    0.53
   2 -12   9    0.22    0.36
   2  12   9    0.14    0.30
   4 -12   9   -0.18    0.38
  -4 -12  -9   -0.09    0.55
   4  12   9   -0.07    0.29
  -6 -12  -9    0.66    0.60
   6 -12   9   -0.14    0.38
   6  12   9    0.45    0.32
  -6  12  -9    0.19    0.61
   8 -12   9    0.14    0.38
  -8 -12  -9    1.47    0.63
   8  12   9   -0.04    0.33
 -10 -12  -9    1.39    0.69
  10 -12   9   -0.33    0.36
  10  12   9    0.52    0.38
  12 -12   9   -0.06    0.35
  12  12   9   -0.10    0.38
  14  12   9   -0.18    0.51
 -17  13   9   -0.23    0.39
 -15  13   9   -0.49    0.39
  15  13  -9    0.08    0.35
  13 -13  -9    0.19    0.26
 -13 -13   9   -0.04    0.70
  13  13  -9    0.21    0.32
 -13  13   9    0.18    0.37
 -11 -13   9   -0.67    0.63
 -11  13   9    0.28    0.34
  11  13  -9    0.05    0.29
   9 -13  -9    0.31    0.45
  -9 -13   9    0.00    0.60
  -9  13   9   -0.13    0.29
   9  13  -9    0.52    0.28
  -9  13   9    0.01    0.32
  -7 -13   9   -0.15    0.57
   7 -13  -9    0.25    0.48
  -7 -13   9    0.61    0.48
  -7  13   9    0.35    0.33
   7  13  -9    0.25    0.27
  -7  13   9    0.08    0.27
  -5 -13   9   -0.16    0.46
   5 -13  -9    0.21    0.55
  -5 -13   9    0.05    0.50
  -5  13   9    0.42    0.28
  -5  13   9    0.25    0.31
   5  13  -9    0.21    0.25
  -3 -13   9    0.39    0.48
   3 -13  -9    0.52    0.56
  -3 -13   9   -0.14    0.40
  -3  13   9    0.20    0.26
   3  13  -9    0.20    0.26
  -1 -13   9    0.54    0.48
  -1 -13   9    1.04    0.46
   1 -13  -9    0.51    0.58
   1  13  -9    0.98    0.30
  -1  13   9    0.70    0.27
  -1 -13  -9    0.77    0.60
   1 -13   9    0.45    0.40
   1 -13   9    0.03    0.42
   1  13   9    0.35    0.26
  -3 -13  -9    0.99    0.63
   3 -13   9   -0.10    0.40
   3 -13   9   -0.36    0.42
   3  13   9    0.24    0.31
   5 -13   9   -0.18    0.42
  -5 -13  -9    0.88    0.65
   5  13   9    0.10    0.31
  -7 -13  -9    0.95    0.68
   7 -13   9   -0.29    0.40
   7  13   9    0.56    0.30
  -9 -13  -9    0.73    0.66
   9 -13   9    0.01    0.41
 -11 -13  -9    0.36    0.67
  11 -13   9   -0.01    0.40
  13 -13   9    0.14    0.38
 -16  14   9   -0.12    0.39
  16  14  -9    0.55    0.41
  14  14  -9    0.21    0.35
 -14  14   9    0.05    0.39
  12 -14  -9    0.73    0.28
 -12 -14   9   -0.18    0.71
  12  14  -9    0.20    0.32
 -12  14   9   -0.01    0.35
 -10 -14   9   -0.16    0.69
  10 -14  -9   -0.48    0.47
 -10  14   9   -0.07    0.37
  10  14  -9   -0.01    0.30
   8 -14  -9   -0.37    0.50
  -8 -14   9    0.23    0.61
  -8  14   9   -0.22    0.32
  -8  14   9    0.06    0.29
   8  14  -9    0.53    0.29
  -6 -14   9   -0.14    0.53
  -6 -14   9   -0.48    0.42
   6 -14  -9    0.19    0.52
  -6  14   9   -0.20    0.28
  -6  14   9    0.33    0.35
   4 -14  -9    0.20    0.61
  -4 -14   9    0.12    0.49
  -4 -14   9    0.07    0.48
  -4  14   9    0.16    0.29
  -4  14   9   -0.17    0.31
   4  14  -9    0.05    0.26
  -2 -14   9    0.26    0.48
  -2 -14   9    0.56    0.48
   2 -14  -9    1.02    0.65
  -2  14   9    0.41    0.28
   2  14  -9    0.64    0.29
   0 -14   9    0.09    0.48
   0 -14  -9    0.94    0.65
   0  14   9    0.39    0.27
  -2 -14  -9    1.46    0.68
   2 -14   9    0.12    0.48
   4 -14   9   -0.35    0.44
  -4 -14  -9    0.62    0.67
  -6 -14  -9    0.74    0.71
   6 -14   9    0.17    0.44
  -8 -14  -9    0.84    0.71
   8 -14   9    0.41    0.45
  10 -14   9   -0.28    0.42
 -10 -14  -9    0.61    0.78
  12 -14   9    0.21    0.44
  13  15  -9    0.11    0.35
 -13  15   9    0.17    0.38
 -11 -15   9    0.44    0.76
 -11  15   9    0.47    0.36
  11  15  -9    0.71    0.34
  -9 -15   9   -0.16    0.69
   9 -15  -9   -0.93    0.50
  -9  15   9    0.14    0.35
   7 -15  -9   -0.40    0.53
  -7 -15   9   -0.46    0.49
  -7 -15   9    0.24    0.77
  -7  15   9    0.37    0.37
   7  15  -9    0.01    0.27
  -5 -15   9   -0.59    0.48
   5 -15  -9   -0.09    0.58
   5  15  -9    0.16    0.28
  -3 -15   9   -0.28    0.49
   3 -15  -9    0.09    0.64
   3  15  -9    0.26    0.30
  -3  15   9   -0.07    0.34
  -1 -15   9    0.48    0.51
   1 -15  -9    1.23    0.71
   1  15  -9    0.60    0.32
   1 -15   9   -0.60    0.47
  -1 -15  -9    0.42    0.75
  -1  15  -9    0.06    0.31
   3 -15   9    0.71    0.54
  -3 -15  -9    1.00    0.81
   5 -15   9   -0.13    0.49
  -5 -15  -9    0.80    0.74
   7 -15   9   -0.12    0.48
  -7 -15  -9    0.42    0.76
  -9 -15  -9    1.73    0.92
  12  16  -9    0.25    0.36
 -12  16   9    0.02    0.37
 -10  16   9    0.18    0.38
  10  16  -9    0.07    0.32
  -8  16   9    0.43    0.39
   8  16  -9    0.36    0.32
  -6 -16   9    0.00    0.55
   6 -16  -9   -0.62    0.63
   6  16  -9    0.18    0.30
  -6  16   9   -0.31    0.37
  -4 -16   9    0.28    0.55
   4 -16  -9    0.00    0.67
   4  16  -9    0.01    0.31
  -4  16   9    0.35    0.36
   2 -16  -9   -0.56    0.67
  -2 -16   9   -0.60    0.50
  -2  16   9   -0.23    0.33
   2  16  -9    0.18    0.31
   0 -16   9    0.00    0.54
   0 -16  -9    0.25    0.74
   0  16  -9    0.18    0.32
   2 -16   9    0.52    0.58
  -2 -16  -9    1.76    0.84
  -2  16  -9    1.12    0.35
  -9  17   9    0.01    0.38
   9  17  -9    0.26    0.33
   7  17  -9    0.18    0.34
   5  17  -9    0.74    0.34
   3  17  -9    0.55    0.34
  -3  17   9    0.49    0.40
   1  17  -9    0.35    0.33
  -1  17  -9    0.37    0.34
   6  18  -9    0.03    0.34
  -4  18   9    0.07    0.43
  -2  18   9    0.51    0.40
   2  18  -9    0.51    0.36
   0  18  -9    0.33    0.36
 -22   0  10   -0.24    0.58
  20   0 -10    0.56    0.39
 -20   0  10    0.12    0.54
 -18   0  10    0.64    0.34
 -18   0  10    0.15    0.50
  18   0 -10    1.58    0.37
 -16   0  10   -0.22    0.45
 -16   0  10    0.15    0.31
  16   0 -10    1.07    0.31
 -14   0  10    3.93    0.40
 -14   0  10    4.00    0.55
 -12   0  10    4.51    0.42
  12   0 -10    4.12    0.39
 -12   0  10    3.79    0.52
 -10   0  10    1.39    0.35
  10   0 -10    0.94    0.19
 -10   0  10    1.44    0.26
  -8   0  10    1.56    0.27
  -8   0  10    1.88    0.35
  -8   0  10    2.50    0.27
  -6   0  10   71.87    3.79
  -6   0  10   67.29    3.78
  -6   0  10   66.84    3.82
  -4   0  10   83.05    4.98
  -4   0  10   95.78    4.95
  -4   0  10   91.51    4.96
  -2   0  10   50.19    2.63
  -2   0  10   49.81    2.64
  -2   0  10   41.57    2.60
   0   0  10   42.08    2.33
   0   0  10   41.48    2.30
   0   0  10   40.57    2.31
   2   0  10    2.85    0.29
   2   0  10    2.46    0.32
  -2   0 -10    3.19    0.39
   4   0  10   53.97    2.98
  -4   0 -10   55.11    3.05
   4   0  10   52.05    3.00
   6   0  10    6.77    0.51
  -6   0 -10    6.30    0.62
   6   0  10    6.70    0.50
   8   0  10   21.68    1.28
  -8   0 -10   21.15    1.38
   8   0  10   22.09    1.29
  10   0  10    7.71    0.59
  10   0  10    7.85    0.58
 -10   0 -10    6.28    0.72
 -12   0 -10    1.76    0.55
  12   0  10    2.46    0.34
  12   0  10    2.49    0.38
  14   0  10    3.50    0.48
 -14   0 -10    3.08    0.63
 -16   0 -10    0.51    0.59
  16   0  10    0.40    0.40
  18   0  10    1.96    0.51
 -18   0 -10    2.69    0.74
 -20   0 -10    1.54    0.77
  20   0  10    0.88    0.54
 -21  -1  10   -0.37    0.58
  21  -1 -10    1.39    0.42
  21   1 -10    1.08    0.44
 -21   1  10    0.02    0.65
  19  -1 -10    0.95    0.37
 -19  -1  10    0.05    0.56
 -19  -1  10    0.60    0.36
  19   1 -10    0.80    0.37
 -19   1  10    0.32    0.34
 -19   1  10   -0.42    0.48
  17  -1 -10    1.18    0.32
 -17  -1  10   -0.13    0.49
 -17   1  10    0.28    0.32
  17   1 -10    0.85    0.34
 -17   1  10    0.09    0.45
  15  -1 -10    1.44    0.30
 -15  -1  10    0.52    0.32
 -15  -1  10    0.80    0.50
  15   1 -10    1.50    0.31
 -15   1  10    0.53    0.44
 -15   1  10    0.53    0.31
 -13  -1  10    2.69    0.51
  13  -1 -10    3.59    0.37
 -13  -1  10    2.53    0.35
  13   1 -10    3.34    0.38
 -13   1  10    2.91    0.36
 -13   1  10    2.40    0.46
 -11  -1  10    4.48    0.41
  11  -1 -10    4.46    0.38
 -11  -1  10    3.83    0.56
  11   1 -10    4.55    0.38
 -11   1  10    4.51    0.42
  -9  -1  10    6.38    0.62
  -9  -1  10    7.48    0.49
   9   1 -10    5.95    0.45
  -9   1  10    7.16    0.49
  -7  -1  10    7.87    0.63
  -7   1  10    6.33    0.56
  -7   1  10    8.47    0.53
  -5  -1  10   38.84    2.51
  -5  -1  10   48.36    2.57
  -5  -1  10   44.53    2.52
  -5   1  10   47.90    2.55
  -5   1  10   45.99    2.52
  -5   1  10   46.69    2.52
  -3  -1  10   11.71    0.69
  -3  -1  10   12.01    0.77
  -3  -1  10    9.82    0.71
  -3   1  10   11.98    0.74
  -3   1  10   12.53    0.72
  -3   1  10   12.10    0.71
  -1  -1  10   13.60    0.82
  -1  -1  10   13.19    0.79
  -1  -1  10   13.91    0.85
  -1   1  10   13.50    0.82
  -1   1  10   13.59    0.80
   1  -1  10   26.71    1.54
   1  -1  10   25.92    1.51
   1   1  10   25.67    1.51
   1   1  10   27.59    1.50
   3  -1  10   16.89    1.01
  -3  -1 -10   17.08    1.07
   3   1  10   17.66    1.00
   3   1  10   15.94    1.00
  -3   1 -10   16.74    1.06
   5  -1  10    4.02    0.37
   5  -1  10    3.88    0.40
  -5  -1 -10    4.46    0.54
   5   1  10    4.27    0.39
  -5   1 -10    4.75    0.53
   5   1  10    3.76    0.40
  -7  -1 -10    4.42    0.53
   7  -1  10    3.74    0.38
   7  -1  10    4.23    0.40
   7   1  10    3.94    0.41
   7   1  10    3.82    0.41
  -7   1 -10    3.76    0.53
  -9  -1 -10    5.10    0.64
   9  -1  10    4.12    0.45
   9  -1  10    4.65    0.45
  -9   1 -10    4.76    0.59
   9   1  10    4.30    0.45
   9   1  10    5.01    0.46
  11  -1  10    0.93    0.29
 -11  -1 -10    0.62    0.45
  11  -1  10    1.44    0.29
  11   1  10    1.07    0.28
  11   1  10    1.17    0.31
 -11   1 -10    0.47    0.41
  13  -1  10    3.76    0.46
  13  -1  10    3.61    0.47
 -13  -1 -10    2.61    0.62
  13   1  10    3.61    0.47
 -13   1 -10    3.74    0.67
  13   1  10    3.96    0.47
  15  -1  10    5.99    0.61
 -15  -1 -10    5.18    0.79
 -15   1 -10    5.04    0.75
  15   1  10    6.33    0.68
 -17  -1 -10    1.05    0.66
  17  -1  10    1.19    0.45
 -17   1 -10    1.24    0.62
  17   1  10    1.03    0.46
 -19  -1 -10    1.20    0.73
  19  -1  10    0.38    0.46
  19   1  10   -0.29    0.47
 -19   1 -10    1.04    0.69
 -22   2  10   -0.18    0.39
  22   2 -10    0.68    0.49
  20  -2 -10    0.47    0.38
 -20  -2  10    0.33    0.59
  20   2 -10    1.00    0.41
 -20   2  10    0.00    0.34
  18  -2 -10    0.59    0.32
 -18  -2  10   -0.39    0.53
  18   2 -10    0.78    0.35
  16  -2 -10    0.98    0.30
 -16  -2  10    0.34    0.50
  16   2 -10    1.33    0.34
 -16   2  10   -0.02    0.35
  14  -2 -10    2.07    0.30
 -14  -2  10    0.99    0.50
 -14  -2  10    2.16    0.34
  14   2 -10    2.27    0.31
 -14   2  10    1.90    0.34
 -12  -2  10    4.41    0.43
  12  -2 -10    4.43    0.39
 -12  -2  10    4.01    0.59
 -12   2  10    3.59    0.51
  12   2 -10    4.64    0.40
 -12   2  10    4.63    0.44
 -10  -2  10    0.58    0.25
 -10  -2  10    0.61    0.37
 -10   2  10    0.82    0.25
  10   2 -10    1.14    0.19
 -10   2  10    0.81    0.30
  -8  -2  10    3.87    0.50
  -8  -2  10    3.67    0.36
   8   2 -10    2.89    0.29
  -8   2  10    3.81    0.38
  -8   2  10    3.65    0.35
  -8   2  10    3.57    0.41
  -6  -2  10    4.49    0.51
  -6  -2  10    4.08    0.34
  -6  -2  10    4.12    0.36
  -6   2  10    4.01    0.37
  -6   2  10    4.63    0.39
  -6   2  10    4.17    0.40
  -4  -2  10   26.87    1.70
  -4  -2  10   29.36    1.68
  -4  -2  10   31.98    1.76
  -4   2  10   31.59    1.71
  -4   2  10   31.39    1.72
  -2  -2  10   20.62    1.18
  -2  -2  10   20.21    1.21
  -2  -2  10   19.90    1.14
  -2   2  10   20.54    1.17
  -2   2  10   19.95    1.17
  -2   2  10   20.02    1.18
   0  -2  10    3.58    0.35
   0  -2  10    3.41    0.27
   0  -2  10    3.30    0.41
   0   2  10    3.40    0.33
   0   2  10    3.40    0.34
   2  -2  10    8.55    0.53
   2  -2  10    7.92    0.63
   2  -2  10    8.71    0.59
  -2  -2 -10    9.30    0.64
   2   2  10    8.31    0.58
   2   2  10    8.54    0.57
   4  -2  10    0.66    0.23
  -4  -2 -10    0.99    0.35
   4  -2  10    0.52    0.16
   4   2  10    0.65    0.22
  -4   2 -10    1.04    0.31
   4   2  10    0.77    0.22
   6  -2  10    2.91    0.29
  -6  -2 -10    3.03    0.46
   6  -2  10    3.27    0.35
  -6   2 -10    3.27    0.48
   6   2  10    2.60    0.31
   6   2  10    2.82    0.37
   8  -2  10    2.97    0.34
  -8  -2 -10    3.03    0.50
   8  -2  10    2.62    0.31
  -8   2 -10    3.02    0.45
   8   2  10    2.41    0.33
   8   2  10    3.09    0.35
  10  -2  10    8.03    0.61
  10  -2  10    8.92    0.62
 -10  -2 -10    6.51    0.81
 -10   2 -10    7.74    0.76
  10   2  10    8.70    0.63
  10   2  10    8.93    0.65
  12  -2  10    3.42    0.41
 -12  -2 -10    2.95    0.63
  12  -2  10    3.26    0.39
  12   2  10    3.20    0.42
  12   2  10    3.02    0.38
 -12   2 -10    2.77    0.55
  14  -2  10    9.22    0.72
 -14  -2 -10    6.84    0.95
  14   2  10    7.35    0.72
 -14   2 -10    7.37    0.85
  16  -2  10    3.76    0.54
 -16  -2 -10    3.77    0.79
  16   2  10    3.15    0.53
 -16   2 -10    3.89    0.69
  18  -2  10    0.17    0.46
 -18  -2 -10    0.80    0.69
  18   2  10    0.07    0.44
 -18   2 -10    1.01    0.62
 -20  -2 -10    1.14    0.80
  20  -2  10    0.24    0.52
  20   2  10   -0.19    0.52
 -20   2 -10    1.21    0.71
  21  -3 -10    1.15    0.45
 -21  -3  10   -0.45    0.65
  21   3 -10    0.85    0.45
 -19  -3  10   -0.09    0.35
  19  -3 -10    0.61    0.35
 -19  -3  10   -0.25    0.62
 -19   3  10    0.61    0.35
  19   3 -10    0.68    0.40
 -17  -3  10   -0.10    0.52
  17  -3 -10    0.21    0.29
 -17   3  10    0.45    0.33
  17   3 -10    0.56    0.33
  15  -3 -10    1.58    0.29
 -15  -3  10    0.20    0.50
 -15  -3  10    1.18    0.35
 -15   3  10    0.08    0.51
  15   3 -10    1.58    0.31
 -13  -3  10    3.98    0.41
  13  -3 -10    4.20    0.41
 -13  -3  10    3.47    0.56
 -13   3  10    4.39    0.40
 -13   3  10    3.05    0.47
  13   3 -10    4.95    0.42
 -11  -3  10    0.42    0.26
 -11  -3  10    0.31    0.39
  11   3 -10    0.25    0.18
 -11   3  10    0.61    0.26
 -11   3  10    0.14    0.30
  -9  -3  10    1.89    0.27
  -9  -3  10    2.20    0.41
  -9   3  10    1.51    0.29
  -9   3  10    1.98    0.28
  -9   3  10    1.68    0.29
   9   3 -10    1.74    0.20
   7  -3 -10    1.76    0.26
  -7  -3  10    1.65    0.37
  -7  -3  10    1.84    0.25
  -7   3  10    1.71    0.26
  -5  -3  10    2.33    0.37
  -5  -3  10    2.27    0.27
  -5   3  10    2.28    0.27
  -3  -3  10   12.00    0.75
  -3  -3  10   11.35    0.81
  -3   3  10   12.24    0.75
  -3   3  10   11.83    0.74
  -1  -3  10    6.48    0.55
  -1  -3  10    6.75    0.51
  -1   3  10    6.89    0.50
  -1   3  10    6.54    0.48
   1  -3  10    6.20    0.49
   1  -3  10    6.17    0.53
   1   3  10    6.20    0.47
   1   3  10    6.32    0.48
  -3  -3 -10   19.19    1.09
   3  -3  10   16.64    1.04
   3  -3  10   16.25    0.98
   3   3  10   16.84    1.02
   3   3  10   16.68    1.03
   5  -3  10    3.31    0.40
  -5  -3 -10    3.53    0.53
   5  -3  10    3.64    0.32
   5   3  10    3.83    0.39
  -5   3 -10    4.39    0.50
   5   3  10    3.83    0.40
  -7  -3 -10    4.03    0.60
   7  -3  10    4.17    0.42
   7  -3  10    3.17    0.34
  -7   3 -10    4.33    0.53
   7   3  10    4.12    0.43
   7   3  10    4.98    0.43
   9  -3  10    3.58    0.40
   9  -3  10    3.65    0.42
  -9  -3 -10    4.62    0.60
   9   3  10    3.57    0.42
  -9   3 -10    3.71    0.55
   9   3  10    3.62    0.40
  11  -3  10    2.56    0.35
  11  -3  10    2.45    0.34
 -11  -3 -10    1.60    0.56
 -11   3 -10    2.07    0.49
  11   3  10    2.07    0.37
  11   3  10    2.12    0.35
  13  -3  10    5.32    0.53
  13  -3  10    4.78    0.58
 -13  -3 -10    4.03    0.74
  13   3  10    5.12    0.53
  13   3  10    5.09    0.60
 -13   3 -10    4.89    0.71
 -15  -3 -10    0.81    0.66
  15  -3  10    1.00    0.39
 -15   3 -10    1.58    0.54
  15   3  10    0.34    0.40
  17  -3  10    2.27    0.49
 -17  -3 -10    1.75    0.75
  17   3  10    2.55    0.52
 -17   3 -10    3.09    0.65
 -19  -3 -10    0.59    0.74
  19  -3  10    0.49    0.50
  19   3  10    0.50    0.46
 -19   3 -10    0.72    0.65
 -20  -4  10   -0.22    0.62
  20  -4 -10    1.24    0.37
 -20   4  10   -0.10    0.38
  18  -4 -10    0.93    0.33
 -18  -4  10   -0.35    0.54
 -18   4  10    0.20    0.34
  18   4 -10    0.38    0.39
 -16  -4  10    0.06    0.34
 -16  -4  10    0.49    0.51
  16  -4 -10    0.78    0.27
 -16   4  10    0.33    0.33
  16   4 -10    1.18    0.32
 -14  -4  10    1.10    0.35
  14  -4 -10    2.21    0.31
 -14  -4  10    1.56    0.51
 -14   4  10    1.65    0.33
  14   4 -10    2.03    0.31
  12  -4 -10    1.29    0.22
 -12  -4  10    0.88    0.43
 -12  -4  10    1.35    0.31
 -12   4  10    1.58    0.31
  12   4 -10    1.37    0.24
 -10  -4  10    1.91    0.29
 -10  -4  10    1.22    0.41
 -10   4  10    1.52    0.31
  10   4 -10    1.34    0.21
 -10   4  10    2.01    0.28
  -8  -4  10   -0.08    0.34
   8  -4 -10   -0.38    0.20
  -8  -4  10   -0.21    0.22
  -8   4  10   -0.13    0.22
   8   4 -10    0.03    0.13
  -8   4  10    0.24    0.23
  -6  -4  10    0.21    0.32
  -6  -4  10    0.59    0.22
   6  -4 -10    0.03    0.23
  -6   4  10    0.46    0.21
  -6   4  10    0.48    0.22
   4  -4 -10    7.87    0.65
  -4  -4  10    8.53    0.68
  -4   4  10    8.95    0.58
  -2  -4  10    0.14    0.28
  -2  -4  10    0.31    0.23
  -2   4  10    0.39    0.21
   0  -4  10    5.35    0.49
   0  -4  10    6.21    0.53
   0   4  10    5.85    0.47
   0   4  10    5.62    0.45
   2  -4  10    1.07    0.26
   2  -4  10    1.47    0.30
   2   4  10    1.60    0.27
   2   4  10    1.14    0.24
  -4  -4 -10    0.26    0.32
   4  -4  10    0.74    0.25
   4  -4  10    0.47    0.15
   4   4  10    0.43    0.23
   4   4  10    0.68    0.23
   6  -4  10    4.13    0.44
  -6  -4 -10    3.90    0.58
   6  -4  10    4.45    0.36
   6   4  10    4.18    0.44
  -6   4 -10    4.32    0.54
   6   4  10    4.54    0.43
  -8  -4 -10    2.10    0.50
   8  -4  10    1.82    0.30
  -8   4 -10    2.48    0.42
   8   4  10    1.57    0.30
   8   4  10    1.70    0.31
  10  -4  10    1.12    0.29
  10  -4  10    1.32    0.27
 -10  -4 -10    1.28    0.54
  10   4  10    1.19    0.32
  10   4  10    1.35    0.30
 -10   4 -10    1.65    0.42
  12  -4  10    0.66    0.29
  12  -4  10    0.54    0.29
 -12  -4 -10    1.31    0.62
  12   4  10    0.84    0.35
  12   4  10    0.51    0.30
 -12   4 -10    0.83    0.47
  14  -4  10    0.99    0.41
 -14  -4 -10    0.69    0.64
  14  -4  10    0.56    0.34
  14   4  10   -0.08    0.39
 -14   4 -10    1.49    0.56
 -16  -4 -10    0.20    0.67
  16  -4  10   -0.08    0.38
 -16   4 -10    2.17    0.58
  16   4  10    0.39    0.46
  18  -4  10    0.41    0.46
 -18  -4 -10    1.26    0.77
  18   4  10    0.20    0.47
 -18   4 -10    2.12    0.65
  20  -4  10   -0.12    0.56
 -20   4 -10    1.99    0.89
 -21   5  10    0.05    0.43
 -19  -5  10   -0.53    0.37
  19  -5 -10    0.58    0.32
 -19  -5  10    0.06    0.58
 -17  -5  10    0.15    0.35
  17  -5 -10    0.81    0.30
 -17  -5  10   -0.02    0.53
 -17   5  10   -0.11    0.34
  15  -5 -10    0.18    0.25
 -15  -5  10   -0.31    0.46
 -15  -5  10    0.11    0.33
 -15   5  10    0.52    0.32
  13  -5 -10    1.38    0.25
 -13  -5  10    0.95    0.47
 -13  -5  10    1.16    0.34
 -13   5  10    0.92    0.32
 -11  -5  10    0.27    0.28
 -11  -5  10    0.07    0.39
  11   5 -10    0.19    0.20
 -11   5  10    0.15    0.28
   9  -5 -10    0.49    0.26
  -9  -5  10    0.43    0.39
  -9  -5  10    0.55    0.26
   9   5 -10    0.42    0.16
  -9   5  10    0.28    0.26
  -9   5  10    0.44    0.26
  -7  -5  10    0.72    0.23
  -7  -5  10    0.39    0.33
   7  -5 -10    0.53    0.26
  -7  -5  10    0.44    0.24
  -7   5  10    0.55    0.24
  -7   5  10    0.69    0.25
  -5  -5  10    0.58    0.24
  -5  -5  10    0.47    0.32
   5  -5 -10    0.23    0.26
  -5  -5  10    0.39    0.21
  -5   5  10    0.46    0.22
  -3  -5  10    1.27    0.32
  -3  -5  10    1.10    0.26
   3  -5 -10    0.86    0.29
  -3   5  10    0.83    0.24
   1  -5 -10    6.48    0.63
  -1  -5  10    7.68    0.57
  -1  -5  10    7.69    0.61
  -1   5  10    7.93    0.54
   1  -5  10    2.18    0.31
   1  -5  10    2.50    0.35
   1   5  10    2.37    0.28
   3  -5  10    1.05    0.29
   3  -5  10    1.06    0.25
   3   5  10    0.83    0.24
   5  -5  10    1.44    0.19
   5  -5  10    1.64    0.29
  -5  -5 -10    1.55    0.39
  -5   5 -10    1.26    0.33
   5   5  10    1.41    0.26
   7  -5  10    6.79    0.48
   7  -5  10    6.93    0.57
  -7  -5 -10    6.43    0.70
   7   5  10    6.98    0.55
  -7   5 -10    6.11    0.65
  -9  -5 -10    2.59    0.57
   9  -5  10    3.25    0.38
   9  -5  10    2.84    0.31
  -9   5 -10    2.83    0.47
   9   5  10    2.45    0.38
 -11  -5 -10   -0.05    0.58
  11  -5  10    1.49    0.32
  11  -5  10    1.03    0.28
  11   5  10    0.95    0.35
 -11   5 -10    1.41    0.46
  13  -5  10    0.39    0.31
  13  -5  10    1.11    0.31
 -13  -5 -10    0.67    0.63
  13   5  10    0.27    0.39
 -13   5 -10    0.90    0.51
 -15  -5 -10    1.63    0.69
  15  -5  10    1.01    0.38
  15   5  10    1.12    0.47
 -15   5 -10    2.08    0.64
  17  -5  10    0.16    0.43
 -17  -5 -10    0.35    0.70
 -17   5 -10    1.74    0.57
  17   5  10    0.73    0.50
  19  -5  10   -0.61    0.46
 -19  -5 -10    0.54    0.77
 -19   5 -10    1.22    0.64
  19   5  10   -0.12    0.52
 -22  -6  10    0.39    0.42
 -20   6  10    0.55    0.39
 -18  -6  10   -0.08    0.37
 -18  -6  10   -0.30    0.53
  18  -6 -10    0.64    0.31
 -18   6  10    0.37    0.36
 -16  -6  10   -0.13    0.49
 -16  -6  10    0.13    0.33
  16  -6 -10    0.41    0.27
 -16   6  10   -0.26    0.34
  14  -6 -10    0.05    0.23
 -14  -6  10   -0.35    0.45
 -14  -6  10    0.17    0.32
 -14   6  10    0.27    0.32
 -12  -6  10    0.38    0.30
 -12  -6  10    0.47    0.46
 -12   6  10    0.31    0.32
  10  -6 -10    3.51    0.48
 -10  -6  10    3.08    0.54
 -10  -6  10    4.03    0.40
 -10   6  10    4.98    0.45
 -10   6  10    4.04    0.42
   8  -6 -10    0.43    0.29
  -8  -6  10    0.30    0.25
  -8  -6  10    0.47    0.37
  -8  -6  10    0.29    0.25
  -8   6  10    0.36    0.26
  -8   6  10    0.54    0.25
   6  -6 -10    0.41    0.29
  -6  -6  10    0.75    0.25
  -6  -6  10    0.24    0.33
  -6  -6  10    0.83    0.26
  -6   6  10    0.57    0.24
  -4  -6  10    0.25    0.32
  -4  -6  10    0.35    0.26
   4  -6 -10    0.33    0.30
  -4   6  10    0.09    0.23
   2  -6 -10    0.27    0.28
  -2  -6  10    0.24    0.25
  -2  -6  10    0.09    0.29
  -2   6  10    0.09    0.22
   0  -6 -10    3.74    0.45
   0  -6  10    3.57    0.47
   0  -6  10    3.31    0.41
   0   6  10    4.16    0.38
  -2  -6 -10    0.96    0.32
   2  -6  10    0.89    0.29
   2  -6  10    0.64    0.24
   2   6  10    0.55    0.23
   4  -6  10    0.43    0.25
  -4  -6 -10    0.42    0.34
  -4  -6 -10    0.37    0.32
   4   6  10    0.71    0.25
   6  -6  10    1.43    0.30
  -6  -6 -10    1.77    0.40
   6  -6  10    1.41    0.21
  -6  -6 -10    1.22    0.42
   6   6  10    1.60    0.30
  -6   6 -10    1.79    0.39
  -8  -6 -10    6.76    0.77
  -8  -6 -10    6.76    0.72
   8  -6  10    7.29    0.61
   8  -6  10    7.30    0.52
  -8   6 -10    7.27    0.71
   8   6  10    7.07    0.60
 -10  -6 -10    4.77    0.71
  10  -6  10    4.53    0.46
 -10  -6 -10    5.32    0.61
  10  -6  10    4.97    0.54
  10   6  10    5.11    0.57
 -10   6 -10    5.29    0.67
  12  -6  10    0.12    0.28
 -12  -6 -10    0.84    0.39
  12  -6  10   -0.01    0.26
 -12  -6 -10    0.25    0.61
  12   6  10    0.52    0.38
 -12   6 -10    0.57    0.47
  14  -6  10    0.18    0.31
 -14  -6 -10    0.44    0.63
  14  -6  10    0.49    0.33
  14   6  10    0.29    0.41
 -14   6 -10    1.52    0.56
 -16  -6 -10    0.84    0.69
  16  -6  10    0.27    0.38
 -16   6 -10    1.87    0.65
  16   6  10   -0.03    0.44
  18  -6  10    0.37    0.47
 -18  -6 -10   -0.33    0.70
  18   6  10   -0.03    0.51
 -18   6 -10    2.19    0.61
 -21  -7  10   -0.11    0.41
 -19  -7  10   -0.37    0.63
  19  -7 -10    0.08    0.31
 -19   7  10    0.36    0.37
 -17  -7  10   -0.35    0.55
  17  -7 -10    0.53    0.28
 -17   7  10    0.25    0.38
 -15  -7  10   -0.23    0.33
 -15  -7  10    0.35    0.52
  15  -7 -10    0.11    0.26
 -15   7  10   -0.29    0.33
 -13  -7  10    0.24    0.32
  13  -7 -10    0.39    0.23
 -13  -7  10   -0.03    0.48
 -13   7  10    0.24    0.35
 -11  -7  10   -0.05    0.29
 -11  -7  10   -0.32    0.43
 -11   7  10   -0.40    0.32
 -11   7  10   -0.71    0.29
   9  -7 -10    0.65    0.32
  -9  -7  10    0.57    0.30
  -9  -7  10    0.42    0.42
  -9   7  10    0.74    0.28
  -9   7  10    0.52    0.31
  -7  -7  10   -0.01    0.27
  -7  -7  10   -0.28    0.36
   7  -7 -10   -0.16    0.29
  -7   7  10   -0.01    0.26
  -7   7  10   -0.04    0.24
  -5  -7  10    2.19    0.33
   5  -7 -10    1.54    0.38
  -5  -7  10    1.68    0.40
   5   7 -10    1.71    0.23
  -5   7  10    1.57    0.28
  -5   7  10    1.98    0.29
  -3  -7  10    0.62    0.32
  -3  -7  10    1.09    0.29
   3  -7 -10    0.39    0.31
  -3   7  10    0.47    0.25
   1  -7 -10    0.61    0.32
  -1  -7  10    0.42    0.26
  -1  -7  10    0.60    0.30
  -1   7  10    0.46    0.23
   1  -7  10    3.25    0.43
  -1  -7 -10    3.88    0.47
   1  -7  10    3.71    0.47
   1   7  10    4.10    0.39
   3  -7  10    2.26    0.36
   3  -7  10    1.77    0.31
  -3  -7 -10    1.47    0.38
   3   7  10    2.00    0.29
  -5  -7 -10   -0.05    0.36
   5  -7  10   -0.33    0.23
  -5  -7 -10    0.02    0.34
   5   7  10   -0.12    0.25
  -5   7 -10   -0.09    0.30
  -7  -7 -10    0.24    0.37
  -7  -7 -10    0.43    0.44
   7  -7  10    0.30    0.28
   7   7  10    0.30    0.28
  -7   7 -10    0.83    0.39
   9  -7  10    0.44    0.24
  -9  -7 -10    0.51    0.51
   9  -7  10    0.62    0.32
  -9  -7 -10    1.20    0.43
  -9   7 -10    0.97    0.43
   9   7  10    0.69    0.34
 -11  -7 -10    2.22    0.63
  11  -7  10    2.90    0.36
 -11  -7 -10    2.72    0.53
  11  -7  10    3.44    0.46
 -11   7 -10    3.37    0.57
  11   7  10    4.22    0.50
  13  -7  10    0.43    0.32
  13  -7  10   -0.14    0.24
 -13  -7 -10    0.25    0.62
 -13   7 -10    0.43    0.50
  13   7  10    0.23    0.44
 -15  -7 -10   -0.76    0.64
  15  -7  10   -0.06    0.33
  15   7  10   -0.30    0.43
 -15   7 -10    1.38    0.57
 -17  -7 -10   -0.58    0.67
  17  -7  10   -0.25    0.42
  17   7  10   -0.20    0.47
 -17   7 -10    1.87    0.58
  19  -7  10    0.18    0.50
 -19   7 -10    2.17    0.67
 -20   8  10    0.22    0.40
 -18  -8  10   -0.09    0.60
  18  -8 -10    0.74    0.31
 -18   8  10    0.16    0.39
  16  -8 -10    0.81    0.30
 -16  -8  10   -0.02    0.54
 -16  -8  10    0.66    0.38
 -16   8  10    0.73    0.37
 -14  -8  10   -0.13    0.34
  14  -8 -10    0.59    0.26
 -14  -8  10   -0.10    0.51
 -14   8  10    0.05    0.35
 -12  -8  10    0.21    0.50
 -12   8  10   -0.34    0.35
  10  -8 -10    0.64    0.34
 -10  -8  10   -0.13    0.45
 -10   8  10   -0.03    0.34
 -10   8  10   -0.06    0.29
   8  -8 -10    0.13    0.35
  -8  -8  10   -0.07    0.30
  -8  -8  10   -0.19    0.42
  -8   8  10   -0.22    0.26
  -8   8  10   -0.70    0.27
  -6  -8  10    1.19    0.44
   6  -8 -10    1.41    0.39
  -6   8  10    1.03    0.30
  -6   8  10    1.16    0.28
   6   8 -10    1.57    0.23
   4  -8 -10    3.85    0.50
  -4  -8  10    3.38    0.50
  -4  -8  10    4.36    0.47
  -4   8  10    4.16    0.36
   4   8 -10    3.55    0.33
  -4   8  10    3.33    0.41
  -2  -8  10    3.44    0.44
   2  -8 -10    2.72    0.45
  -2  -8  10    3.48    0.51
  -2   8  10    3.42    0.40
   0  -8 -10    5.27    0.61
   0  -8  10    5.29    0.54
   0  -8  10    5.80    0.59
   0   8  10    6.86    0.50
   2  -8  10    3.56    0.49
   2  -8  10    3.17    0.40
  -2  -8 -10    2.86    0.47
   2   8  10    3.39    0.37
   4  -8  10    0.14    0.26
  -4  -8 -10   -0.07    0.36
   4  -8  10    0.15    0.31
   4   8  10    0.18    0.26
  -6  -8 -10    1.46    0.55
   6  -8  10    2.54    0.39
  -6  -8 -10    2.21    0.50
  -6   8 -10    2.86    0.49
   6   8  10    2.65    0.37
  -8  -8 -10    2.29    0.49
  -8  -8 -10    0.82    0.48
   8  -8  10    1.58    0.37
   8   8  10    2.02    0.39
  -8   8 -10    1.88    0.48
  10  -8  10    1.96    0.39
 -10  -8 -10    1.40    0.55
 -10  -8 -10    1.87    0.50
 -10   8 -10    1.96    0.51
  10   8  10    2.36    0.44
  12  -8  10    0.38    0.32
 -12  -8 -10    0.33    0.58
 -12   8 -10    0.83    0.48
  12   8  10    0.34    0.41
  14  -8  10    0.08    0.32
 -14  -8 -10   -0.25    0.64
 -14   8 -10    0.68    0.53
  14   8  10    0.04    0.46
 -16  -8 -10   -0.68    0.65
 -16   8 -10    1.66    0.61
  16   8  10    0.36    0.51
 -18  -8 -10   -0.72    0.70
 -18   8 -10    1.22    0.56
 -21   9  10    0.25    0.42
 -17  -9  10    0.47    0.62
  17  -9 -10    1.10    0.31
 -17   9  10    0.22    0.40
 -15  -9  10   -0.15    0.55
  15  -9 -10    0.98    0.29
 -15   9  10    0.26    0.37
 -13  -9  10    0.05    0.55
  13  -9 -10    0.31    0.25
 -13   9  10    0.11    0.35
 -11  -9  10    0.73    0.54
 -11   9  10    0.81    0.35
 -11   9  10    0.93    0.36
   9  -9 -10    0.48    0.39
  -9  -9  10    0.71    0.52
  -9   9  10    0.62    0.30
   9   9 -10    0.66    0.24
  -9   9  10    0.74    0.33
   7  -9 -10    2.88    0.49
  -7  -9  10    2.81    0.56
  -7  -9  10    2.24    0.38
  -7   9  10    2.43    0.36
   7   9 -10    2.52    0.30
  -5  -9  10    2.98    0.52
   5  -9 -10    2.89    0.51
  -5  -9  10    3.11    0.42
  -5   9  10    2.55    0.36
  -5   9  10    3.39    0.36
  -3  -9  10    3.30    0.48
  -3  -9  10    3.94    0.45
   3  -9 -10    3.03    0.51
  -3   9  10    3.17    0.37
  -1  -9  10    1.28    0.34
  -1  -9  10    1.31    0.38
   1  -9 -10    1.79    0.43
  -1   9  10    1.45    0.30
  -1  -9 -10    2.28    0.46
   1  -9  10    1.77    0.38
   1  -9  10    1.58    0.35
   1   9  10    1.75    0.31
  -3  -9 -10   10.92    0.95
   3  -9  10   12.30    0.88
   3  -9  10   12.37    0.86
   3   9  10   12.18    0.81
   5  -9  10    1.47    0.36
  -5  -9 -10    1.46    0.47
   5   9  10    1.05    0.32
   7  -9  10    0.73    0.35
  -7  -9 -10    1.52    0.49
   7   9  10    1.05    0.34
  -7   9 -10    1.07    0.45
  -9  -9 -10    1.41    0.50
   9  -9  10    0.79    0.36
  -9   9 -10    1.04    0.45
   9   9  10    1.19    0.39
 -11  -9 -10    1.79    0.53
 -11  -9 -10    0.63    0.67
  11  -9  10    1.43    0.38
 -11   9 -10    1.93    0.52
  11   9  10    1.31    0.42
  13  -9  10    0.66    0.36
 -13  -9 -10    0.04    0.59
  13   9  10    0.50    0.45
 -13   9 -10    1.25    0.50
 -15  -9 -10   -0.31    0.62
 -15   9 -10    1.48    0.57
  15   9  10    0.82    0.51
 -17  -9 -10   -0.85    0.71
 -17   9 -10    1.98    0.64
  17   9  10    0.37    0.55
 -20  10  10    0.25    0.42
  18  10 -10    0.77    0.38
  16 -10 -10    0.68    0.30
 -16 -10  10   -0.11    0.62
 -16  10  10    0.18    0.39
 -14 -10  10   -0.18    0.59
  14 -10 -10    0.37    0.26
 -14  10  10   -0.35    0.38
  14  10 -10    0.74    0.28
 -12 -10  10    0.00    0.55
 -12  10  10    0.20    0.37
  12  10 -10    0.24    0.25
 -10 -10  10    0.12    0.55
  10 -10 -10    0.33    0.38
  10  10 -10    0.03    0.23
 -10  10  10    0.13    0.32
 -10  10  10    0.03    0.31
  -8 -10  10    2.32    0.60
  -8 -10  10    2.38    0.44
   8 -10 -10    2.37    0.49
  -8  10  10    1.99    0.38
   8  10 -10    1.84    0.28
  -8  10  10    2.26    0.37
  -6 -10  10    1.95    0.54
  -6 -10  10    2.46    0.44
   6 -10 -10    2.75    0.50
   6  10 -10    2.02    0.29
  -6  10  10    1.95    0.35
  -6  10  10    2.05    0.36
  -4 -10  10    0.78    0.43
  -4 -10  10    0.89    0.38
   4 -10 -10    1.08    0.46
  -4  10  10    1.10    0.30
   4  10 -10    1.02    0.26
  -2 -10  10    0.21    0.34
   2 -10 -10    0.61    0.42
  -2 -10  10    0.28    0.38
  -2  10  10    0.51    0.27
   0 -10  10    1.69    0.40
   0 -10  10    2.26    0.44
   0 -10 -10    2.55    0.51
   0  10  10    2.31    0.36
   2 -10  10    1.44    0.40
   2 -10  10    2.46    0.43
  -2 -10 -10    1.61    0.49
   2  10  10    2.64    0.37
   4 -10  10    3.54    0.48
  -4 -10 -10    4.14    0.62
   4 -10  10    4.21    0.52
   4  10  10    3.10    0.41
   6 -10  10    0.94    0.38
  -6 -10 -10    1.69    0.53
   6  10  10    0.85    0.33
  -6  10 -10    2.27    0.50
  -8 -10 -10    2.67    0.59
   8 -10  10    1.04    0.38
  -8  10 -10    1.37    0.49
   8  10  10    0.86    0.37
  10 -10  10    3.86    0.52
 -10 -10 -10    5.46    0.72
  10  10  10    3.86    0.53
 -10  10 -10    4.94    0.71
  12 -10  10    0.52    0.36
 -12 -10 -10    1.15    0.73
  12  10  10    0.38    0.43
 -12  10 -10    0.86    0.47
  14 -10  10    0.35    0.39
 -14  10 -10    1.07    0.53
  14  10  10    0.49    0.47
  16  10  10    0.37    0.52
 -16  10 -10    2.19    0.90
 -19  11  10   -0.06    0.42
  19  11 -10    0.09    0.38
 -17  11  10    0.28    0.40
  15 -11 -10    1.18    0.31
 -15 -11  10    0.45    0.68
 -15  11  10    0.14    0.38
  15  11 -10    1.06    0.32
 -13 -11  10    0.25    0.63
  13 -11 -10    0.34    0.26
 -13  11  10   -0.02    0.37
  13  11 -10    0.51    0.27
 -11 -11  10    0.56    0.63
 -11  11  10    0.65    0.33
  11  11 -10    0.42    0.27
 -11  11  10    0.78    0.37
   9 -11 -10    0.26    0.42
  -9 -11  10    0.33    0.56
   9  11 -10    0.43    0.26
  -9  11  10    0.15    0.31
  -9  11  10    0.37    0.33
  -7 -11  10    1.74    0.44
   7 -11 -10    1.45    0.51
  -7 -11  10    2.32    0.59
  -7  11  10    1.82    0.35
  -7  11  10    1.46    0.35
   7  11 -10    1.76    0.30
  -5 -11  10    3.42    0.59
   5 -11 -10    2.03    0.56
  -5 -11  10    3.36    0.51
  -5  11  10    2.63    0.38
   5  11 -10    2.43    0.33
   3 -11 -10    0.87    0.50
  -3 -11  10    1.10    0.43
  -3 -11  10    1.54    0.47
  -3  11  10    1.55    0.31
  -1 -11  10    5.58    0.68
   1 -11 -10    6.22    0.79
  -1 -11  10    5.60    0.63
   1  11 -10    5.51    0.49
  -1  11  10    4.80    0.53
   1 -11  10    0.25    0.38
   1 -11  10    0.50    0.40
  -1 -11 -10    0.36    0.47
   1  11  10    0.10    0.30
   3 -11  10    0.99    0.39
  -3 -11 -10    0.97    0.52
   3 -11  10    1.37    0.40
   3  11  10    1.07    0.34
  -5 -11 -10    2.52    0.62
   5 -11  10    1.64    0.42
   5  11  10    1.65    0.35
   7 -11  10    0.60    0.39
  -7 -11 -10    1.87    0.59
   7  11  10    1.10    0.36
  -7  11 -10    1.37    0.49
   9 -11  10    1.18    0.42
  -9 -11 -10    2.91    0.64
  -9  11 -10    1.92    0.52
   9  11  10    1.29    0.41
 -11 -11 -10    2.05    0.62
  11 -11  10    1.15    0.40
 -11  11 -10    2.19    0.51
  11  11  10    1.36    0.44
  13 -11  10    1.56    0.43
  13  11  10    2.27    0.52
  15  11  10    1.21    0.54
  18  12 -10   -0.01    0.38
  16  12 -10    0.52    0.35
 -16  12  10   -0.45    0.38
 -14 -12  10    0.47    0.69
  14 -12 -10    0.73    0.29
 -14  12  10    0.13    0.39
  14  12 -10    0.51    0.30
 -12 -12  10   -0.35    0.62
 -12  12  10    0.01    0.38
  12  12 -10    0.35    0.28
 -10 -12  10    0.24    0.62
  10 -12 -10    0.20    0.42
  10  12 -10    1.00    0.29
 -10  12  10    0.55    0.37
 -10  12  10    0.44    0.32
  -8 -12  10    2.37    0.65
   8 -12 -10    1.86    0.53
  -8  12  10    1.47    0.38
  -8  12  10    1.45    0.34
   8  12 -10    1.61    0.31
  -6 -12  10    1.29    0.47
   6 -12 -10    0.82    0.53
  -6 -12  10    0.93    0.55
  -6  12  10    1.25    0.33
  -6  12  10    1.28    0.35
   4 -12 -10    1.44    0.55
  -4 -12  10    1.05    0.50
  -4 -12  10    1.69    0.45
  -4  12  10    1.06    0.30
  -4  12  10    1.46    0.34
   4  12 -10    0.93    0.29
   2 -12 -10    4.40    0.67
  -2 -12  10    3.02    0.52
  -2 -12  10    3.90    0.57
  -2  12  10    2.61    0.37
   2  12 -10    3.64    0.38
   0 -12  10    1.51    0.47
   0 -12  10    2.24    0.47
   0 -12 -10    2.38    0.61
   0  12  10    1.75    0.34
   2 -12  10    4.78    0.63
   2 -12  10    3.96    0.58
  -2 -12 -10    6.03    0.80
   2  12  10    4.79    0.52
  -4 -12 -10    0.93    0.60
   4 -12  10    0.05    0.40
   4  12  10    0.59    0.33
  -6 -12 -10    1.47    0.64
   6 -12  10    0.83    0.43
   6  12  10    1.30    0.34
  -6  12 -10    0.71    0.47
  -8 -12 -10    1.93    0.69
   8 -12  10    0.43    0.41
  -8  12 -10    0.98    0.48
   8  12  10    0.35    0.34
 -10 -12 -10    1.34    0.65
  10 -12  10    0.39    0.40
  10  12  10    0.86    0.39
  12 -12  10    2.04    0.47
  12  12  10    2.83    0.52
  14  12  10    1.37    0.53
 -17  13  10   -0.21    0.42
 -15  13  10   -0.30    0.40
  15  13 -10    0.13    0.34
 -13 -13  10    0.35    0.71
  13 -13 -10    0.65    0.28
  13  13 -10    0.39    0.32
 -13  13  10   -0.39    0.36
 -11 -13  10   -0.04    0.66
 -11  13  10   -0.06    0.33
   9 -13 -10    0.55    0.48
  -9 -13  10    0.33    0.66
  -9  13  10    0.86    0.33
   9  13 -10    1.28    0.29
   7 -13 -10    1.22    0.55
  -7 -13  10    0.31    0.49
  -7 -13  10    1.11    0.61
   7  13 -10    0.91    0.29
  -7  13  10    0.68    0.31
   5 -13 -10    0.84    0.59
  -5 -13  10    0.28    0.47
  -5 -13  10    0.87    0.54
  -5  13  10    0.76    0.31
   5  13 -10    0.54    0.28
  -3 -13  10    2.50    0.55
  -3 -13  10    1.84    0.54
   3 -13 -10    2.80    0.64
   3  13 -10    2.82    0.35
  -3  13  10    2.02    0.34
  -1 -13  10    2.33    0.53
  -1 -13  10    1.96    0.51
   1 -13 -10    3.28    0.70
   1  13 -10    2.69    0.36
  -1  13  10    1.97    0.34
   1 -13  10    3.39    0.53
  -1 -13 -10    3.77    0.73
   1 -13  10    2.86    0.54
   1  13  10    2.64    0.38
   3 -13  10    2.65    0.50
   3 -13  10    2.28    0.52
  -3 -13 -10    3.98    0.75
   3  13  10    2.44    0.42
  -5 -13 -10    1.52    0.72
   5 -13  10    0.05    0.43
   5  13  10    0.35    0.33
  -7 -13 -10    1.82    0.71
   7 -13  10    0.90    0.45
   7  13  10    0.86    0.34
  -9 -13 -10    0.40    0.69
   9 -13  10    0.17    0.41
   9  13  10    0.95    0.39
 -11 -13 -10    2.71    0.80
  11 -13  10    0.91    0.46
  13 -13  10    0.19    0.40
  14  14 -10    0.16    0.33
 -14  14  10   -0.37    0.39
 -12 -14  10   -0.76    0.72
  12  14 -10    0.58    0.31
 -12  14  10   -0.05    0.35
  10 -14 -10   -1.12    0.46
 -10 -14  10   -0.33    0.69
 -10  14  10   -0.02    0.31
 -10  14  10    0.37    0.38
  -8 -14  10    0.06    0.64
   8 -14 -10   -0.46    0.51
   8  14 -10    0.59    0.28
  -8  14  10    0.39    0.31
  -8  14  10    0.02    0.35
  -6 -14  10    0.24    0.52
   6 -14 -10    0.88    0.59
  -6 -14  10    1.19    0.58
  -6  14  10   -0.10    0.35
   6  14 -10    1.03    0.29
  -6  14  10    0.78    0.32
  -4 -14  10    0.79    0.54
  -4 -14  10   -0.01    0.49
   4 -14 -10    1.08    0.66
   4  14 -10    0.66    0.29
  -4  14  10    0.60    0.30
  -2 -14  10   -0.18    0.46
   2 -14 -10    1.98    0.68
  -2 -14  10    0.91    0.49
  -2  14  10    0.61    0.29
   2  14 -10    1.54    0.32
   0 -14  10    1.03    0.52
   0 -14  10    1.98    0.53
   0 -14 -10    3.16    0.72
   0  14 -10    1.69    0.35
   0  14  10    1.26    0.31
  -2 -14 -10    1.02    0.70
   2 -14  10    0.06    0.49
   2  14  10    0.36    0.27
   4 -14  10    0.09    0.45
  -4 -14 -10    1.11    0.74
   4  14  10    0.60    0.44
   6 -14  10    0.04    0.46
  -6 -14 -10    1.68    0.78
   8 -14  10   -0.62    0.42
  -8 -14 -10    1.80    0.76
  10 -14  10    0.18    0.43
 -10 -14 -10    1.46    0.79
  13  15 -10    0.33    0.34
 -11  15  10   -0.29    0.38
  11  15 -10   -0.25    0.33
  -9 -15  10   -0.41    0.66
   9 -15 -10   -1.14    0.51
   9  15 -10    0.41    0.30
  -9  15  10   -0.47    0.43
   7 -15 -10   -0.20    0.58
  -7 -15  10   -0.17    0.52
  -7 -15  10    0.32    0.63
   7  15 -10    0.27    0.28
  -7  15  10   -0.12    0.36
  -5 -15  10   -0.66    0.50
   5 -15 -10    0.42    0.62
  -5 -15  10    0.12    0.73
  -5  15  10   -0.17    0.33
   5  15 -10    0.48    0.29
   3 -15 -10   -0.32    0.68
  -3 -15  10   -0.36    0.50
   3  15 -10    0.23    0.31
   1 -15 -10    1.10    0.74
  -1 -15  10    0.01    0.51
   1 -15  10    0.69    0.54
  -1 -15 -10    1.26    0.75
   3 -15  10    0.16    0.50
  -3 -15 -10    0.90    0.76
   5 -15  10    0.09    0.49
  -5 -15 -10    1.53    0.76
  -7 -15 -10    0.29    0.78
   7 -15  10   -0.55    0.49
  -9 -15 -10    0.70    0.89
  12  16 -10    0.19    0.35
 -12  16  10   -0.03    0.38
  10  16 -10   -0.46    0.30
 -10  16  10    0.06    0.37
   8  16 -10    0.34    0.29
  -8  16  10    0.10    0.38
  -6 -16  10   -0.67    0.54
  -6  16  10    0.15    0.38
   6  16 -10    0.01    0.29
  -4 -16  10   -0.76    0.52
   4  16 -10    0.52    0.32
   2 -16 -10   -0.16    0.75
  -2 -16  10    0.13    0.56
   2  16 -10    0.58    0.33
   0 -16 -10   -0.42    1.01
   0 -16  10   -0.29    0.54
   0  16 -10    0.46    0.33
  -2  16 -10    0.23    0.34
   9  17 -10   -0.01    0.32
  -9  17  10    0.38    0.45
   5  17 -10   -0.16    0.32
  -5  17  10   -0.42    0.37
   3  17 -10    0.49    0.34
   1  17 -10    0.22    0.33
  -1  17 -10   -0.16    0.34
   4  18 -10    0.11    0.34
  -4  18  10    0.46    0.41
 -22   0  11   -0.73    0.57
 -20   0  11    0.04    0.36
 -20   0  11   -0.27    0.54
  20   0 -11   -0.12    0.36
 -18   0  11   -0.43    0.47
  18   0 -11    0.83    0.34
 -18   0  11    0.09    0.33
 -16   0  11   -0.44    0.46
 -16   0  11    0.15    0.31
  16   0 -11    0.28    0.28
  14   0 -11   -0.01    0.24
 -14   0  11   -0.16    0.43
 -14   0  11   -0.17    0.28
  12   0 -11    0.03    0.20
 -12   0  11   -0.24    0.36
 -12   0  11    0.08    0.26
 -10   0  11   -0.12    0.24
 -10   0  11   -0.24    0.33
  10   0 -11   -0.14    0.15
  -8   0  11   -0.22    0.22
  -8   0  11   -0.36    0.30
  -6   0  11    0.04    0.26
  -6   0  11    0.09    0.18
  -6   0  11    0.57    0.21
  -6   0  11    0.28    0.20
  -4   0  11   -0.43    0.17
  -4   0  11    0.21    0.14
  -4   0  11   -0.07    0.25
  -2   0  11    0.01    0.16
  -2   0  11    0.36    0.24
  -2   0  11    0.09    0.19
   0   0  11    0.13    0.24
   0   0  11    0.09    0.19
   0   0  11    0.22    0.16
  -2   0 -11    0.03    0.26
   2   0  11   -0.01    0.19
   2   0  11    0.05    0.17
  -4   0 -11    0.15    0.30
   4   0  11    0.04    0.20
   4   0  11    0.22    0.19
   6   0  11   -0.05    0.20
  -6   0 -11   -0.13    0.32
   6   0  11   -0.08    0.20
   8   0  11    0.01    0.23
  -8   0 -11   -0.03    0.34
   8   0  11   -0.07    0.22
  10   0  11    0.07    0.24
  10   0  11    0.09    0.26
 -10   0 -11   -0.34    0.37
  12   0  11    0.06    0.30
 -12   0 -11   -0.08    0.48
  12   0  11    0.19    0.27
  14   0  11    0.04    0.35
 -14   0 -11    0.59    0.51
 -16   0 -11    0.21    0.56
  16   0  11   -0.09    0.40
  18   0  11    0.14    0.45
 -18   0 -11    1.11    0.65
 -23   1  11    0.00    0.42
 -21  -1  11   -0.79    0.57
  21  -1 -11    0.30    0.39
 -21   1  11   -0.02    0.37
  21   1 -11    0.67    0.42
  19  -1 -11    0.45    0.34
 -19  -1  11   -0.30    0.35
 -19  -1  11   -0.69    0.53
  19   1 -11    0.45    0.35
 -19   1  11   -0.73    0.49
  17  -1 -11    0.51    0.30
 -17  -1  11    0.00    0.32
 -17  -1  11   -0.48    0.51
 -17   1  11   -0.05    0.31
 -17   1  11   -0.40    0.43
  17   1 -11    0.62    0.32
 -15  -1  11    0.49    0.32
 -15  -1  11   -0.39    0.46
  15  -1 -11    0.68    0.27
 -15   1  11    0.24    0.31
 -15   1  11   -0.78    0.42
  15   1 -11    0.42    0.27
 -13  -1  11   -0.08    0.40
  13  -1 -11    0.05    0.22
 -13  -1  11   -0.16    0.28
  13   1 -11    0.05    0.22
 -13   1  11   -0.26    0.28
 -13   1  11   -0.34    0.37
 -11  -1  11    0.68    0.26
 -11  -1  11    0.17    0.39
  11  -1 -11    0.86    0.19
 -11   1  11    0.24    0.24
 -11   1  11    0.65    0.28
  11   1 -11    0.92    0.21
  -9  -1  11    0.70    0.35
  -9  -1  11    0.66    0.24
  -9   1  11   -0.13    0.22
  -9   1  11    0.49    0.26
  -7  -1  11    3.59    0.34
  -7  -1  11    3.26    0.48
  -7   1  11    2.76    0.36
  -7   1  11    3.33    0.36
  -5  -1  11    4.59    0.48
  -5  -1  11    3.54    0.34
  -5  -1  11    4.06    0.37
  -5   1  11    4.16    0.38
  -5   1  11    4.29    0.37
  -5   1  11    4.47    0.41
  -3  -1  11    2.35    0.28
  -3  -1  11    2.56    0.34
  -3  -1  11    1.76    0.22
  -3   1  11    2.31    0.30
  -3   1  11    2.12    0.26
  -3   1  11    2.33    0.26
  -1  -1  11    1.40    0.18
  -1  -1  11    1.47    0.24
  -1  -1  11    1.47    0.30
  -1   1  11    1.04    0.24
  -1   1  11    1.50    0.22
  -1   1  11    1.30    0.24
   1  -1  11   17.97    1.09
   1  -1  11   17.46    1.06
   1   1  11   18.25    1.04
   1   1  11   17.50    1.06
  -3  -1 -11    0.68    0.32
   3  -1  11    0.49    0.16
   3  -1  11    0.58    0.22
   3   1  11    0.80    0.21
  -3   1 -11    0.68    0.29
   3   1  11    0.59    0.22
   5  -1  11    4.88    0.41
  -5  -1 -11    4.73    0.56
   5  -1  11    4.80    0.44
  -5   1 -11    5.13    0.55
   5   1  11    4.95    0.43
   5   1  11    4.82    0.45
   7  -1  11    1.05    0.24
  -7  -1 -11    0.85    0.38
   7  -1  11    0.97    0.25
  -7   1 -11    0.85    0.35
   7   1  11    0.85    0.25
   7   1  11    0.70    0.24
   9  -1  11    4.90    0.48
   9  -1  11    5.06    0.47
  -9  -1 -11    4.16    0.63
  -9   1 -11    4.43    0.56
   9   1  11    5.14    0.49
   9   1  11    4.99    0.48
  11  -1  11    0.27    0.28
 -11  -1 -11   -0.08    0.46
  11  -1  11    0.27    0.26
  11   1  11    0.39    0.27
 -11   1 -11    0.03    0.40
  11   1  11    0.30    0.30
 -13  -1 -11    0.03    0.49
  13  -1  11   -0.13    0.27
  13  -1  11    0.19    0.34
 -13   1 -11    0.00    0.50
  13   1  11    0.02    0.35
  13   1  11   -0.17    0.28
  15  -1  11    1.54    0.43
 -15  -1 -11    0.85    0.60
  15   1  11    1.30    0.43
 -15   1 -11    1.99    0.56
  17  -1  11   -0.05    0.42
 -17  -1 -11    0.53    0.63
 -17   1 -11    0.78    0.60
  17   1  11   -0.63    0.39
 -19  -1 -11    0.12    0.69
  19  -1  11    0.04    0.47
 -19   1 -11    1.25    0.70
  19   1  11   -0.41    0.47
  22   2 -11    0.86    0.55
 -20  -2  11   -0.13    0.60
  20  -2 -11    0.77    0.37
  20   2 -11    0.46    0.40
 -18  -2  11    0.43    0.35
  18  -2 -11    1.32    0.35
 -18  -2  11    0.18    0.55
  18   2 -11    0.88    0.36
 -16  -2  11   -0.31    0.32
 -16  -2  11   -0.06    0.50
  16  -2 -11    0.68    0.29
  16   2 -11    0.54    0.29
 -16   2  11    0.32    0.33
 -14  -2  11   -0.01    0.30
  14  -2 -11    0.33    0.24
 -14  -2  11   -0.62    0.43
  14   2 -11    0.37    0.25
 -14   2  11   -0.56    0.33
 -14   2  11    0.08    0.31
 -12  -2  11   -0.43    0.39
  12  -2 -11    0.00    0.18
 -12  -2  11   -0.10    0.27
 -12   2  11    0.20    0.34
  12   2 -11   -0.22    0.20
 -12   2  11   -0.11    0.28
 -10  -2  11    0.72    0.26
 -10  -2  11    0.90    0.39
 -10   2  11    0.70    0.31
  10   2 -11    0.64    0.19
 -10   2  11    0.96    0.26
  -8  -2  11    0.82    0.36
  -8  -2  11    0.78    0.24
  -8   2  11    1.00    0.24
  -8   2  11    0.90    0.26
  -8   2  11    0.70    0.28
  -6  -2  11    0.24    0.19
  -6  -2  11    0.02    0.31
  -6  -2  11    0.41    0.18
  -6   2  11    0.51    0.22
  -6   2  11    0.18    0.20
  -6   2  11    0.09    0.20
  -6   2  11    0.36    0.21
  -4  -2  11    0.97    0.17
  -4  -2  11    0.71    0.31
  -4   2  11    1.00    0.23
  -4   2  11    0.92    0.24
  -4   2  11    0.45    0.18
  -2  -2  11    5.04    0.49
  -2  -2  11    4.88    0.36
  -2  -2  11    5.26    0.43
  -2   2  11    4.81    0.42
  -2   2  11    4.90    0.42
  -2   2  11    4.70    0.41
   0  -2  11    9.83    0.70
   0  -2  11    9.64    0.60
   0  -2  11   10.06    0.66
   0   2  11    9.69    0.65
   0   2  11   10.17    0.64
   2  -2  11   16.05    0.99
   2  -2  11   15.33    0.95
  -2  -2 -11   13.80    0.98
   2  -2  11   16.00    0.90
   2   2  11   15.29    0.94
   2   2  11   15.95    0.93
   4  -2  11    2.30    0.25
  -4  -2 -11    3.13    0.42
   4  -2  11    2.81    0.37
   4   2  11    2.91    0.36
  -4   2 -11    3.55    0.42
   4   2  11    3.01    0.36
   6  -2  11    3.54    0.36
  -6  -2 -11    4.16    0.55
   6  -2  11    3.54    0.40
   6   2  11    3.56    0.40
  -6   2 -11    3.94    0.51
   6   2  11    3.34    0.40
   8  -2  11    1.60    0.25
  -8  -2 -11    0.95    0.43
   8  -2  11    1.57    0.28
   8   2  11    1.08    0.28
   8   2  11    1.50    0.29
  -8   2 -11    1.37    0.37
  10  -2  11    1.52    0.30
  10  -2  11    1.59    0.30
 -10  -2 -11    1.09    0.50
 -10   2 -11    1.09    0.42
  10   2  11    1.76    0.32
  10   2  11    2.02    0.33
  12  -2  11    2.21    0.38
  12  -2  11    2.99    0.40
 -12  -2 -11    2.77    0.61
 -12   2 -11    2.82    0.56
  12   2  11    2.55    0.42
  12   2  11    2.47    0.37
  14  -2  11    2.88    0.48
 -14  -2 -11    2.75    0.66
  14  -2  11    2.31    0.44
  14   2  11    2.89    0.47
 -14   2 -11    2.66    0.68
 -16  -2 -11    1.04    0.65
  16  -2  11    0.61    0.43
 -16   2 -11    1.46    0.55
  16   2  11    0.83    0.43
 -18  -2 -11    0.49    0.70
  18  -2  11    0.39    0.46
  18   2  11   -0.20    0.47
 -18   2 -11    0.58    0.59
 -23   3  11   -0.05    0.43
 -21  -3  11   -0.54    0.67
  19  -3 -11    0.83    0.34
 -19  -3  11   -0.54    0.36
 -19  -3  11    0.25    0.59
  19   3 -11    0.86    0.38
 -19   3  11    0.25    0.36
  17  -3 -11    1.75    0.34
 -17  -3  11    0.67    0.56
  17   3 -11    2.10    0.36
  15  -3 -11    0.52    0.26
 -15  -3  11    0.13    0.48
  15   3 -11    0.34    0.27
 -15   3  11    0.29    0.32
 -13  -3  11    0.12    0.45
  13  -3 -11    0.20    0.21
 -13  -3  11    0.12    0.30
  13   3 -11    0.15    0.22
 -13   3  11    0.34    0.30
 -13   3  11   -0.13    0.42
 -11  -3  11    0.01    0.27
 -11  -3  11    0.14    0.41
 -11   3  11    0.12    0.30
  11   3 -11    0.41    0.19
 -11   3  11    0.33    0.26
  -9  -3  11    1.25    0.26
  -9  -3  11    1.57    0.41
  -9   3  11    1.45    0.28
  -9   3  11    0.77    0.28
   9   3 -11    0.89    0.18
  -7  -3  11    3.97    0.38
  -7  -3  11    4.23    0.53
   7  -3 -11    4.38    0.42
  -7   3  11    4.32    0.41
   7   3 -11    4.01    0.31
  -7   3  11    3.83    0.37
  -5  -3  11    4.97    0.53
  -5  -3  11    5.32    0.42
  -5  -3  11    4.54    0.35
  -5   3  11    5.16    0.42
  -3  -3  11    3.51    0.38
  -3  -3  11    2.94    0.45
  -3   3  11    3.64    0.37
  -3   3  11    3.56    0.37
  -1  -3  11    1.60    0.27
  -1  -3  11    1.29    0.31
  -1   3  11    1.44    0.26
  -1   3  11    1.55    0.25
  -1  -3 -11   12.20    0.81
   1  -3  11   12.55    0.84
   1  -3  11   12.81    0.81
   1   3  11   12.60    0.78
   1   3  11   12.46    0.80
   3  -3  11   23.45    1.41
   3  -3  11   24.86    1.36
  -3  -3 -11   23.52    1.45
   3   3  11   24.05    1.39
   3   3  11   24.35    1.41
   5  -3  11    3.04    0.31
   5  -3  11    3.31    0.39
  -5  -3 -11    2.58    0.44
   5   3  11    2.94    0.32
  -5   3 -11    3.01    0.41
   5   3  11    3.05    0.39
  -7  -3 -11    8.89    0.79
   7  -3  11    9.32    0.68
   7   3  11    9.40    0.67
  -7   3 -11    8.98    0.76
   7   3  11   10.34    0.68
   9  -3  11    1.60    0.27
   9  -3  11    1.42    0.29
  -9  -3 -11    1.24    0.48
  -9   3 -11    1.01    0.39
   9   3  11    0.98    0.30
   9   3  11    1.46    0.31
  11  -3  11    2.71    0.37
  11  -3  11    2.48    0.36
 -11  -3 -11    1.92    0.58
 -11   3 -11    2.70    0.53
  11   3  11    2.74    0.38
  11   3  11    2.24    0.40
  13  -3  11    4.49    0.52
 -13  -3 -11    3.91    0.73
  13  -3  11    4.63    0.50
  13   3  11    4.81    0.54
  13   3  11    5.12    0.56
 -13   3 -11    4.91    0.71
 -15  -3 -11    0.31    0.62
  15  -3  11    0.52    0.40
 -15   3 -11    2.14    0.66
  15   3  11    0.72    0.44
  17  -3  11    2.28    0.50
 -17  -3 -11    1.99    0.74
  17   3  11    2.98    0.54
 -17   3 -11    2.52    0.64
 -19  -3 -11    0.85    0.77
  19  -3  11   -0.19    0.49
  19   3  11   -0.32    0.49
 -19   3 -11    1.43    0.64
 -22   4  11    0.23    0.40
 -20  -4  11   -0.03    0.62
  20  -4 -11    0.64    0.36
 -20  -4  11    0.06    0.39
 -20   4  11    0.21    0.38
  18  -4 -11    1.28    0.33
 -18  -4  11    0.35    0.56
 -16  -4  11    0.50    0.52
  16  -4 -11    1.15    0.29
 -16  -4  11    1.06    0.36
  16   4 -11    1.49    0.41
  14  -4 -11    0.28    0.23
 -14  -4  11    0.26    0.32
 -14  -4  11   -0.22    0.46
 -14   4  11    0.46    0.32
  14   4 -11    0.15    0.24
 -12  -4  11    0.21    0.44
 -12  -4  11    0.43    0.29
  12   4 -11    0.56    0.21
 -12   4  11    0.41    0.30
 -10  -4  11    1.69    0.44
 -10  -4  11    1.57    0.30
 -10   4  11    1.44    0.29
  10   4 -11    1.88    0.22
 -10   4  11    1.04    0.32
   8  -4 -11    2.58    0.34
  -8  -4  11    3.01    0.45
  -8  -4  11    2.66    0.31
   8   4 -11    2.32    0.26
  -8   4  11    3.50    0.31
  -8   4  11    2.74    0.33
  -6  -4  11    7.71    0.69
  -6  -4  11    9.46    0.58
   6  -4 -11    7.18    0.61
  -6   4  11    7.61    0.57
  -4  -4  11    3.14    0.36
  -4  -4  11    3.69    0.49
  -4   4  11    4.21    0.38
  -2  -4  11    9.26    0.70
  -2  -4  11    9.41    0.66
  -2   4  11    9.05    0.63
  -2   4  11    9.78    0.64
   0  -4  11    6.18    0.52
   0  -4  11    6.45    0.56
   0   4  11    5.88    0.47
   0   4  11    6.41    0.51
   2  -4  11   11.47    0.76
  -2  -4 -11   10.67    0.76
   2  -4  11   11.31    0.78
   2   4  11   11.22    0.74
   2   4  11   11.76    0.73
   4  -4  11   11.67    0.69
   4  -4  11   11.82    0.77
  -4  -4 -11   10.63    0.81
   4   4  11   11.45    0.74
   4   4  11   11.54    0.76
  -6  -4 -11    5.76    0.62
   6  -4  11    4.75    0.48
   6  -4  11    4.57    0.39
   6   4  11    4.63    0.48
  -6   4 -11    5.24    0.58
   6   4  11    4.55    0.46
   8  -4  11    7.96    0.62
  -8  -4 -11    7.54    0.78
  -8   4 -11    7.88    0.71
   8   4  11    7.91    0.62
   8   4  11    8.00    0.62
  10  -4  11    4.30    0.40
 -10  -4 -11    2.53    0.62
  10  -4  11    3.93    0.46
  10   4  11    3.70    0.43
 -10   4 -11    2.68    0.52
  10   4  11    4.21    0.44
  12  -4  11    1.67    0.34
 -12  -4 -11    1.47    0.62
  12  -4  11    1.15    0.33
  12   4  11    1.61    0.39
 -12   4 -11    1.23    0.52
  12   4  11    1.43    0.34
  14  -4  11    5.33    0.57
 -14  -4 -11    4.38    0.83
  14  -4  11    5.01    0.62
 -14   4 -11    6.63    0.83
  14   4  11    5.64    0.65
  16  -4  11    1.47    0.45
 -16  -4 -11    1.76    0.73
  16   4  11    2.06    0.52
 -16   4 -11    2.47    0.57
  18  -4  11    1.94    0.54
 -18  -4 -11    1.56    0.78
  18   4  11    2.23    0.58
 -18   4 -11    3.13    0.68
 -21  -5  11    0.56    0.43
 -21   5  11    0.61    0.43
 -19  -5  11    0.26    0.59
  19  -5 -11    0.90    0.32
 -19   5  11   -0.15    0.37
  17  -5 -11    1.87    0.33
 -17  -5  11    0.30    0.53
 -17  -5  11    0.58    0.38
 -17   5  11    0.86    0.37
  15  -5 -11    1.38    0.29
 -15  -5  11    0.52    0.50
 -15  -5  11    0.67    0.35
 -15   5  11    1.07    0.34
 -13  -5  11    1.38    0.51
  13  -5 -11    1.70    0.28
 -13  -5  11    1.34    0.35
 -13   5  11    2.31    0.37
 -11  -5  11    1.88    0.34
 -11  -5  11    1.37    0.47
 -11   5  11    1.43    0.32
 -11   5  11    1.30    0.35
   9  -5 -11    3.32    0.38
  -9  -5  11    3.39    0.36
  -9  -5  11    2.69    0.49
  -9   5  11    2.48    0.35
  -9   5  11    2.94    0.35
   7  -5 -11    6.97    0.59
  -7  -5  11    7.87    0.54
  -7  -5  11    6.68    0.51
  -7  -5  11    5.93    0.66
  -7   5  11    7.34    0.51
  -7   5  11    6.37    0.54
  -5  -5  11    4.64    0.53
   5  -5 -11    3.92    0.48
  -5  -5  11    3.25    0.36
  -5   5  11    4.39    0.40
  -3  -5  11    7.73    0.65
   3  -5 -11    7.05    0.65
  -3  -5  11    8.78    0.60
  -3   5  11    8.37    0.58
  -1  -5  11    8.09    0.65
  -1  -5  11    7.87    0.60
  -1   5  11    8.19    0.57
   1  -5  11    8.54    0.65
   1  -5  11    8.32    0.63
   1   5  11    8.47    0.59
   3  -5  11    3.66    0.46
   3  -5  11    3.60    0.42
  -3  -5 -11    3.65    0.47
   3   5  11    3.53    0.38
   3   5  11    3.50    0.41
  -5  -5 -11    6.57    0.64
   5  -5  11    6.32    0.56
   5  -5  11    6.34    0.45
  -5   5 -11    6.99    0.62
   5   5  11    6.82    0.53
   5   5  11    6.16    0.54
  -7  -5 -11    7.01    0.71
   7  -5  11    6.56    0.47
   7  -5  11    5.78    0.56
   7   5  11    6.10    0.56
   7   5  11    5.64    0.55
  -7   5 -11    6.93    0.66
   9  -5  11    0.94    0.30
  -9  -5 -11    0.33    0.51
   9  -5  11    0.95    0.24
   9   5  11    0.65    0.31
  -9   5 -11    1.05    0.40
  11  -5  11    0.23    0.27
  11  -5  11    0.73    0.31
 -11  -5 -11    0.65    0.58
 -11   5 -11    0.63    0.45
  11   5  11    0.10    0.34
 -13  -5 -11    3.28    0.75
  13  -5  11    2.78    0.43
  13  -5  11    3.78    0.46
 -13   5 -11    3.52    0.66
  13   5  11    3.12    0.49
  15  -5  11    3.26    0.51
 -15  -5 -11    1.77    0.72
  15   5  11    3.69    0.53
 -15   5 -11    4.89    0.74
  17  -5  11    1.75    0.50
 -17  -5 -11    1.29    0.74
  17   5  11    1.42    0.49
 -17   5 -11    2.49    0.60
  19  -5  11    0.25    0.51
 -19  -5 -11    0.26    0.77
 -19   5 -11    2.52    0.69
 -22   6  11    0.63    0.46
 -20  -6  11    0.26    0.39
  18  -6 -11    1.13    0.32
 -18  -6  11    0.16    0.58
 -18   6  11    0.26    0.39
  16  -6 -11    1.53    0.32
 -16  -6  11    0.52    0.36
 -16  -6  11    0.78    0.54
 -16   6  11    0.90    0.36
 -14  -6  11    2.26    0.38
  14  -6 -11    2.45    0.33
 -14  -6  11    1.36    0.54
 -14   6  11    2.06    0.38
 -12  -6  11    1.25    0.34
 -12  -6  11    1.25    0.51
 -12   6  11    1.74    0.36
  10  -6 -11    1.31    0.37
 -10  -6  11    1.36    0.32
 -10  -6  11    1.37    0.48
 -10   6  11    1.66    0.34
 -10   6  11    1.36    0.33
  -8  -6  11    2.20    0.47
  -8  -6  11    3.19    0.35
  -8  -6  11    3.08    0.36
   8  -6 -11    3.03    0.41
  -8   6  11    3.63    0.37
  -8   6  11    2.90    0.35
  -6  -6  11    7.42    0.56
   6  -6 -11    7.26    0.62
  -6  -6  11    6.86    0.52
  -6  -6  11    6.19    0.67
  -6   6  11    6.97    0.50
  -6   6  11    6.27    0.53
  -4  -6  11    8.25    0.59
   4  -6 -11    6.83    0.65
  -4  -6  11    7.21    0.66
  -4   6  11    7.50    0.56
   2  -6 -11    9.05    0.75
  -2  -6  11   10.09    0.70
  -2  -6  11    9.60    0.74
  -2   6  11   10.40    0.66
   0  -6  11   14.17    0.92
   0  -6 -11   13.83    0.98
   0  -6  11   14.40    0.96
   0   6  11   15.31    0.90
  -2  -6 -11    8.34    0.73
   2  -6  11    9.26    0.69
   2  -6  11    9.55    0.67
   2   6  11    8.88    0.62
   4  -6  11   12.96    0.89
  -4  -6 -11   14.32    0.98
   4   6  11   13.81    0.87
  -6  -6 -11    3.41    0.52
  -6  -6 -11    3.24    0.50
   6  -6  11    4.12    0.35
   6  -6  11    3.71    0.48
  -6   6 -11    4.19    0.53
   6   6  11    4.69    0.45
  -8  -6 -11    4.46    0.57
   8  -6  11    4.62    0.42
  -8  -6 -11    4.56    0.63
   8  -6  11    4.15    0.52
   8   6  11    4.95    0.53
  -8   6 -11    4.36    0.62
  10  -6  11    4.91    0.55
 -10  -6 -11    5.04    0.62
  10  -6  11    4.62    0.48
 -10  -6 -11    4.71    0.72
 -10   6 -11    5.11    0.64
  10   6  11    4.69    0.53
 -12  -6 -11    1.13    0.65
  12  -6  11    2.25    0.40
 -12   6 -11    2.10    0.56
  12   6  11    2.80    0.47
  14  -6  11    1.11    0.36
  14  -6  11    1.15    0.35
 -14  -6 -11    1.88    0.68
 -14   6 -11    1.74    0.59
  14   6  11    0.85    0.45
 -16  -6 -11    0.63    0.70
  16  -6  11    0.50    0.41
  16   6  11    0.64    0.48
 -16   6 -11    1.83    0.66
 -18  -6 -11    0.68    0.73
  18  -6  11    0.93    0.50
 -18   6 -11    3.26    0.66
  18   6  11    1.16    0.55
 -19  -7  11    0.79    0.41
 -19   7  11    0.68    0.42
 -17  -7  11    0.85    0.59
 -17  -7  11    0.70    0.39
  17  -7 -11    1.27    0.32
 -17   7  11    0.81    0.40
 -15  -7  11    0.40    0.35
 -15  -7  11    0.02    0.53
  15  -7 -11    0.77    0.28
 -15   7  11    0.88    0.37
 -13  -7  11    1.32    0.35
 -13  -7  11    0.98    0.53
 -13   7  11    1.15    0.37
 -11  -7  11    0.63    0.48
 -11  -7  11    0.77    0.33
 -11   7  11    0.84    0.36
 -11   7  11    0.71    0.33
   9  -7 -11    2.71    0.42
  -9  -7  11    2.13    0.50
  -9  -7  11    2.72    0.36
  -9   7  11    2.36    0.35
  -9   7  11    2.43    0.37
  -7  -7  11    8.31    0.61
   7  -7 -11    7.08    0.67
  -7  -7  11    6.64    0.72
  -7   7  11    7.50    0.56
  -7   7  11    6.52    0.57
  -5  -7  11    4.81    0.60
  -5  -7  11    5.69    0.51
   5  -7 -11    4.96    0.55
   5   7 -11    4.32    0.40
  -5   7  11    5.00    0.46
  -3  -7  11    5.51    0.50
   3  -7 -11    4.34    0.52
  -3  -7  11    4.57    0.56
  -3   7  11    4.97    0.45
  -1  -7  11    6.88    0.62
  -1  -7  11    7.50    0.59
   1  -7 -11    6.10    0.65
  -1   7  11    7.35    0.54
   1  -7  11   11.49    0.80
   1  -7  11   10.95    0.77
  -1  -7 -11   10.77    0.84
   1   7  11   10.33    0.73
  -3  -7 -11    8.08    0.74
   3  -7  11    8.30    0.65
   3  -7  11    8.70    0.69
   3   7  11    8.99    0.62
   5  -7  11    1.25    0.31
  -5  -7 -11    0.91    0.38
  -5  -7 -11    0.85    0.40
  -5   7 -11    0.80    0.36
   5   7  11    1.56    0.31
  -7  -7 -11    1.44    0.50
   7  -7  11    1.91    0.37
  -7  -7 -11    1.88    0.47
   7   7  11    2.06    0.36
  -7   7 -11    2.23    0.47
  -9  -7 -11    6.13    0.76
   9  -7  11    6.31    0.63
  -9  -7 -11    5.70    0.82
   9   7  11    7.57    0.65
  -9   7 -11    6.12    0.72
  11  -7  11    1.35    0.37
 -11  -7 -11    2.44    0.51
 -11  -7 -11    1.14    0.63
 -11   7 -11    1.97    0.53
  11   7  11    1.70    0.43
 -13  -7 -11    0.20    0.64
  13  -7  11    0.68    0.35
 -13   7 -11    0.72    0.53
  13   7  11    0.87    0.45
 -15  -7 -11    0.35    0.66
  15  -7  11    0.97    0.53
 -15   7 -11    2.33    0.63
  15   7  11    1.54    0.55
  17  -7  11    0.33    0.58
 -17  -7 -11    0.20    0.72
  17   7  11    0.76    0.54
 -20  -8  11    0.35    0.44
 -20   8  11    0.30    0.42
 -18  -8  11    0.42    0.77
  18  -8 -11    0.99    0.34
 -18  -8  11    0.24    0.41
 -18   8  11    0.06    0.40
  16  -8 -11    0.56    0.29
 -16  -8  11    0.14    0.55
 -16  -8  11    0.22    0.38
 -16   8  11    1.06    0.39
  14  -8 -11    2.44    0.33
 -14  -8  11    1.60    0.59
 -14  -8  11    1.72    0.39
 -14   8  11    1.90    0.41
 -12  -8  11    0.62    0.53
 -12   8  11    1.16    0.40
  10  -8 -11    1.25    0.38
 -10  -8  11    0.91    0.50
 -10   8  11    1.14    0.37
 -10   8  11    0.91    0.33
  -8  -8  11    1.54    0.36
   8  -8 -11    1.12    0.40
  -8  -8  11    0.79    0.47
  -8   8  11    1.12    0.33
  -8   8  11    1.72    0.33
   6  -8 -11    4.06    0.52
  -6  -8  11    3.97    0.56
  -6   8  11    4.01    0.45
   6   8 -11    4.05    0.37
   4  -8 -11    3.02    0.47
  -4  -8  11    2.97    0.47
  -4  -8  11    3.61    0.47
  -4   8  11    3.18    0.36
   4   8 -11    3.11    0.31
  -2  -8  11    2.31    0.37
  -2  -8  11    1.76    0.39
   2  -8 -11    1.68    0.41
  -2   8  11    1.82    0.31
   0  -8  11    5.35    0.53
   0  -8 -11    5.57    0.63
   0  -8  11    4.97    0.58
   0   8  11    5.10    0.48
   2  -8  11    1.86    0.36
   2  -8  11    2.05    0.39
  -2  -8 -11    2.64    0.47
   2   8  11    2.39    0.33
  -4  -8 -11    2.47    0.50
   4  -8  11    2.77    0.39
   4  -8  11    2.87    0.43
   4   8  11    2.63    0.36
  -6  -8 -11    0.38    0.43
   6  -8  11    0.63    0.31
  -6   8 -11    0.44    0.39
   6   8  11    0.35    0.31
  -8  -8 -11    0.74    0.47
   8  -8  11    0.29    0.33
  -8  -8 -11    0.06    0.50
  -8   8 -11    0.57    0.43
   8   8  11    0.66    0.36
 -10  -8 -11    3.11    0.55
 -10  -8 -11    1.35    0.55
  10  -8  11    2.04    0.42
 -10   8 -11    3.36    0.57
  10   8  11    2.16    0.44
 -12  -8 -11    1.04    0.64
  12  -8  11    2.03    0.41
 -12  -8 -11    2.75    0.58
  12   8  11    1.61    0.47
 -12   8 -11    2.02    0.55
  14  -8  11    1.20    0.38
 -14  -8 -11    0.50    0.65
  14   8  11    1.40    0.51
 -14   8 -11    2.45    0.64
 -16  -8 -11   -0.28    0.70
 -16   8 -11    2.01    0.65
  16   8  11    0.80    0.54
 -18  -8 -11   -0.56    0.74
 -19   9  11    0.26    0.43
  17  -9 -11    0.29    0.30
 -17  -9  11    0.28    0.62
 -17   9  11   -0.01    0.38
  15  -9 -11    0.88    0.29
 -15  -9  11    0.48    0.59
 -15   9  11    1.00    0.40
 -13  -9  11    0.85    0.59
 -13   9  11    1.46    0.42
 -11  -9  11    0.18    0.52
 -11   9  11    0.42    0.37
 -11   9  11    0.15    0.33
  -9  -9  11    0.46    0.51
   9  -9 -11    0.99    0.40
  -9   9  11    0.68    0.31
  -9   9  11    0.15    0.35
   9   9 -11    0.74    0.24
  -7  -9  11   -0.07    0.46
  -7  -9  11   -0.12    0.29
   7  -9 -11    0.17    0.39
  -7   9  11    0.09    0.28
   7   9 -11   -0.04    0.22
  -5  -9  11    1.18    0.37
   5  -9 -11    1.24    0.43
  -5  -9  11    1.08    0.45
  -5   9  11    1.15    0.31
   5   9 -11    1.18    0.25
  -3  -9  11    0.42    0.34
  -3  -9  11    0.84    0.40
   3  -9 -11    0.73    0.42
  -3   9  11    0.67    0.29
   3   9 -11    1.34    0.25
   1  -9 -11    2.43    0.48
  -1  -9  11    2.34    0.41
  -1  -9  11    2.63    0.44
  -1   9  11    2.23    0.34
   1  -9  11    5.81    0.63
   1  -9  11    5.95    0.59
  -1  -9 -11    5.64    0.69
   1   9  11    6.11    0.54
  -3  -9 -11    3.45    0.54
   3  -9  11    2.55    0.42
   3  -9  11    2.85    0.44
   3   9  11    2.62    0.37
   5  -9  11    2.10    0.40
  -5  -9 -11    2.28    0.54
   5   9  11    2.43    0.39
  -7  -9 -11    0.54    0.48
   7  -9  11    0.26    0.34
  -7   9 -11    0.96    0.46
   7   9  11    0.44    0.34
  -9  -9 -11    1.22    0.50
   9  -9  11    0.96    0.38
  -9   9 -11    1.26    0.47
   9   9  11    0.61    0.37
  11  -9  11    0.86    0.38
 -11  -9 -11    2.14    0.55
 -11   9 -11    1.66    0.54
  11   9  11    1.14    0.43
  13  -9  11    0.59    0.37
  13   9  11    0.76    0.43
 -13   9 -11    1.31    0.54
 -15  -9 -11   -0.41    0.76
 -15   9 -11    1.64    0.62
  15   9  11    0.16    0.50
 -17  -9 -11   -0.81    0.75
 -17   9 -11    2.39    0.68
 -20  10  11   -0.25    0.44
 -18  10  11   -0.41    0.40
 -16 -10  11   -0.50    0.61
  16 -10 -11    0.25    0.29
  16  10 -11    0.25    0.31
 -16  10  11   -0.14    0.40
  14 -10 -11    1.21    0.30
 -14 -10  11    0.26    0.61
 -14  10  11    1.00    0.43
  14  10 -11    1.39    0.31
 -12 -10  11    0.47    0.58
  12  10 -11    0.32    0.26
  10 -10 -11    0.12    0.41
 -10 -10  11    0.20    0.54
 -10  10  11    0.21    0.36
  10  10 -11    0.17    0.24
 -10  10  11    0.10    0.31
   8 -10 -11    0.47    0.44
  -8 -10  11    0.49    0.38
  -8 -10  11    0.59    0.54
  -8  10  11    0.69    0.32
   8  10 -11    0.53    0.23
  -8  10  11    0.15    0.33
  -6 -10  11   -0.01    0.48
  -6 -10  11    0.48    0.37
   6 -10 -11    0.52    0.45
  -6  10  11    0.22    0.30
  -6  10  11    0.21    0.32
   6  10 -11    0.33    0.25
  -4 -10  11    5.19    0.60
  -4 -10  11    5.22    0.70
   4 -10 -11    5.62    0.73
   4  10 -11    4.90    0.45
  -4  10  11    4.76    0.51
  -2 -10  11    2.32    0.48
   2 -10 -11    2.15    0.51
  -2 -10  11    2.85    0.46
  -2  10  11    2.86    0.37
   0 -10  11    1.18    0.42
   0 -10 -11    1.23    0.47
   0 -10  11    0.77    0.37
   0  10  11    0.91    0.33
   2 -10  11   -0.25    0.34
  -2 -10 -11    0.67    0.45
   2 -10  11    0.21    0.37
   2  10  11    0.47    0.31
  -4 -10 -11    0.62    0.48
   4 -10  11    0.32    0.35
   4  10  11    0.46    0.31
  -6 -10 -11    3.16    0.61
   6 -10  11    1.42    0.41
  -6  10 -11    2.16    0.53
   6  10  11    2.50    0.40
   8 -10  11    0.01    0.35
  -8 -10 -11    0.90    0.53
  -8  10 -11    0.87    0.47
   8  10  11    0.49    0.37
  10 -10  11    1.23    0.41
 -10 -10 -11    2.81    0.62
  10  10  11    1.23    0.44
 -10  10 -11    1.78    0.51
  12 -10  11   -0.22    0.35
 -12 -10 -11    1.01    0.56
  12  10  11    0.23    0.45
 -12  10 -11    0.71    0.50
  14 -10  11    0.22    0.38
  14  10  11    0.34    0.48
 -14  10 -11    1.31    0.54
  16  10  11    0.51    0.50
 -16  10 -11    1.50    0.61
 -19  11  11   -0.01    0.42
  19  11 -11    0.11    0.39
 -17  11  11   -0.22    0.41
 -15 -11  11   -0.29    0.63
  15 -11 -11    0.46    0.29
 -15  11  11   -0.05    0.39
  15  11 -11    0.37    0.29
 -13 -11  11   -0.45    0.62
 -13  11  11    0.16    0.41
  13  11 -11    0.04    0.26
 -11 -11  11   -0.75    0.57
  11  11 -11    0.18    0.25
 -11  11  11    0.29    0.39
 -11  11  11   -0.45    0.31
   9 -11 -11   -0.23    0.45
  -9 -11  11    0.06    0.56
  -9  11  11    0.19    0.31
   9  11 -11    0.16    0.24
  -9  11  11    0.10    0.36
  -7 -11  11   -0.04    0.51
  -7 -11  11   -0.19    0.40
   7 -11 -11    0.05    0.46
  -7  11  11    0.05    0.34
  -7  11  11    0.12    0.30
  -5 -11  11    0.61    0.41
  -5 -11  11    0.98    0.50
   5 -11 -11    0.69    0.51
  -5  11  11    0.77    0.31
  -3 -11  11   -0.25    0.42
   3 -11 -11   -0.08    0.48
  -3 -11  11   -0.41    0.37
  -3  11  11    0.20    0.27
  -1 -11  11   -0.13    0.39
  -1 -11  11    0.08    0.38
   1 -11 -11    0.63    0.49
  -1  11  11    0.16    0.28
   1 -11  11    0.15    0.39
   1 -11  11    0.78    0.41
  -1 -11 -11    0.54    0.50
   1  11  11    0.52    0.33
   3 -11  11    0.28    0.39
  -3 -11 -11    1.03    0.54
   3 -11  11    0.44    0.39
   3  11  11    0.25    0.32
   5 -11  11    0.99    0.41
  -5 -11 -11    2.01    0.59
   5  11  11    1.86    0.37
  -7 -11 -11    0.48    0.56
   7 -11  11    0.29    0.39
  -7  11 -11    0.17    0.46
   7  11  11    0.23    0.35
  -9 -11 -11    0.80    0.58
   9 -11  11    0.24    0.38
   9  11  11   -0.22    0.37
  -9  11 -11    0.04    0.43
  11 -11  11   -0.46    0.35
 -11 -11 -11    0.76    0.59
 -11  11 -11    0.92    0.49
  11  11  11    0.23    0.41
  13 -11  11   -0.13    0.37
  13  11  11    0.57    0.45
 -13  11 -11    0.94    0.51
  15  11  11   -0.12    0.50
  18  12 -11    0.23    0.38
 -18  12  11    0.18    0.42
 -16  12  11    0.32    0.43
  16  12 -11    0.33    0.33
 -14 -12  11   -0.71    0.68
  14 -12 -11    0.51    0.29
 -14  12  11   -0.19    0.41
  14  12 -11    0.10    0.29
 -12 -12  11    0.33    0.67
  12  12 -11    0.50    0.28
 -12  12  11   -0.32    0.38
  10 -12 -11   -0.07    0.43
 -10 -12  11   -0.63    0.59
 -10  12  11   -0.49    0.31
 -10  12  11   -0.14    0.37
  10  12 -11   -0.05    0.26
  -8 -12  11   -0.04    0.57
   8 -12 -11    0.45    0.51
  -8  12  11    0.08    0.30
   8  12 -11    0.35    0.26
  -8  12  11   -0.23    0.36
  -6 -12  11   -0.05    0.51
  -6 -12  11    0.08    0.42
   6 -12 -11    0.17    0.49
  -6  12  11    0.32    0.29
  -6  12  11   -0.19    0.31
   6  12 -11    0.21    0.25
  -4 -12  11    1.68    0.53
   4 -12 -11    1.85    0.58
  -4 -12  11    2.07    0.46
  -4  12  11    1.19    0.33
   4  12 -11    1.67    0.32
  -2 -12  11   -0.24    0.42
  -2 -12  11    0.41    0.44
   2 -12 -11    0.72    0.55
  -2  12  11    0.09    0.26
   0 -12  11    0.61    0.42
   0 -12  11   -0.30    0.42
   0 -12 -11    0.93    0.57
   0  12  11    0.63    0.29
   2 -12  11   -0.18    0.37
  -2 -12 -11    0.14    0.55
   2 -12  11   -0.47    0.38
   2  12  11    0.33    0.33
   4 -12  11    0.32    0.42
  -4 -12 -11    1.42    0.60
   4  12  11    0.33    0.34
  -6 -12 -11    1.32    0.60
   6 -12  11    0.00    0.42
  -6  12 -11    0.21    0.45
   6  12  11    0.14    0.32
   8 -12  11   -0.36    0.39
  -8 -12 -11    1.56    0.64
  -8  12 -11    0.83    0.47
   8  12  11    0.04    0.35
 -10 -12 -11    1.84    0.67
  10 -12  11   -0.28    0.37
  10  12  11    0.16    0.38
 -10  12 -11    0.95    0.58
  12 -12  11    0.08    0.39
  12  12  11    0.67    0.45
  14 -12  11   -0.12    0.44
  14  12  11    0.62    0.49
  15  13 -11    0.09    0.33
 -15  13  11   -0.31    0.39
  13 -13 -11    0.50    0.28
 -13 -13  11   -0.11    0.93
  13  13 -11    0.35    0.31
 -13  13  11   -0.20    0.40
 -11 -13  11   -0.03    0.66
 -11  13  11   -0.19    0.31
 -11  13  11    0.02    0.36
  11  13 -11    0.29    0.28
  -9 -13  11   -0.85    0.57
   9 -13 -11   -0.01    0.49
  -9  13  11   -0.07    0.30
  -9  13  11   -0.05    0.36
   9  13 -11    0.51    0.27
   7 -13 -11    0.10    0.55
  -7 -13  11   -0.51    0.46
  -7 -13  11   -0.30    0.55
  -7  13  11   -0.02    0.29
  -7  13  11    0.15    0.35
  -5 -13  11    0.36    0.48
  -5 -13  11    0.14    0.51
   5 -13 -11    1.09    0.59
   5  13 -11    0.27    0.27
  -5  13  11    0.30    0.29
  -3 -13  11   -0.02    0.43
  -3 -13  11    0.64    0.50
   3 -13 -11    0.28    0.60
  -3  13  11    0.38    0.28
  -1 -13  11    0.34    0.48
  -1 -13  11    0.49    0.45
   1 -13 -11    1.03    0.61
  -1  13  11    0.29    0.27
  -1 -13 -11    0.95    0.62
   1 -13  11    0.27    0.45
   1 -13  11    0.64    0.44
   1  13  11    0.29    0.27
   3 -13  11   -0.13    0.43
  -3 -13 -11    1.30    0.66
   3 -13  11    0.01    0.42
   3  13  11    0.13    0.33
  -5 -13 -11    0.56    0.65
   5 -13  11   -0.34    0.42
  -5  13 -11    0.23    0.44
   5  13  11    0.08    0.33
  -7 -13 -11    0.97    0.70
   7 -13  11   -0.13    0.44
   7  13  11    1.00    0.37
  -9 -13 -11    0.25    0.71
   9 -13  11    0.08    0.43
   9  13  11   -0.09    0.37
 -11 -13 -11    1.30    0.78
  11 -13  11   -0.43    0.39
  11  13  11    0.22    0.40
  13 -13  11   -0.53    0.40
  14  14 -11    0.27    0.33
 -14  14  11   -0.15    0.42
  12  14 -11    0.30    0.31
 -12  14  11   -0.11    0.42
  10 -14 -11   -0.62    0.53
 -10 -14  11    0.28    0.73
 -10  14  11    0.01    0.32
   8 -14 -11    0.07    0.53
  -8 -14  11    0.11    0.65
  -8  14  11    0.10    0.30
   8  14 -11   -0.10    0.27
  -8  14  11    0.24    0.39
  -6 -14  11   -0.22    0.48
   6 -14 -11   -0.32    0.58
  -6 -14  11    0.31    0.56
   6  14 -11   -0.08    0.26
  -6  14  11   -0.01    0.34
  -6  14  11   -0.21    0.30
  -4 -14  11   -0.23    0.50
  -4 -14  11    0.38    0.51
   4 -14 -11   -0.10    0.62
  -4  14  11    0.11    0.30
   4  14 -11    0.39    0.30
   2 -14 -11    0.75    0.64
  -2 -14  11    0.29    0.49
  -2 -14  11   -0.46    0.45
   2  14 -11    0.66    0.31
  -2  14  11    0.09    0.27
   0 -14  11   -0.13    0.47
   0 -14  11   -0.03    0.45
   0 -14 -11    1.11    0.68
   0  14 -11    0.65    0.31
   0  14  11    0.38    0.27
  -2 -14 -11    1.63    0.72
   2 -14  11    0.46    0.50
   2 -14  11    0.22    0.53
   2  14  11    0.67    0.29
   4 -14  11   -0.02    0.47
  -4 -14 -11    1.25    0.75
   4  14  11    0.39    0.34
  -6 -14 -11    1.42    0.78
   6 -14  11    0.25    0.47
   6  14  11    0.98    0.40
   8 -14  11   -0.07    0.46
  -8 -14 -11    0.65    0.76
 -10 -14 -11    1.33    0.76
  10 -14  11   -0.15    0.54
  13  15 -11    0.11    0.32
 -13  15  11   -0.26    0.40
  11  15 -11    0.42    0.33
 -11  15  11    0.06    0.40
   9 -15 -11   -0.33    0.56
  -9 -15  11    0.12    0.67
  -9  15  11   -0.45    0.31
   9  15 -11    0.15    0.30
  -7 -15  11   -0.09    0.61
  -7 -15  11   -0.03    0.64
   7 -15 -11   -1.20    0.57
  -7  15  11    0.43    0.33
   7  15 -11    0.61    0.30
  -5 -15  11    0.17    0.53
  -5 -15  11   -0.02    0.56
   5 -15 -11    0.27    0.66
   5  15 -11    0.23    0.29
  -5  15  11    0.64    0.34
   3 -15 -11    0.59    0.73
  -3 -15  11   -0.58    0.50
  -3 -15  11    0.15    0.68
  -3  15  11    0.40    0.46
  -1 -15  11    0.32    0.52
   1 -15 -11    0.87    0.73
   1 -15  11    0.28    0.52
  -1 -15 -11    0.50    0.72
  -3 -15 -11    1.40    0.79
   3 -15  11    0.63    0.53
   5 -15  11    0.08    0.51
  -5 -15 -11    2.12    0.81
  -7 -15 -11    0.84    0.85
 -10  16  11    0.05    0.42
  10  16 -11    0.27    0.32
  -8  16  11    0.40    0.40
   8  16 -11    0.17    0.30
  -6 -16  11   -0.23    0.56
   6  16 -11    0.37    0.30
  -4 -16  11    0.51    0.57
   4  16 -11    0.65    0.33
  -2 -16  11   -0.38    0.55
   2  16 -11    0.00    0.32
   0  16 -11    0.72    0.34
  -9  17  11    0.44    0.46
  -5  17  11   -0.22    0.38
   5  17 -11    0.19    0.34
  -3  17  11   -0.08    0.34
   3  17 -11    0.87    0.36
   1  17 -11    0.25    0.33
   2  18 -11    0.01    0.36
   0  18 -11    0.32    0.37
 -22   0  12   -0.36    0.40
 -20   0  12   -0.40    0.56
 -20   0  12    0.04    0.37
  20   0 -12    0.44    0.38
 -18   0  12    1.30    0.55
 -18   0  12    1.59    0.38
  18   0 -12    2.93    0.41
  16   0 -12    1.98    0.34
 -16   0  12    1.45    0.50
 -16   0  12    0.96    0.34
 -14   0  12    1.52    0.34
 -14   0  12    1.81    0.48
  12   0 -12    0.72    0.23
 -12   0  12    0.70    0.29
 -12   0  12    0.16    0.39
 -10   0  12    2.98    0.32
 -10   0  12    2.15    0.43
  -8   0  12    8.40    0.59
  -8   0  12    8.20    0.68
  -6   0  12   52.32    2.71
  -6   0  12   50.72    2.71
  -6   0  12   42.68    2.74
  -4   0  12    4.29    0.35
  -4   0  12    4.16    0.44
  -2   0  12    1.84    0.22
  -2   0  12    1.57    0.26
  -2   0  12    1.85    0.31
   0   0  12   23.47    1.38
   0   0  12   24.12    1.41
   0   0  12   23.63    1.36
  -2   0 -12   38.89    2.25
   2   0  12   39.55    2.18
   2   0  12   38.38    2.21
   4   0  12   44.56    2.48
  -4   0 -12   45.72    2.56
   4   0  12   42.81    2.50
   6   0  12   11.28    0.74
   6   0  12   11.14    0.71
  -6   0 -12    9.72    0.81
   8   0  12   11.62    0.77
   8   0  12   11.38    0.80
  -8   0 -12   11.94    0.91
 -10   0 -12    0.59    0.44
  10   0  12    0.72    0.28
  10   0  12    1.05    0.31
  12   0  12    1.26    0.36
 -12   0 -12    0.59    0.52
  12   0  12    1.53    0.33
  14   0  12    1.77    0.44
  14   0  12    2.34    0.48
 -14   0 -12    2.22    0.58
 -16   0 -12    1.40    0.59
  16   0  12    0.44    0.42
  18   0  12    2.24    0.55
 -18   0 -12    2.92    0.73
  21  -1 -12    0.78    0.41
 -21  -1  12   -0.43    0.56
 -21  -1  12    0.50    0.39
 -21   1  12   -0.19    0.38
  21   1 -12    0.55    0.43
 -19  -1  12    0.92    0.38
 -19  -1  12    0.48    0.54
  19  -1 -12    1.75    0.38
 -19   1  12    0.88    0.36
 -19   1  12   -0.15    0.68
  19   1 -12    1.55    0.40
 -17  -1  12    1.17    0.52
 -17  -1  12    1.53    0.37
  17  -1 -12    2.23    0.36
  17   1 -12    2.78    0.40
 -17   1  12    1.43    0.36
 -17   1  12    1.17    0.51
  15  -1 -12    1.61    0.30
 -15  -1  12    1.52    0.49
 -15  -1  12    0.88    0.33
  15   1 -12    2.05    0.32
 -15   1  12    0.46    0.46
 -15   1  12    1.22    0.34
  13  -1 -12    1.08    0.25
 -13  -1  12    0.07    0.44
 -13  -1  12    0.41    0.31
 -13   1  12   -0.06    0.33
  13   1 -12    0.73    0.23
 -13   1  12    0.32    0.31
 -11  -1  12    1.22    0.28
 -11  -1  12    0.60    0.41
 -11   1  12    1.02    0.29
  11   1 -12    0.78    0.21
 -11   1  12    0.15    0.25
  -9  -1  12    6.04    0.63
  -9  -1  12    6.56    0.49
  -9   1  12    6.25    0.49
  -9   1  12    5.85    0.51
  -7  -1  12   11.14    0.82
  -7  -1  12   12.04    0.71
  -7   1  12   11.33    0.73
  -7   1  12   11.83    0.71
  -7   1  12   10.05    0.77
  -5  -1  12   13.73    0.90
  -5  -1  12   14.48    0.92
  -5  -1  12   16.16    1.00
  -5   1  12   15.32    0.92
  -5   1  12   17.02    0.97
  -5   1  12   15.31    0.93
  -3  -1  12    6.68    0.47
  -3  -1  12    6.97    0.51
  -3  -1  12    6.98    0.57
  -3   1  12    6.51    0.50
  -3   1  12    6.68    0.50
  -3   1  12    7.41    0.54
  -1  -1  12    7.29    0.56
  -1  -1  12    7.91    0.61
  -1  -1  12    7.89    0.51
  -1   1  12    7.71    0.53
  -1   1  12    8.07    0.56
   1  -1  12   12.15    0.78
   1  -1  12   12.32    0.82
   1   1  12   11.54    0.78
   1   1  12   12.72    0.76
   3  -1  12   12.56    0.84
  -3  -1 -12   14.01    0.92
   3   1  12   12.77    0.84
   3   1  12   13.38    0.82
  -3   1 -12   13.74    0.90
  -5  -1 -12   13.82    0.98
   5  -1  12   15.15    0.88
   5  -1  12   14.16    0.91
   5   1  12   14.17    0.91
  -5   1 -12   14.28    0.99
   5   1  12   14.71    0.89
   7  -1  12   10.74    0.70
  -7  -1 -12   10.17    0.83
   7  -1  12   10.41    0.72
  -7   1 -12   10.15    0.81
   7   1  12   10.46    0.72
   7   1  12   10.22    0.71
  -9  -1 -12    0.28    0.42
   9  -1  12    0.62    0.27
   9  -1  12    0.36    0.26
   9   1  12    0.77    0.27
   9   1  12    0.41    0.28
  -9   1 -12    0.39    0.38
  11  -1  12    0.95    0.32
 -11  -1 -12   -0.17    0.47
  11  -1  12    0.93    0.30
  11   1  12    0.92    0.31
 -11   1 -12    0.27    0.43
  11   1  12    0.96    0.34
  13  -1  12    2.90    0.43
  13  -1  12    4.21    0.48
 -13  -1 -12    3.59    0.65
  13   1  12    3.36    0.49
 -13   1 -12    3.62    0.67
  13   1  12    4.07    0.51
 -15  -1 -12    2.29    0.64
  15  -1  12    2.37    0.47
 -15   1 -12    2.66    0.60
  15   1  12    2.11    0.48
 -17  -1 -12    1.81    0.67
  17  -1  12    1.12    0.47
  17   1  12    1.42    0.51
 -17   1 -12    1.79    0.63
  19  -1  12    0.03    0.47
 -19  -1 -12    0.53    0.70
 -19   1 -12    1.65    0.70
  19   1  12    0.19    0.50
 -20  -2  12    0.32    0.38
  20  -2 -12    1.04    0.38
 -20  -2  12   -0.35    0.57
  20   2 -12    0.81    0.40
 -18  -2  12    0.51    0.57
  18  -2 -12    1.42    0.34
 -18   2  12    0.09    0.35
  18   2 -12    1.92    0.39
 -16  -2  12    2.25    0.58
  16  -2 -12    2.19    0.34
 -16  -2  12    2.21    0.39
  16   2 -12    2.67    0.36
 -16   2  12    1.67    0.38
 -14  -2  12    1.01    0.33
  14  -2 -12    1.66    0.30
 -14  -2  12    0.81    0.49
 -14   2  12    1.03    0.35
  14   2 -12    1.65    0.29
 -14   2  12    0.77    0.41
 -12  -2  12    0.89    0.47
  12  -2 -12    1.85    0.26
 -12  -2  12    1.52    0.32
 -12   2  12    1.19    0.40
 -12   2  12    1.62    0.32
  12   2 -12    1.90    0.26
 -10  -2  12    1.00    0.42
 -10  -2  12    0.36    0.28
 -10   2  12    1.45    0.32
 -10   2  12    0.72    0.33
  10   2 -12    1.37    0.21
 -10   2  12    1.12    0.29
  -8  -2  12    2.54    0.31
  -8  -2  12    2.58    0.44
  -8   2  12    2.42    0.31
  -8   2  12    2.82    0.33
  -8   2  12    2.79    0.41
  -6  -2  12    3.11    0.31
  -6  -2  12    2.79    0.30
  -6  -2  12    3.32    0.42
  -6   2  12    3.18    0.36
  -6   2  12    2.90    0.37
  -6   2  12    2.79    0.35
  -4  -2  12    6.95    0.48
  -4  -2  12    7.33    0.62
  -4   2  12    7.68    0.53
  -4   2  12    7.68    0.55
  -4   2  12    7.67    0.54
  -2  -2  12    2.14    0.35
  -2  -2  12    2.65    0.31
  -2  -2  12    2.26    0.27
  -2   2  12    2.31    0.35
  -2   2  12    2.23    0.29
  -2   2  12    2.74    0.28
   0  -2  12   15.04    0.88
   0  -2  12   15.35    0.97
   0  -2  12   14.44    0.93
   0   2  12   15.23    0.93
   0   2  12   15.24    0.91
   2  -2  12   11.99    0.71
   2  -2  12   11.57    0.76
  -2  -2 -12   10.66    0.81
   2  -2  12   11.90    0.81
   2   2  12   12.16    0.74
   2   2  12   11.56    0.75
  -4  -2 -12    7.79    0.67
   4  -2  12    7.95    0.59
  -4   2 -12    7.78    0.66
   4   2  12    8.26    0.57
   4   2  12    8.04    0.58
  -6  -2 -12    1.72    0.42
   6  -2  12    1.33    0.23
   6  -2  12    1.71    0.29
   6   2  12    1.69    0.29
  -6   2 -12    1.72    0.38
   6   2  12    1.50    0.27
   8  -2  12    4.51    0.43
   8  -2  12    4.63    0.47
  -8  -2 -12    4.57    0.58
   8   2  12    3.92    0.48
   8   2  12    4.71    0.47
  -8   2 -12    4.21    0.54
  10  -2  12    0.72    0.29
 -10  -2 -12    0.64    0.49
  10  -2  12    0.44    0.27
  10   2  12    0.45    0.28
  10   2  12    0.24    0.30
 -10   2 -12    0.67    0.40
  12  -2  12    5.11    0.58
  12  -2  12    6.10    0.60
 -12  -2 -12    5.73    0.81
  12   2  12    6.26    0.58
 -12   2 -12    5.76    0.78
  12   2  12    5.72    0.63
 -14  -2 -12    6.95    0.98
  14  -2  12    8.86    0.78
  14  -2  12   10.03    0.75
 -14   2 -12   10.31    1.03
  14   2  12    8.65    0.83
  16  -2  12    0.97    0.44
 -16  -2 -12    1.37    0.66
 -16   2 -12    2.05    0.56
  16   2  12    0.64    0.44
 -18  -2 -12    1.12    0.72
  18  -2  12   -0.17    0.45
  18   2  12   -0.04    0.48
 -18   2 -12    1.74    0.63
 -23   3  12   -0.50    0.43
  19  -3 -12    1.16    0.33
 -19  -3  12    0.47    0.38
 -19  -3  12   -0.16    0.56
 -19   3  12   -0.04    0.35
 -17  -3  12    0.36    0.57
  17  -3 -12    0.84    0.30
 -17  -3  12    0.06    0.35
  17   3 -12    0.31    0.31
 -17   3  12    0.82    0.36
  15  -3 -12    1.69    0.32
 -15  -3  12    0.84    0.53
 -15  -3  12    0.74    0.34
 -15   3  12    1.30    0.35
  15   3 -12    1.31    0.30
  13  -3 -12    0.59    0.23
 -13  -3  12    0.00    0.48
 -13  -3  12    0.06    0.31
 -13   3  12    0.72    0.33
  13   3 -12    0.90    0.24
 -11  -3  12    0.62    0.45
 -11  -3  12    0.95    0.30
 -11   3  12    0.67    0.29
  11   3 -12    1.06    0.21
 -11   3  12    0.25    0.36
  -9  -3  12    2.47    0.47
  -9   3  12    2.74    0.34
   9   3 -12    2.56    0.28
  -9   3  12    2.03    0.34
  -7  -3  12    1.31    0.26
  -7  -3  12    1.10    0.37
  -7  -3  12    1.16    0.24
  -7   3  12    1.04    0.25
  -7   3  12    1.20    0.26
  -5  -3  12    2.42    0.39
  -5  -3  12    1.77    0.22
  -5  -3  12    2.51    0.29
  -5   3  12    2.35    0.29
  -3  -3  12    3.22    0.45
  -3  -3  12    3.20    0.37
  -3   3  12    3.03    0.37
  -3   3  12    3.67    0.38
  -1  -3  12    4.07    0.48
  -1  -3  12    4.14    0.42
  -1   3  12    4.21    0.41
  -1   3  12    3.76    0.39
  -1  -3 -12    7.79    0.59
   1  -3  12    7.78    0.50
   1  -3  12    7.83    0.63
   1  -3  12    7.77    0.58
   1   3  12    7.79    0.57
   1   3  12    7.96    0.55
   3  -3  12    3.65    0.32
   3  -3  12    3.51    0.40
  -3  -3 -12    3.15    0.47
   3   3  12    4.07    0.39
   3   3  12    3.59    0.40
   5  -3  12    6.11    0.43
   5  -3  12    5.32    0.50
  -5  -3 -12    5.66    0.61
   5   3  12    5.45    0.48
  -5   3 -12    5.33    0.57
   5   3  12    5.66    0.50
   7  -3  12    3.27    0.44
  -7  -3 -12    3.79    0.53
  -7   3 -12    3.81    0.49
   7   3  12    3.47    0.44
   7   3  12    3.45    0.38
   9  -3  12    1.62    0.33
  -9  -3 -12    1.89    0.53
   9  -3  12    1.67    0.29
   9   3  12    2.06    0.36
  -9   3 -12    2.15    0.45
   9   3  12    1.60    0.34
 -11  -3 -12    2.45    0.61
  11  -3  12    3.57    0.42
  11  -3  12    2.76    0.39
  11   3  12    3.03    0.43
  11   3  12    3.13    0.42
 -11   3 -12    2.97    0.56
  13  -3  12    3.29    0.45
 -13  -3 -12    3.29    0.69
  13  -3  12    3.30    0.44
  13   3  12    3.16    0.45
 -13   3 -12    3.78    0.65
  13   3  12    2.81    0.48
  15  -3  12    1.99    0.45
 -15  -3 -12    1.98    0.70
 -15   3 -12    3.42    0.71
  15   3  12    2.06    0.48
 -17  -3 -12    1.18    0.71
  17  -3  12    0.90    0.45
  17   3  12    1.14    0.49
 -17   3 -12    2.11    0.58
  19  -3  12   -0.57    0.47
 -19  -3 -12    0.69    0.75
 -19   3 -12    1.86    0.65
 -22   4  12   -0.09    0.41
 -20  -4  12   -0.12    0.62
 -20  -4  12    0.14    0.40
  20  -4 -12    0.75    0.35
 -20   4  12    0.23    0.39
 -18  -4  12   -0.03    0.37
  18  -4 -12    0.77    0.31
 -18  -4  12    0.22    0.57
 -18   4  12   -0.11    0.37
 -16  -4  12   -0.48    0.51
  16  -4 -12    0.17    0.27
 -16  -4  12    0.19    0.34
 -16   4  12   -0.29    0.34
 -14  -4  12    0.45    0.33
  14  -4 -12    0.97    0.27
 -14  -4  12    0.28    0.51
 -14   4  12    0.82    0.34
 -12  -4  12    0.97    0.33
 -12  -4  12    0.36    0.48
  12   4 -12    1.39    0.24
 -12   4  12    1.32    0.33
 -10  -4  12    2.20    0.50
 -10  -4  12    3.45    0.37
 -10   4  12    2.71    0.38
 -10   4  12    3.15    0.36
  10   4 -12    3.46    0.31
   8  -4 -12   -0.61    0.22
  -8  -4  12   -0.12    0.26
  -8  -4  12    0.04    0.37
  -8   4  12    0.02    0.25
  -8   4  12   -0.15    0.25
   8   4 -12   -0.39    0.13
  -6  -4  12    0.73    0.25
   6  -4 -12    0.31    0.26
  -6  -4  12    0.45    0.35
  -6   4  12    0.77    0.25
  -4  -4  12    2.81    0.41
  -4  -4  12    3.11    0.38
  -4   4  12    3.44    0.38
  -2  -4  12    3.42    0.47
  -2  -4  12    3.99    0.42
  -2   4  12    3.93    0.41
  -2   4  12    4.07    0.40
   0  -4  12    2.37    0.31
   0  -4  12    1.89    0.34
   0   4  12    2.00    0.28
   0   4  12    2.25    0.31
   2  -4  12    2.52    0.33
   2  -4  12    2.40    0.36
  -2  -4 -12    2.75    0.35
   2   4  12    2.47    0.30
   2   4  12    2.48    0.32
   4  -4  12    4.62    0.47
  -4  -4 -12    4.73    0.54
   4  -4  12    4.95    0.36
   4   4  12    4.42    0.46
   4   4  12    4.46    0.44
   6  -4  12    3.44    0.35
  -6  -4 -12    3.45    0.50
   6  -4  12    3.88    0.41
   6   4  12    3.46    0.37
   6   4  12    3.31    0.44
  -6   4 -12    3.70    0.49
  -8  -4 -12    0.54    0.46
   8  -4  12    0.28    0.27
   8  -4  12    0.20    0.20
  -8   4 -12    0.10    0.33
   8   4  12    0.67    0.30
   8   4  12    0.06    0.29
  10  -4  12    1.44    0.33
 -10  -4 -12    0.74    0.54
  10  -4  12    1.09    0.28
  10   4  12    0.93    0.36
  10   4  12    0.96    0.32
 -10   4 -12    0.89    0.42
 -12  -4 -12    1.17    0.62
  12  -4  12    1.64    0.35
  12  -4  12    1.08    0.33
  12   4  12    1.15    0.35
 -12   4 -12    1.95    0.56
  12   4  12    1.48    0.40
 -14  -4 -12    0.67    0.64
  14  -4  12    0.91    0.37
  14  -4  12    0.90    0.33
 -14   4 -12    1.72    0.56
  14   4  12    0.91    0.43
 -16  -4 -12    1.03    0.68
  16  -4  12    0.04    0.41
  16   4  12    0.63    0.46
 -18  -4 -12    0.27    0.73
  18  -4  12   -0.16    0.46
  18   4  12    0.45    0.51
 -18   4 -12    2.00    0.60
 -21  -5  12   -0.24    0.43
 -21   5  12   -0.47    0.42
  19  -5 -12    0.55    0.32
 -19  -5  12    0.16    0.61
 -17  -5  12    0.10    0.54
 -17  -5  12   -0.31    0.36
  17  -5 -12    0.36    0.28
 -17   5  12    0.25    0.36
  15  -5 -12    0.29    0.27
 -15  -5  12   -0.01    0.50
 -15  -5  12    0.69    0.35
 -15   5  12   -0.05    0.32
 -13  -5  12    0.09    0.48
 -13  -5  12    0.72    0.34
 -13   5  12    1.00    0.35
 -11  -5  12    1.46    0.51
 -11  -5  12    1.58    0.35
 -11   5  12    2.26    0.35
 -11   5  12    2.00    0.39
   9  -5 -12    2.04    0.34
  -9  -5  12    1.45    0.45
  -9  -5  12    1.91    0.33
  -9   5  12    2.13    0.33
  -9   5  12    2.13    0.34
  -7  -5  12    1.12    0.27
  -7  -5  12    0.79    0.38
   7  -5 -12    1.59    0.33
  -7  -5  12    1.32    0.29
  -7   5  12    1.22    0.27
  -7   5  12    0.77    0.28
   5  -5 -12    2.07    0.37
  -5  -5  12    2.12    0.41
  -5   5  12    2.35    0.31
  -3  -5  12    2.27    0.39
  -3  -5  12    2.59    0.34
   3  -5 -12    2.03    0.38
  -3   5  12    2.21    0.30
  -1  -5  12    5.84    0.51
  -1  -5  12    5.30    0.54
  -1   5  12    5.87    0.47
   1  -5  12    0.04    0.27
   1  -5  12    0.52    0.26
   1   5  12    0.27    0.22
   3  -5  12    1.09    0.31
   3  -5  12    1.15    0.29
  -3  -5 -12    1.43    0.34
   3   5  12    1.05    0.25
   3   5  12    1.18    0.28
   5  -5  12    5.12    0.53
   5  -5  12    6.17    0.43
  -5  -5 -12    5.40    0.63
   5   5  12    5.60    0.50
   5   5  12    6.17    0.54
  -5   5 -12    5.73    0.59
   7  -5  12    4.06    0.45
  -7  -5 -12    4.08    0.57
   7  -5  12    3.96    0.38
   7   5  12    3.55    0.41
  -7   5 -12    4.34    0.55
   7   5  12    3.66    0.49
   9  -5  12    3.99    0.42
   9  -5  12    3.95    0.51
  -9  -5 -12    3.55    0.63
   9   5  12    3.93    0.45
   9   5  12    4.04    0.52
  -9   5 -12    4.29    0.57
  11  -5  12    0.36    0.31
 -11  -5 -12    0.14    0.57
  11  -5  12   -0.34    0.23
  11   5  12   -0.20    0.36
 -11   5 -12   -0.17    0.43
  13  -5  12    1.28    0.36
  13  -5  12    0.66    0.33
 -13  -5 -12    1.40    0.66
 -13   5 -12    1.19    0.55
  13   5  12    0.49    0.41
 -15  -5 -12    0.21    0.64
  15  -5  12   -0.24    0.37
  15   5  12    0.61    0.43
 -15   5 -12    1.15    0.57
 -17  -5 -12    0.52    0.70
  17  -5  12    0.34    0.45
  17   5  12    0.58    0.49
 -17   5 -12    2.29    0.57
  19  -5  12    0.40    0.51
 -22   6  12    0.40    0.48
 -20  -6  12    0.00    0.41
 -20   6  12    0.24    0.45
 -18  -6  12   -0.15    0.57
 -18  -6  12    0.12    0.37
  18  -6 -12    0.73    0.30
 -18   6  12    0.36    0.39
  16  -6 -12    0.41    0.28
 -16  -6  12   -0.39    0.35
 -16  -6  12   -0.09    0.54
 -16   6  12    0.12    0.35
 -14  -6  12    0.08    0.50
 -14  -6  12    0.32    0.33
  14  -6 -12    0.14    0.24
 -14   6  12    0.21    0.37
 -12  -6  12   -0.34    0.47
 -12  -6  12    0.02    0.32
 -12   6  12   -0.30    0.33
 -10  -6  12    0.48    0.45
 -10  -6  12    0.76    0.32
 -10   6  12    0.20    0.31
 -10   6  12    0.40    0.33
  -8  -6  12    0.30    0.29
  -8  -6  12    0.23    0.27
  -8  -6  12    0.19    0.40
   8  -6 -12    0.29    0.30
  -8   6  12    0.34    0.28
  -8   6  12    0.37    0.29
   6  -6 -12    0.86    0.33
  -6  -6  12    0.84    0.39
  -6  -6  12    1.10    0.32
  -6   6  12    0.87    0.27
  -4  -6  12    0.10    0.28
   4  -6 -12    0.02    0.29
  -4  -6  12   -0.03    0.31
  -4   6  12    0.00    0.23
  -2  -6  12    5.69    0.57
   2  -6 -12    5.81    0.59
  -2  -6  12    6.40    0.55
  -2   6  12    6.14    0.50
   0  -6  12    1.47    0.35
   0  -6 -12    1.74    0.37
   0  -6  12    1.82    0.32
   0   6  12    1.58    0.28
   2  -6  12    0.64    0.28
   2  -6  12    0.48    0.30
  -2  -6 -12    0.28    0.32
   2   6  12    0.73    0.24
  -4  -6 -12    0.49    0.35
   4  -6  12    0.05    0.25
   4   6  12   -0.03    0.24
   6  -6  12    5.92    0.57
  -6  -6 -12    5.83    0.67
  -6   6 -12    5.69    0.65
   6   6  12    6.02    0.53
   8  -6  12    5.54    0.60
  -8  -6 -12    5.61    0.77
   8  -6  12    5.81    0.49
  -8   6 -12    6.30    0.70
   8   6  12    6.80    0.58
 -10  -6 -12    0.43    0.45
 -10  -6 -12    0.33    0.55
  10  -6  12    0.75    0.33
  10  -6  12    0.32    0.24
  10   6  12   -0.11    0.35
 -10   6 -12    0.21    0.43
 -12  -6 -12    0.86    0.44
  12  -6  12    0.01    0.31
 -12  -6 -12    0.64    0.60
 -12   6 -12   -0.09    0.46
  12   6  12    0.79    0.43
 -14  -6 -12    0.01    0.66
  14  -6  12    0.24    0.32
  14  -6  12   -0.09    0.34
 -14   6 -12    0.48    0.57
  14   6  12    0.06    0.44
  16  -6  12    0.07    0.43
 -16  -6 -12    0.30    0.69
 -16   6 -12    1.81    0.62
  16   6  12    0.31    0.46
  18  -6  12    0.29    0.51
 -18  -6 -12    1.35    0.78
 -18   6 -12    2.44    0.65
  18   6  12    1.23    0.67
 -21  -7  12    0.18    0.44
 -21   7  12    0.75    0.48
 -19   7  12    0.88    0.43
 -17  -7  12    0.28    0.60
 -17  -7  12    0.16    0.37
  17  -7 -12    0.22    0.28
 -17   7  12    0.25    0.40
 -15  -7  12    0.18    0.54
  15  -7 -12    0.29    0.27
 -15  -7  12    0.03    0.34
 -15   7  12    0.30    0.37
 -13  -7  12    0.12    0.33
 -13  -7  12   -0.42    0.48
 -13   7  12   -0.14    0.35
 -11  -7  12    0.07    0.32
 -11  -7  12    0.25    0.47
 -11   7  12   -0.23    0.34
 -11   7  12    0.25    0.33
  -9  -7  12   -0.17    0.42
   9  -7 -12    0.09    0.32
  -9  -7  12    0.30    0.31
  -9   7  12    0.64    0.34
  -9   7  12   -0.13    0.29
  -7  -7  12    0.58    0.32
  -7  -7  12    0.53    0.43
   7  -7 -12    0.85    0.38
  -7   7  12    0.59    0.29
  -7   7  12    0.45    0.30
   5  -7 -12    1.55    0.38
  -5  -7  12    1.74    0.35
  -5  -7  12    1.29    0.40
  -5   7  12    1.01    0.28
  -3  -7  12    0.56    0.30
  -3  -7  12    0.48    0.34
   3  -7 -12    0.26    0.34
  -3   7  12    0.52    0.26
  -1  -7  12    2.11    0.35
  -1  -7  12    2.05    0.39
   1  -7 -12    1.65    0.39
  -1   7  12    1.96    0.30
  -1  -7 -12    5.84    0.66
   1  -7  12    6.64    0.59
   1  -7  12    7.17    0.63
   1   7  12    7.25    0.54
   3  -7  12    0.09    0.27
  -3  -7 -12    0.14    0.33
   3  -7  12   -0.13    0.29
   3   7  12    0.08    0.25
   5  -7  12    0.63    0.31
  -5  -7 -12    0.29    0.38
  -5   7 -12    0.82    0.38
   5   7  12    0.74    0.29
   7  -7  12    1.06    0.34
  -7  -7 -12    1.32    0.48
  -7  -7 -12    1.38    0.47
  -7   7 -12    1.19    0.46
   7   7  12    1.06    0.33
  -9  -7 -12    1.80    0.50
   9  -7  12    1.99    0.40
  -9  -7 -12    1.92    0.57
   9   7  12    2.32    0.42
  -9   7 -12    2.47    0.53
 -11  -7 -12    1.70    0.49
  11  -7  12    1.56    0.40
 -11  -7 -12    1.32    0.62
 -11   7 -12    1.72    0.54
  11   7  12    1.65    0.45
 -13  -7 -12    0.04    0.63
  13  -7  12   -0.06    0.33
 -13   7 -12    0.57    0.53
  13   7  12    0.23    0.42
 -15  -7 -12   -0.16    0.66
  15   7  12    0.12    0.51
 -15   7 -12    1.18    0.58
 -17  -7 -12    0.13    0.70
 -17   7 -12    3.48    0.75
  17   7  12    0.28    0.52
 -20   8  12   -0.42    0.46
 -18   8  12    0.36    0.43
 -16  -8  12   -0.46    0.57
  16  -8 -12    0.25    0.30
 -16  -8  12    0.45    0.39
 -16   8  12    0.04    0.39
  14  -8 -12    0.31    0.26
 -14  -8  12   -0.38    0.52
 -14  -8  12    0.08    0.36
 -14   8  12    0.06    0.38
 -12  -8  12    0.46    0.52
 -12   8  12    0.59    0.37
 -12   8  12    0.96    0.40
 -10  -8  12    0.28    0.51
  10  -8 -12    0.76    0.41
 -10   8  12   -0.17    0.32
 -10   8  12   -0.24    0.37
   8  -8 -12    0.28    0.37
  -8  -8  12    0.32    0.34
  -8  -8  12    0.18    0.48
  -8   8  12    0.15    0.30
  -8   8  12    0.18    0.35
  -6  -8  12   -0.12    0.26
   6  -8 -12    0.70    0.41
  -6  -8  12    0.34    0.42
   6   8 -12    0.17    0.22
  -6   8  12    0.80    0.29
  -4  -8  12    0.22    0.33
   4  -8 -12    0.44    0.39
  -4  -8  12    0.05    0.36
  -4   8  12    0.20    0.27
   4   8 -12    0.44    0.22
   2  -8 -12    2.13    0.44
  -2  -8  12    1.91    0.41
  -2  -8  12    2.28    0.39
  -2   8  12    2.25    0.33
   0  -8  12    6.54    0.60
   0  -8  12    6.07    0.64
   0  -8 -12    6.46    0.70
   0   8  12    6.59    0.54
   2  -8  12    1.48    0.37
   2  -8  12    1.42    0.34
  -2  -8 -12    1.50    0.43
   2   8  12    1.42    0.30
   4  -8  12    1.80    0.36
  -4  -8 -12    1.70    0.47
   4   8  12    1.18    0.31
  -6  -8 -12    0.91    0.46
   6  -8  12    0.58    0.33
   6   8  12    0.91    0.34
  -6   8 -12    0.69    0.41
  -8  -8 -12    1.03    0.50
   8  -8  12    0.88    0.37
   8   8  12    1.43    0.38
  -8   8 -12    1.68    0.49
 -10  -8 -12    1.83    0.67
 -10  -8 -12    3.06    0.59
  10  -8  12    2.49    0.45
 -10   8 -12    3.33    0.59
  10   8  12    3.03    0.49
  12  -8  12    0.90    0.38
 -12  -8 -12    1.23    0.49
 -12  -8 -12    0.02    0.59
  12   8  12    0.05    0.43
 -12   8 -12    0.62    0.50
 -14  -8 -12    0.20    0.64
  14  -8  12    0.72    0.37
  14   8  12    0.58    0.49
 -14   8 -12    1.72    0.60
 -16  -8 -12   -0.62    0.66
  16   8  12    0.01    0.53
 -16   8 -12    2.21    0.65
 -18  -8 -12   -1.69    0.87
 -19   9  12   -0.36    0.43
  17  -9 -12    0.41    0.40
 -17   9  12    0.49    0.46
  15  -9 -12    0.45    0.28
 -15  -9  12   -0.27    0.58
 -15   9  12   -0.42    0.40
 -13  -9  12    0.10    0.55
 -13   9  12    0.36    0.40
 -11  -9  12    0.43    0.56
 -11   9  12    0.68    0.40
 -11   9  12    0.64    0.37
  -9  -9  12    0.85    0.54
   9  -9 -12    1.43    0.43
   9   9 -12    1.01    0.25
  -9   9  12    1.19    0.34
  -7  -9  12    0.77    0.49
  -7  -9  12    0.21    0.31
   7  -9 -12    0.89    0.44
   7   9 -12    0.78    0.25
  -7   9  12    0.99    0.32
  -5  -9  12   -0.25    0.36
  -5  -9  12    0.13    0.43
   5  -9 -12    0.25    0.41
  -5   9  12   -0.02    0.28
  -3  -9  12    3.17    0.51
  -3  -9  12    3.33    0.47
   3  -9 -12    3.59    0.55
  -3   9  12    3.18    0.41
   3   9 -12    3.93    0.36
   1  -9 -12    0.78    0.43
  -1  -9  12    0.58    0.34
  -1  -9  12    0.52    0.38
  -1   9  12    0.76    0.29
   1  -9  12    4.10    0.53
  -1  -9 -12    3.81    0.56
   1  -9  12    4.23    0.54
   1   9  12    4.02    0.48
   3  -9  12   11.01    0.85
  -3  -9 -12   10.14    0.93
   3  -9  12   10.32    0.81
   3   9  12   10.85    0.77
  -5  -9 -12    0.51    0.48
   5  -9  12   -0.28    0.31
   5   9  12   -0.25    0.30
  -7  -9 -12    1.51    0.55
   7  -9  12    1.02    0.39
   7   9  12    1.21    0.37
  -7   9 -12    1.55    0.50
  -9  -9 -12    1.79    0.54
   9  -9  12    0.45    0.38
  -9   9 -12    1.47    0.49
   9   9  12    1.15    0.42
 -11  -9 -12    0.77    0.52
  11  -9  12    0.20    0.35
  11   9  12    0.63    0.43
 -11   9 -12    1.04    0.50
  13  -9  12    0.30    0.37
  13   9  12   -0.28    0.46
 -13   9 -12    1.46    0.58
 -15   9 -12    1.16    0.60
  15   9  12    0.26    0.51
 -17   9 -12    2.06    0.75
 -18  10  12    0.02    0.45
  16 -10 -12    0.53    0.32
 -16  10  12    0.26    0.43
  14 -10 -12    0.14    0.26
 -14 -10  12   -0.26    0.61
 -14  10  12    0.08    0.41
  14  10 -12    0.41    0.28
 -12 -10  12    0.08    0.60
 -12  10  12    0.49    0.41
 -12  10  12    0.57    0.37
  12  10 -12    0.50    0.26
 -10 -10  12    0.72    0.58
  10 -10 -12    0.53    0.45
 -10  10  12    0.56    0.39
 -10  10  12    0.66    0.35
  10  10 -12    0.56    0.24
   8 -10 -12    1.68    0.47
  -8 -10  12    1.01    0.56
  -8  10  12    0.62    0.37
  -8  10  12    0.45    0.32
   8  10 -12    0.82    0.26
  -6 -10  12   -0.29    0.47
  -6 -10  12   -0.16    0.38
   6 -10 -12    0.55    0.46
  -6  10  12    0.37    0.31
   6  10 -12    0.19    0.25
   4 -10 -12    1.74    0.50
  -4 -10  12    1.05    0.42
  -4 -10  12    0.63    0.47
   4  10 -12    1.22    0.28
  -4  10  12    0.84    0.30
   2 -10 -12    2.91    0.56
  -2 -10  12    2.82    0.51
  -2 -10  12    3.49    0.49
  -2  10  12    1.93    0.37
   0 -10 -12    1.91    0.52
   0 -10  12    2.06    0.44
   0 -10  12    2.10    0.46
   0  10  12    2.35    0.40
   2 -10  12    3.87    0.53
  -2 -10 -12    4.58    0.66
   2 -10  12    4.70    0.62
   2  10  12    5.44    0.54
  -4 -10 -12    2.07    0.56
   4 -10  12    0.67    0.38
   4  10  12    0.69    0.33
  -6 -10 -12    3.30    0.63
   6 -10  12    2.60    0.47
   6  10  12    2.58    0.43
  -6  10 -12    3.42    0.61
   8 -10  12    2.96    0.49
  -8 -10 -12    3.16    0.64
  -8  10 -12    3.14    0.62
   8  10  12    3.42    0.49
  10 -10  12    0.91    0.42
 -10 -10 -12    1.90    0.60
  10  10  12    1.30    0.43
 -10  10 -12    1.48    0.54
 -12 -10 -12    1.36    0.58
  12 -10  12   -0.03    0.38
  12  10  12    0.02    0.44
 -12  10 -12    1.00    0.54
  14 -10  12    0.62    0.40
 -14  10 -12    1.70    0.60
  14  10  12    0.52    0.51
 -16  10 -12    2.46    0.67
 -17  11  12   -0.11    0.44
  17  11 -12    0.35    0.33
  15 -11 -12    0.38    0.31
  15  11 -12    0.40    0.30
 -15  11  12    0.40    0.43
 -13 -11  12   -0.53    0.62
  13  11 -12    0.66    0.27
 -13  11  12    0.46    0.43
 -11 -11  12    0.69    0.64
 -11  11  12    0.70    0.38
 -11  11  12    0.60    0.42
  11  11 -12    0.84    0.26
   9 -11 -12    0.81    0.47
  -9 -11  12    0.07    0.58
   9  11 -12    0.20    0.24
  -9  11  12    0.49    0.35
  -9  11  12    0.60    0.33
  -7 -11  12    1.76    0.59
  -7 -11  12    1.58    0.45
   7 -11 -12    2.13    0.54
   7  11 -12    0.89    0.29
  -7  11  12    1.42    0.35
   5 -11 -12    1.80    0.55
  -5 -11  12    1.60    0.54
  -5 -11  12    1.66    0.45
  -5  11  12    1.11    0.34
  -3 -11  12    1.78    0.50
  -3 -11  12    1.70    0.45
   3 -11 -12    2.63    0.57
  -3  11  12    1.39    0.33
   1 -11 -12    2.25    0.57
  -1 -11  12    2.20    0.51
  -1 -11  12    1.78    0.46
  -1  11  12    2.08    0.37
   1 -11  12    2.64    0.49
  -1 -11 -12    2.04    0.59
   1 -11  12    3.24    0.53
   1  11  12    3.29    0.44
   3 -11  12    0.79    0.41
   3 -11  12    1.59    0.45
  -3 -11 -12    1.21    0.58
   3  11  12    1.40    0.37
   5 -11  12    1.33    0.44
  -5 -11 -12    2.38    0.63
   5  11  12    1.80    0.38
   7 -11  12    1.14    0.43
  -7 -11 -12    2.89    0.68
  -7  11 -12    2.74    0.58
   7  11  12    1.89    0.41
  -9 -11 -12    2.08    0.65
   9 -11  12    0.70    0.41
   9  11  12    1.06    0.42
  -9  11 -12    1.59    0.53
  11 -11  12    1.04    0.44
 -11 -11 -12    2.44    0.68
 -11  11 -12    2.00    0.58
  11  11  12    2.08    0.49
  13 -11  12    0.73    0.42
 -13  11 -12    2.81    0.61
  13  11  12    1.42    0.51
 -16  12  12    0.04    0.44
  14 -12 -12    0.56    0.31
  14  12 -12    0.32    0.29
 -14  12  12    0.40    0.45
 -12 -12  12    0.34    0.68
  12  12 -12    0.95    0.30
 -12  12  12    0.40    0.40
  10 -12 -12    0.74    0.54
 -10 -12  12    0.66    0.65
  10  12 -12    0.93    0.29
 -10  12  12    0.94    0.35
 -10  12  12    1.11    0.41
  -8 -12  12    1.34    0.62
   8 -12 -12    0.88    0.54
  -8  12  12    0.81    0.34
   6 -12 -12    1.41    0.57
  -6 -12  12    1.31    0.45
  -6 -12  12    0.52    0.54
  -6  12  12    0.50    0.34
  -6  12  12    0.60    0.33
  -4 -12  12    1.60    0.52
   4 -12 -12    2.35    0.60
  -4 -12  12    1.24    0.45
   4  12 -12    1.95    0.32
  -4  12  12    0.52    0.31
  -2 -12  12    2.49    0.54
   2 -12 -12    3.42    0.68
  -2 -12  12    2.98    0.56
  -2  12  12    2.30    0.38
   0 -12  12    3.40    0.55
   0 -12 -12    4.24    0.71
   0 -12  12    3.88    0.57
   0  12  12    2.82    0.41
   2 -12  12    1.34    0.44
  -2 -12 -12    1.25    0.60
   2 -12  12    0.65    0.47
   2  12  12    0.84    0.36
   4 -12  12    1.00    0.46
  -4 -12 -12    1.90    0.65
   4  12  12    1.63    0.38
  -6 -12 -12    2.06    0.66
   6 -12  12    0.73    0.45
  -6  12 -12    1.28    0.50
   6  12  12    0.89    0.38
  -8 -12 -12    1.46    0.65
   8 -12  12    0.09    0.40
  -8  12 -12    0.66    0.49
   8  12  12    0.36    0.37
 -10 -12 -12    3.18    0.75
  10 -12  12    1.58    0.48
 -10  12 -12    1.99    0.56
  10  12  12    1.67    0.45
  12 -12  12    0.63    0.45
  12  12  12    1.84    0.53
  14 -12  12    0.06    0.41
 -15  13  12    0.10    0.46
  15  13 -12    0.41    0.32
 -13  13  12   -0.09    0.41
  13  13 -12    0.16    0.30
 -11 -13  12   -0.03    0.69
 -11  13  12   -0.07    0.33
 -11  13  12    0.20    0.40
  11  13 -12    0.86    0.30
  -9 -13  12    0.72    0.67
   9 -13 -12    0.37    0.52
  -9  13  12    0.30    0.32
  -9  13  12    0.17    0.39
  -7 -13  12    0.79    0.51
  -7 -13  12    1.58    0.64
   7 -13 -12    1.08    0.58
  -7  13  12    0.65    0.33
  -5 -13  12    1.03    0.54
  -5 -13  12    0.48    0.45
   5 -13 -12    0.40    0.56
   5  13 -12    0.70    0.30
  -5  13  12    0.69    0.32
   3 -13 -12    2.18    0.67
  -3 -13  12    1.78    0.54
  -3 -13  12    1.18    0.51
  -3  13  12    1.07    0.32
  -1 -13  12    1.42    0.52
   1 -13 -12    2.70    0.70
  -1 -13  12    2.93    0.56
  -1  13  12    1.40    0.33
   1 -13  12    1.84    0.50
   1 -13  12    2.04    0.54
  -1 -13 -12    2.80    0.72
   1  13  12    2.05    0.36
  -3 -13 -12    1.09    0.68
   3 -13  12    0.42    0.44
   3 -13  12    0.27    0.46
   3  13  12    0.58    0.36
  -5 -13 -12    1.48    0.70
   5 -13  12    0.74    0.48
  -5  13 -12    1.15    0.50
   5  13  12    1.26    0.39
   7 -13  12    0.25    0.45
  -7 -13 -12    1.53    0.69
  -7  13 -12    0.94    0.57
   7  13  12    0.80    0.38
   9 -13  12    0.28    0.44
  -9 -13 -12    1.55    0.76
   9  13  12    0.34    0.38
  11 -13  12    0.21    0.43
 -11 -13 -12    2.95    0.86
  11  13  12    0.53    0.44
 -14  14  12    0.16    0.44
  14  14 -12    0.11    0.31
  12  14 -12    0.60    0.32
 -12  14  12   -0.30    0.42
 -10 -14  12    0.84    0.76
  10  14 -12    0.15    0.28
 -10  14  12    0.04    0.35
  -8 -14  12   -0.12    0.62
   8 -14 -12   -0.37    0.53
  -8  14  12    0.81    0.33
   8  14 -12    0.24    0.28
  -6 -14  12    0.12    0.58
   6 -14 -12   -0.16    0.61
  -6 -14  12    0.01    0.50
  -6  14  12    0.20    0.32
  -4 -14  12    0.21    0.44
   4 -14 -12    1.21    0.65
  -4 -14  12    1.17    0.56
   4  14 -12    0.45    0.30
  -4  14  12    0.17    0.30
  -2 -14  12    0.86    0.52
   2 -14 -12    1.85    0.70
  -2 -14  12    0.48    0.50
   2  14 -12    0.81    0.33
  -2  14  12    0.43    0.29
   0 -14 -12    2.05    0.70
   0 -14  12    0.54    0.46
   0 -14  12    0.25    0.49
   0  14  12    0.19    0.27
   2 -14  12    0.43    0.50
  -2 -14 -12    1.15    0.71
   2 -14  12    0.34    0.46
   2  14  12    0.52    0.30
   4 -14  12   -0.09    0.47
  -4 -14 -12    1.33    0.78
   4  14  12    0.72    0.37
  -6 -14 -12    2.06    0.79
   6 -14  12    0.46    0.49
   6  14  12    0.89    0.39
  -8 -14 -12    1.32    0.78
   8 -14  12   -0.53    0.45
   8  14  12    0.47    0.44
 -10 -14 -12    1.61    0.79
  13  15 -12    0.33    0.32
  11  15 -12    0.16    0.31
  -9 -15  12   -0.27    0.83
   9 -15 -12   -0.55    0.58
  -9  15  12    0.09    0.34
  -7 -15  12   -0.03    0.61
   7 -15 -12   -0.55    0.60
   7  15 -12    0.20    0.30
  -7  15  12    0.06    0.32
  -5 -15  12    0.41    0.59
  -5 -15  12    0.28    0.53
   5 -15 -12   -0.30    0.68
   5  15 -12    0.45    0.31
  -5  15  12    0.29    0.31
  -5  15  12   -0.16    0.33
   3 -15 -12    0.37    0.72
  -3 -15  12   -0.32    0.49
  -3 -15  12    0.72    0.58
  -3  15  12    0.54    0.31
   3  15 -12    0.74    0.33
   1 -15 -12    1.43    0.74
  -1 -15  12    0.15    0.50
  -1  15  12    0.66    0.32
   1 -15  12   -0.61    0.49
  -1 -15 -12    1.47    0.78
   3 -15  12   -0.42    0.52
  -3 -15 -12    0.34    0.78
  -5 -15 -12    0.73    0.82
 -10  16  12    0.04    0.43
  10  16 -12    0.87    0.33
   8  16 -12    0.04    0.30
  -8  16  12   -0.44    0.44
   6  16 -12    0.04    0.31
   4  16 -12   -0.07    0.32
   7  17 -12    0.59    0.35
   5  17 -12   -0.03    0.33
   3  17 -12   -0.23    0.34
 -20   0  13   -0.32    0.57
  20   0 -13    0.63    0.37
 -20   0  13   -0.21    0.38
 -18   0  13   -0.42    0.50
  18   0 -13    0.64    0.32
 -18   0  13    0.05    0.35
 -16   0  13   -0.39    0.45
  16   0 -13    0.44    0.27
 -16   0  13   -0.18    0.31
 -14   0  13    0.30    0.32
 -14   0  13   -0.42    0.43
  14   0 -13    0.50    0.25
 -12   0  13   -0.43    0.40
  12   0 -13    0.18    0.21
 -12   0  13   -0.40    0.28
 -10   0  13   -0.05    0.26
 -10   0  13   -0.25    0.37
  -8   0  13   -0.11    0.32
  -8   0  13   -0.07    0.24
  -8   0  13   -0.14    0.23
  -6   0  13   -0.09    0.21
  -6   0  13    0.32    0.21
  -6   0  13    0.11    0.29
  -4   0  13    0.16    0.20
  -4   0  13   -0.43    0.18
  -4   0  13   -0.06    0.25
  -2   0  13   -0.12    0.26
  -2   0  13   -0.05    0.17
  -2   0  13    0.20    0.21
   0   0  13   -0.28    0.20
   0   0  13    0.23    0.18
   0   0  13   -0.03    0.26
   2   0  13    0.21    0.18
   2   0  13    0.07    0.21
  -2   0 -13    0.46    0.28
   4   0  13    0.04    0.19
   4   0  13    0.30    0.22
  -4   0 -13    0.26    0.31
  -6   0 -13   -0.14    0.32
   6   0  13    0.32    0.22
   6   0  13   -0.04    0.23
   8   0  13    0.39    0.25
  -8   0 -13    0.10    0.38
   8   0  13    0.14    0.25
  10   0  13    0.13    0.28
  10   0  13   -0.13    0.29
 -10   0 -13   -0.39    0.43
 -12   0 -13    0.15    0.49
  12   0  13   -0.11    0.30
  12   0  13    0.15    0.35
 -14   0 -13    0.25    0.51
  14   0  13   -0.15    0.38
  14   0  13    0.23    0.32
 -16   0 -13    0.98    0.57
  16   0  13   -0.17    0.42
  18   0  13   -0.24    0.44
 -18   0 -13    1.08    0.65
 -23   1  13    0.21    0.42
 -21  -1  13   -0.18    0.56
  21  -1 -13    0.68    0.50
  21   1 -13    0.10    0.39
  19  -1 -13    0.74    0.34
 -19  -1  13   -0.33    0.53
 -19   1  13   -0.01    0.34
  19   1 -13    0.83    0.36
 -17  -1  13    0.26    0.49
  17  -1 -13    0.59    0.29
 -17  -1  13   -0.10    0.34
  17   1 -13    0.59    0.30
 -17   1  13    0.28    0.34
 -17   1  13   -0.50    0.47
 -15  -1  13    0.28    0.47
  15  -1 -13    0.79    0.28
 -15  -1  13    0.40    0.33
  15   1 -13    0.84    0.27
 -15   1  13    1.18    0.33
 -15   1  13   -0.20    0.41
  13  -1 -13    0.28    0.24
 -13  -1  13   -0.38    0.44
 -13  -1  13    0.07    0.31
 -13   1  13   -0.10    0.30
  13   1 -13    0.16    0.22
 -13   1  13    0.18    0.32
 -11  -1  13    0.28    0.28
 -11  -1  13   -0.22    0.41
 -11   1  13   -0.29    0.28
 -11   1  13    0.02    0.29
  11   1 -13   -0.01    0.19
  -9  -1  13    0.27    0.26
  -9  -1  13   -0.12    0.37
  -9   1  13   -0.22    0.31
  -9   1  13    0.41    0.28
  -9   1  13   -0.10    0.26
  -7  -1  13    1.11    0.23
  -7  -1  13    1.02    0.34
  -7  -1  13    0.52    0.20
  -7   1  13    1.06    0.32
  -7   1  13    1.21    0.26
  -7   1  13    1.00    0.26
  -7   1  13    1.02    0.24
  -5  -1  13    0.32    0.19
  -5  -1  13    0.28    0.31
  -5  -1  13    0.46    0.21
  -5   1  13    0.19    0.22
  -5   1  13    0.45    0.27
  -5   1  13    0.48    0.21
  -3  -1  13    0.20    0.18
  -3  -1  13    0.38    0.23
  -3  -1  13    0.49    0.29
  -3   1  13    0.35    0.21
  -3   1  13    0.49    0.26
  -3   1  13    0.54    0.22
  -1  -1  13    6.13    0.52
  -1  -1  13    4.92    0.45
  -1  -1  13    5.32    0.41
  -1   1  13    5.34    0.43
  -1   1  13    5.11    0.45
   1  -1  13    0.89    0.18
   1  -1  13    1.01    0.25
   1  -1  13    1.43    0.30
   1   1  13    1.20    0.25
   1   1  13    1.30    0.23
   3  -1  13    2.18    0.31
  -3  -1 -13    2.73    0.39
   3   1  13    2.09    0.30
   3   1  13    2.57    0.28
  -3   1 -13    2.78    0.39
   5  -1  13    0.84    0.22
  -5  -1 -13    0.78    0.35
   5  -1  13    0.78    0.25
  -5   1 -13    1.33    0.36
   5   1  13    0.90    0.24
   5   1  13    0.76    0.26
  -7  -1 -13    2.06    0.45
   7  -1  13    2.24    0.34
   7  -1  13    1.82    0.28
   7   1  13    2.28    0.31
  -7   1 -13    1.87    0.41
   7   1  13    1.93    0.33
   9  -1  13    4.12    0.50
   9  -1  13    4.33    0.43
  -9  -1 -13    4.04    0.60
  -9   1 -13    4.26    0.57
   9   1  13    3.93    0.43
   9   1  13    4.65    0.50
 -11  -1 -13   -0.12    0.47
  11  -1  13    0.19    0.32
  11  -1  13    0.56    0.31
  11   1  13    0.53    0.31
  11   1  13    0.63    0.35
 -11   1 -13    0.57    0.47
 -13  -1 -13    0.55    0.52
  13  -1  13    0.66    0.33
  13  -1  13   -0.05    0.35
  13   1  13    0.34    0.32
 -13   1 -13    0.53    0.52
  13   1  13   -0.35    0.37
 -15  -1 -13    1.11    0.58
  15  -1  13    0.07    0.41
 -15   1 -13    1.06    0.53
  15   1  13   -0.34    0.41
 -17  -1 -13    0.99    0.62
  17  -1  13   -0.04    0.44
 -17   1 -13    1.89    0.59
  17   1  13   -0.28    0.44
 -19  -1 -13    0.99    0.88
  19  -1  13   -0.18    0.49
 -19   1 -13    1.77    0.91
 -22  -2  13    0.48    0.42
 -22   2  13    0.47    0.41
  20  -2 -13    0.92    0.36
 -20  -2  13   -0.22    0.62
  20   2 -13    0.48    0.41
 -18  -2  13    0.70    0.37
  18  -2 -13    1.42    0.33
 -18  -2  13    0.31    0.56
 -18   2  13    0.45    0.35
  18   2 -13    0.80    0.35
  16  -2 -13    1.29    0.30
 -16  -2  13   -0.18    0.50
 -16  -2  13    0.05    0.34
 -16   2  13   -0.07    0.34
  16   2 -13    0.67    0.30
  14  -2 -13    0.75    0.27
 -14  -2  13   -0.08    0.49
 -14  -2  13    0.51    0.33
 -14   2  13    0.55    0.35
 -14   2  13   -0.50    0.48
  14   2 -13    0.74    0.25
 -12  -2  13    1.20    0.34
 -12  -2  13    0.89    0.48
 -12   2  13    0.82    0.40
 -12   2  13    1.62    0.34
  12   2 -13    1.44    0.25
 -10  -2  13    0.57    0.29
 -10  -2  13    0.24    0.42
  10   2 -13    0.75    0.19
 -10   2  13    0.37    0.34
 -10   2  13    0.75    0.32
  -8  -2  13    1.15    0.41
  -8  -2  13    1.82    0.28
  -8   2  13    1.44    0.28
  -8   2  13    1.54    0.30
  -8   2  13    1.17    0.31
  -6  -2  13    1.62    0.26
  -6  -2  13    1.77    0.23
  -6  -2  13    1.60    0.37
  -6   2  13    1.49    0.28
  -6   2  13    1.48    0.31
  -6   2  13    1.50    0.27
  -4  -2  13    1.97    0.23
  -4  -2  13    1.65    0.27
  -4  -2  13    2.23    0.36
  -4   2  13    2.27    0.29
  -4   2  13    2.54    0.30
  -4   2  13    2.51    0.36
  -2  -2  13    2.24    0.30
  -2  -2  13    2.12    0.22
  -2  -2  13    2.05    0.35
  -2   2  13    2.12    0.30
  -2   2  13    2.08    0.27
  -2   2  13    2.14    0.29
   0  -2  13    1.39    0.27
   0  -2  13    1.26    0.31
   0  -2  13    1.81    0.20
   0   2  13    1.55    0.26
   0   2  13    1.61    0.25
   2  -2  13    3.54    0.46
   2  -2  13    3.88    0.41
  -2  -2 -13    3.14    0.47
   2  -2  13    4.10    0.33
   2   2  13    3.75    0.38
   2   2  13    3.73    0.39
  -4  -2 -13    6.36    0.60
   4  -2  13    5.33    0.45
   4  -2  13    6.61    0.52
   4   2  13    6.59    0.51
  -4   2 -13    5.94    0.59
   4   2  13    6.71    0.50
   6  -2  13    0.34    0.24
  -6  -2 -13    0.30    0.38
   6  -2  13    0.28    0.19
  -6   2 -13    0.13    0.31
   6   2  13    0.16    0.24
   6   2  13    0.12    0.24
   8  -2  13    2.30    0.31
   8  -2  13    2.34    0.35
  -8  -2 -13    1.68    0.50
   8   2  13    2.82    0.37
  -8   2 -13    2.11    0.44
   8   2  13    2.04    0.34
  10  -2  13    0.74    0.30
 -10  -2 -13    1.16    0.52
  10  -2  13    1.32    0.33
 -10   2 -13    1.18    0.44
  10   2  13    1.51    0.34
  10   2  13    1.07    0.34
  12  -2  13    3.95    0.47
  12  -2  13    3.87    0.47
 -12  -2 -13    3.82    0.65
  12   2  13    4.36    0.54
 -12   2 -13    3.81    0.66
  12   2  13    2.96    0.48
  14  -2  13    1.00    0.40
  14  -2  13    1.07    0.36
 -14  -2 -13    1.59    0.61
 -14   2 -13    2.53    0.63
  14   2  13    1.09    0.43
  14   2  13    1.03    0.47
  16  -2  13    0.62    0.44
 -16  -2 -13    0.83    0.63
 -16   2 -13    1.40    0.54
  16   2  13    0.60    0.47
  18  -2  13   -0.27    0.47
 -18  -2 -13    0.21    0.68
 -18   2 -13    1.90    0.62
  18   2  13   -0.30    0.51
 -23   3  13    0.22    0.47
 -21  -3  13   -0.03    0.41
 -19  -3  13    0.10    0.60
 -19  -3  13    0.62    0.40
  19  -3 -13    0.99    0.34
 -19   3  13    0.52    0.37
 -17  -3  13    1.05    0.38
  17  -3 -13    1.53    0.32
 -17  -3  13    0.51    0.58
 -17   3  13    1.15    0.38
 -15  -3  13    0.38    0.54
  15  -3 -13    0.05    0.26
  15   3 -13    0.60    0.27
 -15   3  13    0.17    0.35
 -13  -3  13    1.68    0.55
  13  -3 -13    2.12    0.31
  13   3 -13    2.49    0.30
 -13   3  13    2.51    0.38
 -11  -3  13    0.74    0.49
  11   3 -13    1.24    0.22
 -11   3  13    1.26    0.32
 -11   3  13    0.91    0.35
  -9  -3  13    2.84    0.49
  -9   3  13    2.21    0.38
  -9   3  13    3.13    0.34
   9   3 -13    2.41    0.29
  -9   3  13    2.75    0.36
  -7  -3  13    4.41    0.59
  -7  -3  13    4.23    0.41
  -7   3  13    4.60    0.45
  -7   3  13    4.62    0.46
  -5  -3  13    4.46    0.54
  -5  -3  13    4.04    0.39
  -5  -3  13    3.93    0.34
  -5   3  13    5.07    0.43
  -3  -3  13    6.73    0.51
  -3  -3  13    5.65    0.57
  -3   3  13    6.30    0.50
  -3   3  13    5.96    0.50
  -1  -3  13    0.98    0.31
  -1  -3  13    0.84    0.16
  -1  -3  13    1.06    0.26
  -1   3  13    1.02    0.24
  -1   3  13    1.09    0.25
   1  -3  13   14.91    0.95
  -1  -3 -13   12.76    0.93
   1  -3  13   14.78    0.92
   1  -3  13   15.06    0.85
   1   3  13   14.61    0.89
   1   3  13   14.56    0.91
  -3  -3 -13    5.80    0.59
   3  -3  13    6.02    0.53
   3  -3  13    6.59    0.45
   3   3  13    6.48    0.52
   3   3  13    6.60    0.51
   5  -3  13    9.38    0.60
  -5  -3 -13    9.56    0.77
   5  -3  13    8.65    0.67
  -5   3 -13    9.52    0.75
   5   3  13    9.18    0.67
   5   3  13    8.92    0.65
   7  -3  13    4.46    0.49
  -7  -3 -13    4.78    0.64
   7   3  13    4.71    0.49
  -7   3 -13    4.90    0.58
   7   3  13    4.92    0.51
  -9  -3 -13    2.77    0.57
   9  -3  13    2.88    0.34
   9  -3  13    2.55    0.39
   9   3  13    2.47    0.39
   9   3  13    2.54    0.39
  -9   3 -13    3.18    0.49
  11  -3  13    4.83    0.54
 -11  -3 -13    4.52    0.69
  11  -3  13    5.71    0.57
  11   3  13    5.10    0.54
 -11   3 -13    5.12    0.75
  11   3  13    5.67    0.57
 -13  -3 -13    1.30    0.60
  13  -3  13    1.18    0.36
  13  -3  13    0.79    0.36
  13   3  13    1.22    0.39
  13   3  13    0.35    0.40
 -13   3 -13    1.46    0.58
  15  -3  13    1.71    0.46
 -15  -3 -13    1.29    0.66
 -15   3 -13    4.01    0.74
  15   3  13    2.62    0.50
  17  -3  13    0.68    0.47
 -17  -3 -13    0.69    0.69
  17   3  13    0.50    0.47
 -17   3 -13    1.88    0.57
  19  -3  13    0.05    0.52
 -22   4  13    0.16    0.42
 -20  -4  13   -0.45    0.76
 -18  -4  13    0.26    0.37
 -18  -4  13    0.28    0.61
  18  -4 -13    1.46    0.33
 -18   4  13    0.05    0.37
 -16  -4  13   -0.20    0.57
 -16  -4  13    0.49    0.36
  16  -4 -13    1.00    0.30
 -16   4  13    0.70    0.36
 -14  -4  13    1.11    0.55
 -14  -4  13    1.37    0.38
  14  -4 -13    1.68    0.31
 -14   4  13    1.47    0.37
 -12  -4  13    3.06    0.61
 -12  -4  13    3.91    0.44
 -12   4  13    4.21    0.43
 -10  -4  13    1.49    0.32
 -10  -4  13    0.76    0.45
 -10   4  13    1.10    0.34
  -8  -4  13    0.59    0.40
   8  -4 -13    0.65    0.28
  -8  -4  13    0.74    0.28
  -8  -4  13    0.79    0.26
   8   4 -13    0.84    0.18
  -8   4  13    0.95    0.30
  -6  -4  13    0.88    0.38
   6  -4 -13    0.73    0.29
  -6  -4  13    1.11    0.28
  -6   4  13    1.15    0.28
  -4  -4  13    1.52    0.36
  -4  -4  13    1.90    0.31
  -4   4  13    2.10    0.30
  -2  -4  13    5.93    0.58
  -2  -4  13    7.04    0.55
  -2   4  13    6.37    0.53
  -2   4  13    6.59    0.51
   0  -4  13    5.17    0.49
   0  -4  13    5.08    0.52
   0   4  13    5.33    0.45
   0   4  13    4.99    0.47
  -2  -4 -13    7.63    0.66
   2  -4  13    8.59    0.65
   2  -4  13    8.48    0.67
   2   4  13    9.17    0.64
   2   4  13    9.07    0.61
   4  -4  13    5.17    0.51
   4  -4  13    5.62    0.41
  -4  -4 -13    6.32    0.60
   4   4  13    5.30    0.51
   4   4  13    5.03    0.49
  -6  -4 -13   10.62    0.85
   6  -4  13    9.89    0.75
   6  -4  13   11.62    0.68
   6   4  13   10.31    0.76
  -6   4 -13   10.24    0.84
   6   4  13   10.23    0.74
  -8  -4 -13    2.53    0.57
   8  -4  13    3.31    0.35
   8  -4  13    3.39    0.42
   8   4  13    3.42    0.41
   8   4  13    3.13    0.42
  -8   4 -13    3.57    0.54
  10  -4  13   -0.20    0.25
  10  -4  13    0.14    0.30
 -10  -4 -13    0.69    0.55
  10   4  13    0.10    0.33
 -10   4 -13    0.20    0.43
  10   4  13    0.17    0.34
  12  -4  13    4.18    0.49
 -12  -4 -13    4.05    0.71
  12  -4  13    4.45    0.47
  12   4  13    4.04    0.53
 -12   4 -13    4.62    0.70
  12   4  13    4.09    0.51
  14  -4  13    2.70    0.45
  14  -4  13    2.27    0.41
 -14  -4 -13    2.72    0.72
 -14   4 -13    3.28    0.66
  14   4  13    1.93    0.48
  16  -4  13    1.69    0.47
 -16  -4 -13    0.85    0.67
  16   4  13    1.15    0.49
 -16   4 -13    3.39    0.74
 -18  -4 -13    0.68    0.74
  18  -4  13    0.37    0.48
  18   4  13    0.44    0.49
 -18   4 -13    1.78    0.58
 -21  -5  13   -0.40    0.43
 -19  -5  13   -0.22    0.61
  19  -5 -13    0.89    0.34
 -19   5  13    0.87    0.45
  17  -5 -13    1.17    0.31
 -17  -5  13    0.49    0.59
 -17  -5  13    0.27    0.39
 -17   5  13    0.70    0.39
 -15  -5  13    0.69    0.36
  15  -5 -13    0.88    0.29
 -15  -5  13    0.68    0.56
 -15   5  13    0.86    0.37
 -13  -5  13    2.13    0.59
 -13  -5  13    2.52    0.41
 -13   5  13    2.39    0.40
 -11  -5  13    1.09    0.35
 -11  -5  13    0.65    0.49
 -11   5  13    1.16    0.35
 -11   5  13    1.03    0.38
  -9  -5  13    1.31    0.33
   9  -5 -13    1.20    0.32
  -9  -5  13    1.27    0.47
  -9   5  13    1.48    0.32
  -9   5  13    1.40    0.33
   7  -5 -13    2.13    0.36
  -7  -5  13    1.59    0.45
  -7  -5  13    1.74    0.30
  -7  -5  13    1.45    0.31
  -7   5  13    1.18    0.31
  -5  -5  13    4.05    0.57
   5  -5 -13    4.75    0.54
  -5   5  13    4.95    0.46
  -3  -5  13    1.64    0.37
   3  -5 -13    1.79    0.36
  -3  -5  13    1.78    0.33
  -3   5  13    1.89    0.30
  -1  -5  13    5.39    0.51
  -1  -5  13    4.97    0.54
  -1   5  13    5.34    0.46
   1  -5  13    5.26    0.54
   1  -5  13    5.33    0.52
   1   5  13    5.10    0.49
   1   5  13    5.53    0.46
  -3  -5 -13    9.37    0.69
   3  -5  13    8.68    0.69
   3  -5  13    8.06    0.66
   3   5  13    8.73    0.63
   3   5  13    8.53    0.66
   5  -5  13   11.37    0.82
   5  -5  13   11.87    0.72
  -5  -5 -13   12.20    0.89
   5   5  13   11.33    0.82
   5   5  13   11.28    0.79
  -5   5 -13   12.09    0.88
   7  -5  13    4.65    0.42
   7  -5  13    4.24    0.53
  -7  -5 -13    4.84    0.68
   7   5  13    4.78    0.51
  -7   5 -13    5.13    0.65
   7   5  13    4.99    0.55
   9  -5  13    2.03    0.31
   9  -5  13    2.24    0.40
  -9  -5 -13    1.38    0.55
   9   5  13    1.69    0.38
   9   5  13    2.08    0.39
  -9   5 -13    1.75    0.47
  11  -5  13    1.19    0.37
 -11  -5 -13    1.17    0.59
  11   5  13    0.26    0.37
 -11   5 -13    1.73    0.54
  11   5  13    1.40    0.40
  13  -5  13    5.10    0.58
 -13  -5 -13    4.88    0.80
  13  -5  13    4.94    0.60
  13   5  13    5.84    0.65
 -13   5 -13    6.19    0.81
  15  -5  13    0.35    0.39
 -15  -5 -13    1.04    0.66
 -15   5 -13    1.90    0.60
  15   5  13    0.79    0.47
  17  -5  13    1.32    0.49
 -17  -5 -13    1.89    0.77
 -17   5 -13    3.08    0.60
  17   5  13    1.44    0.53
  19  -5  13   -0.28    0.54
 -22  -6  13   -0.08    0.44
 -20  -6  13    0.37    0.42
 -20   6  13    0.62    0.44
 -18  -6  13    0.13    0.39
 -18  -6  13    0.46    0.62
  18  -6 -13    0.76    0.31
 -18   6  13    0.31    0.42
 -16  -6  13    0.11    0.54
  16  -6 -13    1.01    0.31
 -16  -6  13    0.38    0.37
 -16   6  13    0.52    0.36
 -14  -6  13    0.38    0.54
 -14  -6  13    0.59    0.35
  14  -6 -13    1.00    0.28
 -14   6  13    0.92    0.38
 -12  -6  13    0.40    0.50
 -12  -6  13    0.36    0.35
 -12   6  13    0.89    0.39
 -12   6  13    0.52    0.36
 -10  -6  13    3.99    0.42
 -10  -6  13    2.63    0.57
 -10   6  13    3.32    0.43
   8  -6 -13    2.36    0.40
  -8  -6  13    2.05    0.36
  -8  -6  13    1.51    0.49
  -8   6  13    1.44    0.34
  -8   6  13    2.10    0.35
   6  -6 -13    5.37    0.58
  -6  -6  13    3.34    0.52
  -6  -6  13    4.20    0.46
  -6   6  13    3.89    0.46
  -4  -6  13    4.02    0.48
   4  -6 -13    3.44    0.47
  -4  -6  13    3.80    0.54
  -4   6  13    3.65    0.42
  -2  -6  13    4.92    0.51
  -2  -6  13    4.04    0.51
   2  -6 -13    3.91    0.49
  -2   6  13    4.15    0.44
   0  -6  13    4.35    0.53
   0  -6 -13    4.19    0.56
   0  -6  13    4.92    0.51
   0   6  13    4.52    0.44
   2  -6  13   12.40    0.90
   2  -6  13   12.51    0.88
   2   6  13   13.86    0.84
   4  -6  13    5.61    0.58
  -4  -6 -13    7.80    0.67
   4   6  13    6.00    0.53
  -6  -6 -13    4.45    0.64
   6  -6  13    3.91    0.53
   6   6  13    4.47    0.49
  -6   6 -13    4.77    0.62
  -8  -6 -13    6.29    0.81
   8  -6  13    8.00    0.69
   8   6  13    7.88    0.68
  -8   6 -13    7.72    0.80
 -10  -6 -13    1.34    0.59
  10  -6  13    1.73    0.40
 -10   6 -13    1.57    0.51
  10   6  13    1.31    0.41
 -12  -6 -13    2.11    0.66
 -12  -6 -13    2.19    0.53
  12  -6  13    1.99    0.41
  12  -6  13    1.00    0.37
 -12   6 -13    2.43    0.59
  12   6  13    2.25    0.49
 -14  -6 -13    0.94    0.66
  14  -6  13    0.99    0.37
  14  -6  13    0.78    0.39
  14   6  13    1.36    0.51
 -14   6 -13    1.93    0.62
  16  -6  13    0.57    0.45
 -16  -6 -13    0.70    0.69
 -16   6 -13    2.30    0.65
  16   6  13    0.52    0.53
  18  -6  13    0.83    0.60
 -18  -6 -13    0.78    0.77
 -18   6 -13    3.61    0.86
 -21  -7  13    0.95    0.47
 -21   7  13    0.45    0.48
 -19  -7  13    0.32    0.42
 -19   7  13    0.45    0.43
  17  -7 -13    0.51    0.31
 -17  -7  13   -0.32    0.58
 -17  -7  13    0.25    0.38
 -17   7  13    0.29    0.42
 -15  -7  13    0.30    0.36
  15  -7 -13    1.04    0.31
 -15  -7  13    1.07    0.59
 -15   7  13    0.52    0.41
 -13  -7  13    0.65    0.37
 -13  -7  13    1.16    0.56
 -13   7  13    1.12    0.40
 -11  -7  13    1.71    0.38
 -11  -7  13    2.12    0.57
 -11   7  13    2.19    0.41
 -11   7  13    2.66    0.42
  -9  -7  13    1.99    0.37
   9  -7 -13    1.97    0.39
  -9  -7  13    0.99    0.50
  -9   7  13    1.59    0.36
  -9   7  13    1.72    0.38
   7  -7 -13    2.01    0.42
  -7  -7  13    1.23    0.38
  -7  -7  13    0.91    0.44
  -7   7  13    1.27    0.33
   5  -7 -13    3.28    0.48
  -5  -7  13    3.16    0.43
  -5  -7  13    2.48    0.47
  -5   7  13    2.72    0.37
  -3  -7  13    6.26    0.58
  -3  -7  13    5.40    0.60
   3  -7 -13    4.72    0.63
  -3   7  13    5.34    0.51
   1  -7 -13    4.53    0.56
  -1  -7  13    4.30    0.56
  -1  -7  13    5.26    0.54
  -1   7  13    5.20    0.47
  -1  -7 -13   12.58    0.92
   1  -7  13   12.32    0.88
   1  -7  13   11.69    0.86
   1   7  13   12.26    0.81
  -3  -7 -13    1.75    0.44
   3  -7  13    2.38    0.39
   3  -7  13    2.60    0.42
   3   7  13    2.23    0.34
   5  -7  13    2.32    0.39
  -5  -7 -13    1.34    0.46
  -5   7 -13    2.82    0.49
   5   7  13    2.55    0.37
   7  -7  13    4.61    0.58
  -7  -7 -13    4.86    0.64
  -7  -7 -13    4.32    0.72
   7   7  13    4.82    0.50
  -7   7 -13    4.95    0.71
  -9  -7 -13    4.33    0.64
   9  -7  13    4.46    0.59
  -9  -7 -13    4.65    0.69
   9   7  13    4.70    0.53
  -9   7 -13    5.36    0.72
 -11  -7 -13    1.73    0.52
 -11  -7 -13    2.14    0.65
  11  -7  13    1.70    0.42
 -11   7 -13    1.99    0.58
  11   7  13    2.10    0.46
  13  -7  13    0.36    0.35
 -13  -7 -13    0.14    0.61
  13   7  13    0.38    0.45
 -13   7 -13    1.05    0.57
 -15  -7 -13   -0.25    0.65
  15   7  13    0.82    0.50
 -15   7 -13    2.26    0.63
 -17  -7 -13    0.06    0.70
 -17   7 -13    1.97    0.73
 -20  -8  13    0.60    0.45
 -20   8  13    0.29    0.46
 -18  -8  13    0.65    0.42
 -18   8  13    0.28    0.44
 -16  -8  13   -0.01    0.60
  16  -8 -13    0.49    0.30
 -16  -8  13    0.38    0.38
 -16   8  13    0.53    0.43
 -14  -8  13    0.25    0.36
 -14  -8  13    0.57    0.59
 -14   8  13    0.97    0.41
 -12  -8  13    0.21    0.53
 -12   8  13    0.62    0.42
 -12   8  13    0.63    0.39
 -10  -8  13    1.55    0.55
 -10   8  13    1.50    0.42
 -10   8  13    1.15    0.36
  -8  -8  13    0.91    0.49
   8  -8 -13    0.66    0.38
  -8  -8  13    0.70    0.50
  -8   8  13    0.62    0.33
  -6  -8  13   -0.28    0.30
  -6  -8  13    0.08    0.41
   6  -8 -13    0.52    0.41
  -6   8  13    0.34    0.30
  -4  -8  13    0.12    0.38
  -4  -8  13    0.50    0.36
   4  -8 -13   -0.11    0.38
  -4   8  13    0.36    0.28
   2  -8 -13    3.74    0.55
  -2  -8  13    3.04    0.48
  -2  -8  13    3.94    0.52
  -2   8  13    3.82    0.45
   0  -8 -13    7.31    0.75
   0  -8  13    7.46    0.70
   0  -8  13    7.15    0.66
   0   8  13    8.01    0.60
   2  -8  13    1.88    0.40
   2  -8  13    1.76    0.39
  -2  -8 -13    0.99    0.42
   2   8  13    1.94    0.33
   4  -8  13    2.24    0.41
  -4  -8 -13    2.60    0.53
   4   8  13    2.46    0.37
   6  -8  13    0.70    0.36
  -6  -8 -13    1.03    0.50
  -6   8 -13    0.88    0.45
   6   8  13    1.03    0.35
   8  -8  13    1.04    0.39
  -8  -8 -13    2.01    0.54
  -8   8 -13    1.39    0.51
   8   8  13    0.79    0.38
 -10  -8 -13    2.27    0.57
  10  -8  13    1.32    0.42
  10   8  13    1.51    0.44
 -10   8 -13    2.22    0.56
 -12  -8 -13    1.82    0.55
 -12  -8 -13   -0.81    0.69
  12  -8  13    0.51    0.38
 -12   8 -13    1.00    0.56
  12   8  13    1.50    0.49
  14  -8  13    0.79    0.40
 -14  -8 -13    0.22    0.66
 -14   8 -13    1.67    0.63
  14   8  13    0.51    0.52
 -16  -8 -13   -0.44    0.67
 -16   8 -13    1.49    0.64
  16   8  13    0.60    0.51
 -19   9  13    0.25    0.47
 -17   9  13    0.11    0.45
  15  -9 -13    1.01    0.32
 -15  -9  13    0.32    0.62
 -15   9  13    0.51    0.43
 -13  -9  13    0.44    0.59
 -13   9  13    0.71    0.43
 -11  -9  13    0.42    0.56
 -11   9  13    1.07    0.41
 -11   9  13    0.48    0.38
   9  -9 -13    1.55    0.44
  -9  -9  13    0.18    0.53
  -9   9  13    0.42    0.34
   9   9 -13    0.44    0.25
  -9   9  13    0.65    0.40
   7  -9 -13    1.37    0.45
  -7  -9  13    0.42    0.28
  -7  -9  13    0.54    0.50
   7   9 -13    1.09    0.25
  -7   9  13    0.67    0.33
  -5  -9  13    1.80    0.43
   5  -9 -13    1.49    0.47
  -5  -9  13    1.11    0.46
  -5   9  13    1.65    0.34
   3  -9 -13    2.61    0.52
  -3  -9  13    2.00    0.48
  -3  -9  13    2.66    0.46
  -3   9  13    2.14    0.36
  -1  -9  13    4.99    0.66
   1  -9 -13    5.17    0.66
  -1  -9  13    5.62    0.61
  -1   9  13    6.38    0.55
  -1  -9 -13    2.21    0.51
   1  -9  13    2.15    0.45
   1  -9  13    1.99    0.41
   1   9  13    1.73    0.36
   3  -9  13    1.81    0.43
   3  -9  13    1.31    0.38
  -3  -9 -13    2.76    0.56
   3   9  13    1.68    0.37
   5  -9  13    2.76    0.47
  -5  -9 -13    2.96    0.60
   5   9  13    2.29    0.40
  -7  -9 -13    1.16    0.55
   7  -9  13    0.89    0.39
   7   9  13    1.10    0.39
  -7   9 -13    0.81    0.49
  -9  -9 -13    2.88    0.62
   9  -9  13    1.56    0.43
  -9   9 -13    2.24    0.57
   9   9  13    2.09    0.45
 -11  -9 -13    1.17    0.57
  11  -9  13   -0.10    0.36
  11   9  13    0.24    0.44
 -11   9 -13    0.79    0.51
  13  -9  13    0.25    0.39
 -13   9 -13    0.83    0.54
  13   9  13    0.28    0.49
  15   9  13   -0.08    0.53
 -15   9 -13    1.70    0.65
 -18  10  13    0.16    0.46
 -16  10  13    0.62    0.48
 -14 -10  13   -0.22    0.62
 -14  10  13    0.51    0.43
  14  10 -13    0.65    0.28
 -12 -10  13   -0.05    0.58
  12  10 -13   -0.07    0.24
 -12  10  13    0.09    0.39
 -12  10  13    0.47    0.44
 -10 -10  13   -0.35    0.58
 -10  10  13    0.28    0.34
  10  10 -13    0.55    0.24
 -10  10  13    0.18    0.40
  -8 -10  13    0.08    0.52
   8 -10 -13    0.97    0.46
  -8  10  13   -0.24    0.36
   8  10 -13    0.09    0.24
  -8  10  13   -0.02    0.32
   6 -10 -13    1.85    0.52
  -6 -10  13    1.26    0.53
  -6 -10  13    1.60    0.44
  -6  10  13    0.97    0.34
   6  10 -13    2.09    0.30
   4 -10 -13    2.11    0.53
  -4 -10  13    2.30    0.53
  -4 -10  13    2.47    0.47
  -4  10  13    1.83    0.36
  -2 -10  13    2.64    0.47
   2 -10 -13    2.55    0.54
  -2 -10  13    2.09    0.51
  -2  10  13    2.55    0.40
   0 -10  13    0.62    0.41
   0 -10  13    0.02    0.39
   0 -10 -13    0.34    0.46
   0  10  13    0.38    0.34
   2 -10  13    0.04    0.38
   2 -10  13   -0.18    0.37
  -2 -10 -13    0.47    0.49
   2  10  13    0.32    0.33
  -4 -10 -13    1.15    0.53
   4 -10  13    1.19    0.41
   4  10  13    1.30    0.37
  -6 -10 -13    0.84    0.55
   6 -10  13    0.83    0.41
  -6  10 -13    1.19    0.51
   6  10  13    1.21    0.38
   8 -10  13    1.42    0.44
  -8 -10 -13    2.11    0.60
  -8  10 -13    2.59    0.60
   8  10  13    1.88    0.43
 -10 -10 -13    0.92    0.57
  10 -10  13   -0.04    0.36
 -10  10 -13    0.53    0.51
  10  10  13    0.09    0.41
 -12 -10 -13    1.44    0.61
  12 -10  13   -0.03    0.37
 -12  10 -13    0.49    0.54
  12  10  13   -0.03    0.45
  14 -10  13    0.78    0.43
  14  10  13   -0.27    0.49
 -14  10 -13    1.04    0.60
 -17  11  13    0.57    0.48
 -15  11  13    0.47    0.48
  15  11 -13    0.33    0.29
 -13 -11  13   -0.41    0.64
 -13  11  13   -0.19    0.44
  13  11 -13    0.47    0.27
 -11 -11  13    0.22    0.64
 -11  11  13   -0.25    0.41
 -11  11  13   -0.27    0.37
  11  11 -13   -0.12    0.24
   9 -11 -13    0.17    0.44
  -9 -11  13   -0.24    0.57
  -9  11  13    0.23    0.34
   9  11 -13    0.14    0.25
  -9  11  13    0.03    0.38
  -7 -11  13   -0.03    0.41
   7 -11 -13    0.50    0.48
  -7 -11  13   -0.03    0.52
  -7  11  13    0.53    0.33
   7  11 -13    0.13    0.26
   5 -11 -13    1.15    0.55
  -5 -11  13    0.59    0.50
  -5 -11  13    0.45    0.43
  -5  11  13    0.55    0.33
   5  11 -13    1.15    0.29
  -3 -11  13    0.16    0.42
   3 -11 -13    0.90    0.52
  -3 -11  13   -0.19    0.45
  -3  11  13    0.56    0.31
  -1 -11  13    0.46    0.45
   1 -11 -13    0.80    0.54
  -1 -11  13    0.81    0.44
  -1  11  13    0.90    0.33
   1 -11  13    0.79    0.43
  -1 -11 -13    0.41    0.52
   1 -11  13    0.15    0.43
   1  11  13    1.15    0.37
   3 -11  13   -0.10    0.40
  -3 -11 -13    0.32    0.54
   3 -11  13    0.16    0.40
   3  11  13    0.10    0.34
  -5 -11 -13    3.52    0.68
   5 -11  13    2.44    0.49
  -5  11 -13    1.97    0.57
   5  11  13    2.80    0.44
   7 -11  13   -0.08    0.40
  -7 -11 -13    0.99    0.59
  -7  11 -13    0.10    0.47
   7  11  13    0.04    0.36
   9 -11  13    0.08    0.41
  -9 -11 -13    0.96    0.63
   9  11  13    0.03    0.38
  -9  11 -13    0.58    0.48
  11 -11  13    0.16    0.40
 -11 -11 -13    1.61    0.65
 -11  11 -13    1.08    0.55
  11  11  13    0.75    0.46
  13 -11  13    0.18    0.39
  13  11  13    0.60    0.49
 -13  11 -13    1.21    0.56
 -15  11 -13    1.33    0.77
  16  12 -13    0.41    0.32
 -16  12  13    0.19    0.46
  14  12 -13    0.50    0.29
 -14  12  13    0.04    0.43
 -12 -12  13    0.17    0.70
 -12  12  13    0.01    0.37
  12  12 -13    0.39    0.26
 -12  12  13   -0.35    0.41
 -10 -12  13   -0.51    0.61
 -10  12  13   -0.45    0.40
  10  12 -13    0.06    0.26
 -10  12  13   -0.26    0.34
   8 -12 -13    0.56    0.51
  -8 -12  13   -0.20    0.58
  -8  12  13   -0.43    0.36
  -8  12  13    0.40    0.33
   8  12 -13    0.31    0.27
  -6 -12  13    0.22    0.45
  -6 -12  13    0.19    0.52
   6 -12 -13    0.81    0.55
  -6  12  13    0.02    0.34
   6  12 -13    0.27    0.28
  -6  12  13   -0.01    0.31
  -4 -12  13    0.73    0.51
  -4 -12  13    0.34    0.46
   4 -12 -13    0.79    0.56
   4  12 -13    0.09    0.28
  -4  12  13    0.31    0.30
  -2 -12  13    0.11    0.45
  -2 -12  13   -0.27    0.42
   2 -12 -13    0.78    0.60
  -2  12  13   -0.07    0.28
   0 -12 -13    0.48    0.56
   0 -12  13   -0.16    0.43
   0 -12  13   -0.22    0.41
   0  12  13    0.03    0.28
   2 -12  13    0.10    0.41
   2 -12  13   -0.12    0.43
  -2 -12 -13    1.01    0.60
   2  12  13    0.37    0.36
  -4 -12 -13    0.69    0.61
   4 -12  13   -0.31    0.42
   4  12  13    0.32    0.36
  -6 -12 -13    0.47    0.61
   6 -12  13   -0.38    0.42
  -6  12 -13    0.67    0.50
   6  12  13    0.17    0.36
  -8 -12 -13    1.01    0.67
   8 -12  13    0.17    0.43
   8  12  13    0.49    0.38
  -8  12 -13    0.32    0.49
 -10 -12 -13    1.46    0.68
  10 -12  13   -0.07    0.41
 -10  12 -13    0.79    0.52
  10  12  13    0.52    0.43
  12 -12  13   -0.13    0.41
  12  12  13    0.50    0.48
 -12  12 -13    1.02    0.70
 -15  13  13    0.49    0.49
  15  13 -13    0.06    0.32
 -13  13  13    0.25    0.52
  13  13 -13    0.34    0.31
 -11 -13  13    0.34    0.69
 -11  13  13    0.06    0.45
 -11  13  13   -0.25    0.34
  11  13 -13    0.31    0.28
  -9 -13  13   -0.37    0.61
   9 -13 -13    0.06    0.55
  -9  13  13   -0.42    0.39
   9  13 -13    0.33    0.28
  -9  13  13   -0.25    0.32
   7 -13 -13    0.31    0.55
  -7 -13  13    0.24    0.50
  -7 -13  13    0.06    0.58
   7  13 -13    0.25    0.28
  -7  13  13    0.57    0.34
  -7  13  13   -0.16    0.37
  -5 -13  13   -0.01    0.53
  -5 -13  13   -0.40    0.48
   5 -13 -13    1.35    0.61
   5  13 -13    0.36    0.30
  -5  13  13    0.29    0.32
  -3 -13  13    0.44    0.50
   3 -13 -13    0.85    0.62
  -3 -13  13    0.27    0.45
  -3  13  13   -0.08    0.28
  -1 -13  13   -0.13    0.45
   1 -13 -13    0.68    0.63
  -1 -13  13   -0.48    0.45
  -1  13  13    0.16    0.28
   1 -13  13   -0.10    0.46
   1 -13  13    0.35    0.43
  -1 -13 -13    0.85    0.67
   1  13  13    0.44    0.29
  -3 -13 -13    2.09    0.69
   3 -13  13    0.30    0.45
   3 -13  13    0.35    0.47
   3  13  13    1.01    0.38
  -5 -13 -13    1.32    0.70
   5 -13  13    0.71    0.47
   5  13  13    0.47    0.37
  -5  13 -13    0.36    0.50
  -7 -13 -13    2.28    0.76
   7 -13  13    0.52    0.46
  -7  13 -13    0.62    0.51
   7  13  13    0.80    0.40
  -9 -13 -13    1.44    0.71
   9 -13  13   -0.18    0.45
   9  13  13    0.80    0.40
 -11 -13 -13    1.32    0.78
  11  13  13    0.22    0.44
 -14  14  13   -0.44    0.44
  14  14 -13    0.48    0.34
  12  14 -13    0.43    0.31
 -10  14  13   -0.14    0.34
  10  14 -13    0.21    0.28
   8 -14 -13   -0.89    0.56
  -8 -14  13   -0.36    0.59
  -8  14  13   -0.32    0.38
   8  14 -13    0.08    0.28
  -8  14  13   -0.18    0.32
  -6 -14  13   -0.30    0.45
  -6 -14  13   -0.09    0.55
   6 -14 -13    0.63    0.63
  -6  14  13   -0.36    0.30
  -6  14  13   -0.22    0.35
  -4 -14  13   -0.03    0.50
  -4 -14  13    0.38    0.57
   4 -14 -13    0.21    0.61
   4  14 -13    0.51    0.31
  -4  14  13    0.06    0.30
  -2 -14  13    0.81    0.52
  -2 -14  13   -0.24    0.51
   2 -14 -13    0.43    0.67
  -2  14  13    0.18    0.28
   0 -14 -13    1.05    0.70
   0 -14  13   -0.28    0.48
   0 -14  13    0.51    0.48
   0  14  13    0.46    0.29
   2 -14  13    0.13    0.51
   2 -14  13    0.00    0.46
  -2 -14 -13    1.19    0.74
   2  14  13    0.45    0.30
   4 -14  13   -0.11    0.48
  -4 -14 -13    0.11    0.73
   4  14  13    0.73    0.37
   6 -14  13    0.48    0.50
  -6 -14 -13    2.04    0.78
   6  14  13    1.14    0.39
  -8 -14 -13    2.00    0.82
   8  14  13    0.24    0.39
  10  14  13    1.00    0.53
  11  15 -13    0.39    0.30
 -11  15  13   -0.34    0.40
   9  15 -13    0.21    0.32
   7 -15 -13   -0.97    0.68
  -7 -15  13    0.41    0.63
  -7  15  13    0.10    0.34
  -7  15  13   -0.19    0.36
   5 -15 -13    0.43    0.74
  -5 -15  13   -0.03    0.58
  -5 -15  13   -0.30    0.48
   5  15 -13    0.26    0.30
  -5  15  13    0.12    0.31
  -3 -15  13    0.37    0.57
  -3 -15  13   -0.02    0.53
   3 -15 -13    0.87    0.74
  -3  15  13    0.30    0.31
   3  15 -13    0.18    0.33
   1 -15 -13    0.88    0.75
  -1 -15  13   -0.27    0.54
  -1 -15  13   -0.18    0.53
  -1  15  13   -0.03    0.28
   1 -15  13    0.55    0.56
  -1 -15 -13    1.08    0.80
   1  15  13    0.62    0.30
  -3 -15 -13    1.36    1.04
   3  15  13    0.20    0.32
 -10  16  13   -0.51    0.41
   8  16 -13   -0.17    0.30
  -6  16  13    0.16    0.38
   5  17 -13    0.27    0.35
 -22   0  14    0.02    0.42
  20   0 -14    1.18    0.38
 -18   0  14    0.02    0.53
 -18   0  14    0.21    0.35
  18   0 -14    0.92    0.32
 -16   0  14    0.46    0.52
 -16   0  14    0.16    0.34
  16   0 -14    1.17    0.30
  14   0 -14    2.52    0.33
 -14   0  14    1.63    0.37
 -14   0  14    1.54    0.50
  12   0 -14    1.36    0.26
 -12   0  14    0.94    0.33
 -12   0  14    0.58    0.46
 -10   0  14    9.65    0.61
 -10   0  14    6.93    0.75
  -8   0  14   28.22    1.49
  -8   0  14   22.91    1.55
  -6   0  14   19.31    1.08
  -6   0  14   15.25    1.13
  -6   0  14   19.46    1.08
  -4   0  14   10.26    0.75
  -4   0  14    8.96    0.66
  -4   0  14   12.67    0.71
  -2   0  14    2.24    0.29
  -2   0  14    1.99    0.26
  -2   0  14    2.78    0.36
   0   0  14    3.50    0.44
   0   0  14    3.69    0.36
   0   0  14    3.76    0.39
   2   0  14   34.53    1.90
   2   0  14   32.43    1.93
  -2   0 -14   33.56    1.98
  -4   0 -14   20.89    1.37
   4   0  14   21.81    1.31
   4   0  14   22.34    1.27
   6   0  14    8.11    0.59
   6   0  14    7.46    0.62
  -6   0 -14    8.21    0.72
   8   0  14   13.83    0.90
  -8   0 -14   13.29    1.02
   8   0  14   13.83    0.92
  10   0  14    4.13    0.53
  10   0  14    4.37    0.46
 -10   0 -14    3.19    0.60
  12   0  14    1.35    0.39
 -12   0 -14    1.60    0.55
  12   0  14    0.94    0.36
  14   0  14    1.76    0.47
  14   0  14    2.03    0.41
 -14   0 -14    2.85    0.62
 -16   0 -14    2.47    0.61
  16   0  14    1.05    0.49
  18   0  14    0.22    0.50
 -18   0 -14    1.74    0.65
 -21  -1  14   -0.80    0.57
 -21  -1  14   -0.13    0.41
  21   1 -14    1.12    0.44
 -19  -1  14   -0.28    0.56
  19  -1 -14    0.62    0.32
 -19  -1  14    0.37    0.38
  19   1 -14    1.00    0.36
 -17  -1  14   -0.22    0.34
 -17  -1  14   -0.53    0.52
  17  -1 -14    0.54    0.29
  17   1 -14    0.64    0.31
 -17   1  14    0.06    0.34
 -15  -1  14    1.18    0.38
 -15  -1  14    1.72    0.52
  15  -1 -14    3.18    0.36
 -15   1  14    1.82    0.38
  15   1 -14    2.91    0.35
 -15   1  14    0.81    0.70
 -13  -1  14    2.34    0.38
 -13  -1  14    1.96    0.53
  13  -1 -14    3.58    0.39
 -13   1  14    1.25    0.37
 -13   1  14    2.03    0.37
 -11  -1  14    2.84    0.36
 -11  -1  14    2.29    0.51
 -11   1  14    2.68    0.36
 -11   1  14    1.47    0.39
  11   1 -14    2.55    0.29
  -9  -1  14    2.05    0.47
  -9   1  14    2.76    0.36
  -9   1  14    2.09    0.40
  -7  -1  14    4.51    0.43
  -7  -1  14    5.59    0.60
  -7  -1  14    5.10    0.45
  -7   1  14    5.50    0.48
  -7   1  14    6.55    0.57
  -7   1  14    5.63    0.46
  -5  -1  14   10.17    0.70
  -5  -1  14   11.58    0.81
  -5   1  14   10.82    0.73
  -5   1  14   12.30    0.78
  -3  -1  14    8.01    0.54
  -3  -1  14    7.93    0.58
  -3  -1  14    8.14    0.64
  -3   1  14    7.49    0.61
  -3   1  14    8.21    0.57
  -3   1  14    8.34    0.57
  -1  -1  14    4.19    0.48
  -1  -1  14    4.18    0.37
  -1  -1  14    4.23    0.42
  -1   1  14    4.39    0.40
  -1   1  14    3.91    0.41
   1  -1  14    4.40    0.40
   1  -1  14    5.62    0.53
   1  -1  14    5.83    0.48
   1   1  14    5.98    0.45
   1   1  14    5.80    0.48
   3  -1  14   15.88    0.98
  -3  -1 -14   15.20    1.04
   3   1  14   16.38    0.95
   3   1  14   15.71    0.98
  -3   1 -14   14.69    1.04
  -5  -1 -14    6.21    0.66
   5  -1  14    7.72    0.53
   5  -1  14    6.91    0.57
  -5   1 -14    6.44    0.67
   5   1  14    6.89    0.58
   5   1  14    7.60    0.55
  -7  -1 -14    6.04    0.67
   7  -1  14    5.81    0.49
   7  -1  14    5.39    0.54
  -7   1 -14    6.03    0.64
   7   1  14    5.84    0.52
   7   1  14    5.60    0.55
   9  -1  14    1.81    0.36
  -9  -1 -14    1.73    0.52
   9  -1  14    2.11    0.33
   9   1  14    1.64    0.34
  -9   1 -14    1.24    0.45
   9   1  14    1.45    0.35
  11  -1  14    2.06    0.41
  11  -1  14    2.15    0.39
 -11  -1 -14    1.96    0.56
 -11   1 -14    1.99    0.56
  11   1  14    1.79    0.39
  11   1  14    1.58    0.39
  13  -1  14    4.36    0.56
  13  -1  14    4.94    0.55
 -13  -1 -14    4.72    0.72
 -13   1 -14    4.59    0.70
  13   1  14    3.75    0.54
  13   1  14    4.00    0.50
  15  -1  14    1.27    0.46
 -15  -1 -14    1.66    0.58
  15   1  14    0.77    0.44
 -15   1 -14    1.97    0.57
 -17  -1 -14    0.90    0.62
  17  -1  14    0.27    0.46
  17   1  14   -0.13    0.46
 -17   1 -14    1.83    0.59
 -22   2  14   -0.35    0.41
 -20  -2  14    0.45    0.39
 -20  -2  14    0.14    0.63
  20  -2 -14    1.31    0.36
 -20   2  14    0.28    0.39
  18  -2 -14    0.40    0.30
 -18  -2  14   -0.04    0.55
 -18   2  14    0.06    0.36
  18   2 -14    0.63    0.34
 -16  -2  14    0.44    0.35
 -16  -2  14    0.59    0.55
  16  -2 -14    1.51    0.31
 -16   2  14    0.63    0.36
  16   2 -14    1.28    0.31
 -14  -2  14    1.55    0.54
  14  -2 -14    2.42    0.33
 -14  -2  14    1.40    0.38
 -14   2  14    1.64    0.39
  14   2 -14    2.48    0.32
 -12  -2  14    1.38    0.36
 -12  -2  14    1.32    0.53
 -12   2  14    2.08    0.37
 -12   2  14    1.26    0.48
 -10  -2  14    2.57    0.52
 -10  -2  14    1.44    0.34
  10   2 -14    2.31    0.26
 -10   2  14    1.75    0.42
 -10   2  14    2.46    0.38
  -8  -2  14    5.83    0.46
  -8  -2  14    5.69    0.65
  -8   2  14    4.91    0.49
  -8   2  14    5.84    0.48
  -8   2  14    5.99    0.56
  -8   2  14    5.95    0.52
  -6  -2  14    2.01    0.26
  -6  -2  14    2.28    0.31
  -6  -2  14    2.12    0.43
  -6   2  14    2.61    0.32
  -6   2  14    2.37    0.32
  -6   2  14    2.45    0.34
  -4  -2  14    2.88    0.41
  -4  -2  14    2.67    0.33
  -4  -2  14    2.39    0.30
  -4   2  14    2.78    0.35
  -4   2  14    2.72    0.36
  -4   2  14    2.88    0.32
  -2  -2  14    2.31    0.24
  -2  -2  14    2.48    0.31
  -2  -2  14    2.43    0.37
  -2   2  14    2.48    0.29
  -2   2  14    1.95    0.30
  -2   2  14    2.44    0.32
   0  -2  14    3.92    0.34
   0  -2  14    3.63    0.41
   0  -2  14    3.83    0.48
   0   2  14    4.07    0.41
   0   2  14    3.98    0.40
   2  -2  14    3.35    0.47
  -2  -2 -14    3.35    0.42
   2  -2  14    3.19    0.32
   2  -2  14    2.97    0.40
   2   2  14    3.39    0.39
   2   2  14    3.44    0.38
  -4  -2 -14    5.27    0.59
   4  -2  14    5.42    0.43
   4  -2  14    5.73    0.50
   4   2  14    6.54    0.51
   4   2  14    6.12    0.49
  -4   2 -14    5.19    0.58
   6  -2  14    9.67    0.68
  -6  -2 -14    8.98    0.79
   6  -2  14    8.55    0.61
   6   2  14    9.63    0.66
  -6   2 -14    8.87    0.76
   6   2  14    8.59    0.68
  -8  -2 -14    3.00    0.55
   8  -2  14    2.32    0.38
   8  -2  14    1.71    0.30
   8   2  14    2.01    0.35
  -8   2 -14    3.30    0.50
   8   2  14    2.06    0.38
 -10  -2 -14    3.96    0.64
  10  -2  14    4.83    0.47
  10  -2  14    4.77    0.52
  10   2  14    4.45    0.55
  10   2  14    4.59    0.49
 -10   2 -14    3.84    0.62
  12  -2  14    8.45    0.74
  12  -2  14    9.21    0.76
 -12  -2 -14    9.01    0.97
  12   2  14    9.37    0.75
 -12   2 -14    8.01    0.94
  12   2  14    8.94    0.78
  14  -2  14    3.15    0.45
 -14  -2 -14    2.07    0.62
  14  -2  14    2.26    0.46
  14   2  14    2.48    0.50
  14   2  14    2.25    0.45
 -14   2 -14    3.11    0.65
 -16  -2 -14    0.57    0.61
  16  -2  14   -0.17    0.42
 -16   2 -14    1.97    0.56
  16   2  14   -0.30    0.45
 -18  -2 -14    1.61    0.72
  18  -2  14    0.19    0.50
 -18   2 -14    1.76    0.62
  18   2  14    0.54    0.53
 -21  -3  14    0.25    0.42
 -21   3  14   -0.22    0.43
 -19  -3  14   -0.10    0.61
  19  -3 -14    1.17    0.33
 -19  -3  14   -0.02    0.37
 -19   3  14    0.14    0.40
  17  -3 -14    0.73    0.30
 -17  -3  14   -0.14    0.55
 -17  -3  14    0.24    0.36
 -17   3  14    0.12    0.37
  15  -3 -14    1.63    0.32
 -15  -3  14    0.96    0.38
 -15  -3  14    0.50    0.54
 -15   3  14    0.90    0.38
 -13  -3  14    1.81    0.59
  13   3 -14    1.60    0.28
 -11  -3  14    1.97    0.56
 -11   3  14    2.80    0.43
 -11   3  14    2.12    0.38
  11   3 -14    2.87    0.33
   9  -3 -14    0.18    0.24
  -9  -3  14    0.55    0.29
  -9  -3  14    0.17    0.42
   9   3 -14   -0.25    0.16
  -9   3  14    0.15    0.30
  -9   3  14   -0.36    0.28
  -7  -3  14    0.35    0.39
  -7  -3  14    0.68    0.25
  -7   3  14    0.24    0.28
  -5  -3  14    0.52    0.17
  -5  -3  14    1.02    0.20
  -5  -3  14    0.84    0.36
  -5   3  14    0.90    0.27
  -5   3  14    0.88    0.27
  -3  -3  14    2.99    0.39
  -3  -3  14    2.26    0.27
  -3  -3  14    2.86    0.40
  -3   3  14    2.47    0.33
  -3   3  14    2.70    0.33
  -1  -3  14    8.56    0.62
  -1  -3  14    7.84    0.53
  -1  -3  14    8.27    0.67
  -1   3  14    8.38    0.59
  -1   3  14    8.06    0.61
  -1  -3 -14    0.52    0.29
   1  -3  14    0.63    0.17
   1  -3  14    0.53    0.26
   1  -3  14    0.70    0.30
   1   3  14    0.65    0.24
   1   3  14    0.77    0.26
   3  -3  14    0.33    0.17
  -3  -3 -14    0.44    0.32
   3  -3  14    0.27    0.25
   3   3  14    0.32    0.24
   3   3  14    0.21    0.25
   5  -3  14    8.63    0.69
   5  -3  14    9.75    0.62
  -5  -3 -14    9.51    0.79
   5   3  14    9.03    0.69
  -5   3 -14    9.52    0.77
   5   3  14    9.46    0.67
  -7  -3 -14    1.97    0.48
   7  -3  14    1.15    0.32
  -7   3 -14    1.62    0.42
   7   3  14    1.04    0.31
   7   3  14    1.63    0.34
   9  -3  14    0.96    0.33
   9  -3  14    1.05    0.28
  -9  -3 -14    1.00    0.52
   9   3  14    1.17    0.35
   9   3  14    0.80    0.33
  -9   3 -14    1.22    0.43
 -11  -3 -14    9.04    0.95
  11  -3  14    9.28    0.72
  11  -3  14   10.09    0.77
  11   3  14    9.13    0.76
 -11   3 -14    8.56    0.91
  11   3  14    9.37    0.79
 -13  -3 -14    0.89    0.58
  13  -3  14    0.82    0.38
  13  -3  14    0.89    0.37
 -13   3 -14    1.36    0.58
  13   3  14    0.84    0.42
  13   3  14    0.35    0.37
 -15  -3 -14    1.00    0.64
  15  -3  14    1.29    0.44
  15   3  14    0.62    0.44
 -15   3 -14    2.04    0.64
 -17  -3 -14    0.80    0.68
  17  -3  14    0.52    0.47
 -17   3 -14    2.02    0.57
  17   3  14    0.41    0.49
 -22  -4  14   -0.15    0.46
 -22   4  14   -0.18    0.44
 -20  -4  14   -0.07    0.43
 -20   4  14   -0.18    0.40
  18  -4 -14    0.83    0.30
 -18  -4  14    0.23    0.38
 -18  -4  14   -0.02    0.60
 -18   4  14   -0.22    0.40
 -16  -4  14   -0.29    0.58
 -16  -4  14    0.15    0.35
  16  -4 -14    0.36    0.29
 -16   4  14    0.24    0.38
  14  -4 -14    0.89    0.27
 -14  -4  14    0.91    0.37
 -14  -4  14    0.34    0.56
 -14   4  14    0.62    0.36
 -12  -4  14    0.24    0.34
 -12  -4  14    0.56    0.54
 -12   4  14    0.35    0.34
 -10  -4  14    0.09    0.31
 -10  -4  14    0.15    0.47
 -10   4  14    0.39    0.34
  -8  -4  14    0.95    0.28
  -8  -4  14    1.04    0.31
   8  -4 -14    0.50    0.28
  -8  -4  14    0.93    0.45
  -8   4  14    0.53    0.29
  -8   4  14    0.62    0.31
  -6  -4  14    3.54    0.51
  -6  -4  14    3.53    0.42
  -6   4  14    4.24    0.45
  -4  -4  14    0.56    0.34
  -4  -4  14    0.88    0.29
  -4   4  14    0.77    0.28
  -4   4  14    0.98    0.29
  -2  -4  14    0.72    0.29
  -2  -4  14    0.70    0.32
  -2   4  14    0.86    0.26
  -2   4  14    0.96    0.29
   0  -4  14    0.75    0.32
   0  -4  14    0.78    0.29
   0   4  14    1.08    0.25
   0   4  14    0.86    0.27
   2  -4  14    0.44    0.27
   2  -4  14    0.24    0.16
  -2  -4 -14   -0.28    0.29
   2  -4  14    0.52    0.30
   2   4  14    0.51    0.24
   2   4  14    0.30    0.25
  -4  -4 -14   10.09    0.82
   4  -4  14   11.33    0.68
   4  -4  14   10.41    0.76
   4   4  14   11.07    0.74
   4   4  14   10.75    0.76
  -4   4 -14   10.61    0.82
  -6  -4 -14    1.62    0.45
   6  -4  14    1.21    0.23
   6  -4  14    1.02    0.32
  -6   4 -14    1.31    0.40
   6   4  14    1.04    0.33
   6   4  14    1.23    0.31
   8  -4  14    0.44    0.23
   8  -4  14    0.33    0.32
  -8  -4 -14    0.22    0.48
  -8   4 -14    0.28    0.39
   8   4  14    0.43    0.33
   8   4  14    0.44    0.33
 -10  -4 -14    1.02    0.53
  10  -4  14    0.47    0.33
  10  -4  14    0.20    0.26
  10   4  14   -0.11    0.37
  10   4  14    0.07    0.35
 -10   4 -14    0.25    0.46
 -12  -4 -14    1.64    0.60
  12  -4  14    1.51    0.37
  12  -4  14    1.26    0.35
  12   4  14    1.50    0.45
 -12   4 -14    1.87    0.57
  12   4  14    1.14    0.40
  14  -4  14    0.78    0.38
 -14  -4 -14    1.54    0.65
  14  -4  14    0.75    0.39
  14   4  14    0.53    0.44
 -14   4 -14    1.03    0.57
  16  -4  14    0.41    0.43
 -16  -4 -14    1.33    0.69
  16   4  14    0.34    0.48
 -16   4 -14    2.98    0.73
 -18  -4 -14    0.42    0.71
  18  -4  14    0.00    0.49
 -18   4 -14    2.22    0.78
 -21  -5  14   -0.35    0.44
 -21   5  14   -0.02    0.47
 -19  -5  14    0.53    0.42
 -19  -5  14    0.21    0.67
 -19   5  14   -0.10    0.41
 -17  -5  14   -0.32    0.58
 -17  -5  14   -0.22    0.38
  17  -5 -14    0.59    0.31
 -17   5  14    0.03    0.38
  15  -5 -14    0.33    0.28
 -15  -5  14    0.35    0.38
 -15  -5  14   -0.11    0.56
 -15   5  14    0.65    0.39
 -13  -5  14    0.07    0.52
 -13  -5  14    0.31    0.35
 -13   5  14   -0.24    0.34
 -11  -5  14    0.15    0.35
 -11  -5  14    0.19    0.48
 -11   5  14    0.11    0.34
 -11   5  14   -0.02    0.36
  -9  -5  14    0.46    0.46
  -9  -5  14    0.21    0.32
   9  -5 -14    0.86    0.31
  -9   5  14    0.85    0.34
   7  -5 -14    0.35    0.31
  -7  -5  14    0.01    0.39
  -7  -5  14    0.19    0.29
  -7   5  14    0.50    0.30
  -5  -5  14    0.43    0.27
   5  -5 -14    0.33    0.31
  -5  -5  14    0.45    0.36
  -5   5  14    0.26    0.27
  -3  -5  14    0.81    0.31
  -3  -5  14    0.35    0.32
  -3   5  14    0.65    0.27
  -1  -5  14    0.25    0.31
  -1  -5  14    0.38    0.29
  -1   5  14    0.38    0.25
   1  -5  14    0.14    0.30
   1  -5  14    0.07    0.27
   1   5  14    0.25    0.25
   1   5  14    0.08    0.26
   3  -5  14    6.43    0.59
  -3  -5 -14    6.93    0.63
   3  -5  14    6.58    0.60
   3   5  14    6.53    0.54
   3   5  14    6.70    0.58
   5  -5  14    1.00    0.31
  -5  -5 -14    0.50    0.40
   5   5  14    0.77    0.32
  -5   5 -14    1.04    0.36
   5   5  14    0.45    0.29
  -7  -5 -14    5.13    0.72
   7  -5  14    5.42    0.57
   7  -5  14    5.70    0.46
   7   5  14    5.10    0.56
   7   5  14    5.31    0.59
  -7   5 -14    5.03    0.68
  -9  -5 -14    2.01    0.56
   9  -5  14    2.07    0.41
   9  -5  14    2.09    0.31
  -9   5 -14    2.22    0.52
   9   5  14    1.79    0.42
   9   5  14    1.92    0.41
 -11  -5 -14    0.98    0.58
  11  -5  14    0.60    0.34
  11  -5  14    0.02    0.17
 -11   5 -14    1.16    0.53
  11   5  14    0.48    0.38
  11   5  14    0.74    0.41
 -13  -5 -14    2.35    0.68
  13  -5  14    2.59    0.43
  13  -5  14    1.70    0.40
  13   5  14    2.21    0.51
 -13   5 -14    2.21    0.63
 -15  -5 -14    0.48    0.65
  15  -5  14    0.35    0.41
  15   5  14    0.25    0.49
 -15   5 -14    1.35    0.59
 -17  -5 -14    0.36    0.69
  17  -5  14   -0.24    0.45
  17   5  14   -0.03    0.47
 -20  -6  14    0.10    0.42
 -20   6  14    0.08    0.49
  18  -6 -14    0.30    0.31
 -18  -6  14   -0.45    0.62
 -18   6  14   -0.02    0.41
 -16  -6  14   -0.21    0.36
  16  -6 -14    0.05    0.28
 -16  -6  14   -0.64    0.57
 -16   6  14   -0.05    0.40
 -14  -6  14   -0.06    0.35
 -14  -6  14   -0.09    0.53
 -14   6  14   -0.19    0.38
 -12  -6  14    0.35    0.51
 -12  -6  14    1.08    0.37
 -12   6  14    1.27    0.40
 -12   6  14    1.73    0.42
 -10  -6  14    0.25    0.48
 -10  -6  14    0.22    0.34
 -10   6  14    0.11    0.35
 -10   6  14   -0.03    0.35
  -8  -6  14   -0.13    0.36
   8  -6 -14    0.35    0.32
  -8  -6  14   -0.54    0.43
  -8   6  14   -0.08    0.30
  -6  -6  14    1.18    0.43
   6  -6 -14    0.69    0.35
  -6  -6  14    0.75    0.31
  -6   6  14    0.91    0.31
  -4  -6  14    0.90    0.35
  -4  -6  14    0.84    0.38
   4  -6 -14    0.46    0.34
  -4   6  14    0.60    0.29
  -2  -6  14    0.68    0.33
   2  -6 -14    0.54    0.35
  -2  -6  14    0.72    0.33
  -2   6  14    0.63    0.27
   0  -6  14    0.14    0.32
   0  -6 -14   -0.32    0.31
   0  -6  14    0.03    0.30
   0   6  14    0.08    0.25
   2  -6  14    0.86    0.33
   2  -6  14    1.02    0.33
   2   6  14    1.01    0.27
   4  -6  14    0.50    0.31
   4   6  14    0.62    0.28
   6  -6  14    6.34    0.62
  -6  -6 -14    6.62    0.72
  -6   6 -14    6.31    0.71
   6   6  14    5.99    0.58
  -8  -6 -14    1.17    0.53
   8  -6  14    1.37    0.38
   8   6  14    1.30    0.37
  -8   6 -14    1.29    0.48
 -10  -6 -14   -0.01    0.55
  10  -6  14    0.10    0.35
  10   6  14    0.44    0.39
 -10   6 -14    0.39    0.46
 -12  -6 -14    0.44    0.63
  12  -6  14    0.41    0.36
 -12   6 -14    0.80    0.53
  12   6  14    0.98    0.45
 -14  -6 -14    0.02    0.63
  14  -6  14    0.19    0.34
  14   6  14   -0.13    0.45
 -14   6 -14    0.71    0.57
 -16  -6 -14    0.82    0.70
  16   6  14    1.10    0.57
 -16   6 -14    1.96    0.64
 -21  -7  14    0.05    0.45
 -21   7  14   -0.23    0.50
 -19  -7  14   -0.49    0.41
 -19   7  14    0.51    0.48
  17  -7 -14    0.77    0.32
 -17  -7  14   -0.33    0.60
 -17  -7  14   -0.07    0.39
 -17   7  14    0.53    0.43
 -15  -7  14   -0.72    0.55
  15  -7 -14    0.02    0.27
 -15  -7  14   -0.05    0.36
 -15   7  14    0.32    0.42
 -13  -7  14    0.06    0.52
 -13  -7  14    0.29    0.36
 -13   7  14    0.07    0.39
 -11  -7  14    0.33    0.35
 -11  -7  14    0.06    0.50
 -11   7  14    0.28    0.37
 -11   7  14   -0.15    0.38
  -9  -7  14    0.05    0.48
   9  -7 -14    0.18    0.34
  -9  -7  14    0.23    0.34
  -9   7  14   -0.22    0.36
  -9   7  14    0.15    0.33
  -7  -7  14    0.14    0.43
   7  -7 -14    0.50    0.38
  -7  -7  14    0.21    0.37
  -7   7  14    0.36    0.31
   5  -7 -14    0.95    0.41
  -5  -7  14    1.08    0.38
  -5  -7  14    0.54    0.40
  -5   7  14    1.21    0.32
  -3  -7  14   -0.03    0.33
  -3  -7  14   -0.08    0.36
   3  -7 -14   -0.02    0.36
  -3   7  14    0.02    0.27
  -1  -7  14    0.92    0.37
   1  -7 -14    1.28    0.40
  -1  -7  14    1.13    0.38
  -1   7  14    1.27    0.30
   1  -7  14    0.75    0.36
   1  -7  14    0.25    0.33
  -1  -7 -14    0.74    0.37
   1   7  14    0.70    0.28
  -3  -7 -14    0.17    0.38
   3  -7  14    0.66    0.35
   3  -7  14    0.11    0.33
   3   7  14    0.77    0.29
   5  -7  14    0.00    0.32
  -5  -7 -14    0.25    0.43
   5   7  14    0.27    0.30
  -5   7 -14    0.43    0.38
   7  -7  14    1.47    0.41
  -7  -7 -14    1.92    0.52
   7   7  14    1.36    0.39
  -7   7 -14    2.05    0.52
  -9  -7 -14    0.54    0.65
  -9  -7 -14    2.03    0.54
   9  -7  14    0.82    0.39
   9   7  14    1.69    0.42
  -9   7 -14    1.05    0.49
  11  -7  14    0.38    0.37
 -11  -7 -14   -0.11    0.58
 -11  -7 -14    0.15    0.47
 -11   7 -14    0.33    0.51
  11   7  14    0.01    0.41
  13  -7  14   -0.01    0.34
 -13  -7 -14    0.71    0.65
 -13  -7 -14    0.89    0.61
  13   7  14   -0.04    0.46
 -13   7 -14    1.25    0.59
 -15  -7 -14   -0.34    0.66
 -15   7 -14    1.18    0.63
  15   7  14    0.32    0.52
 -17  -7 -14    0.47    0.73
 -20  -8  14    0.31    0.45
 -20   8  14    0.19    0.49
 -18  -8  14   -0.04    0.42
 -18   8  14    0.24    0.44
 -16  -8  14   -0.66    0.58
 -16  -8  14    0.21    0.39
  16  -8 -14    0.35    0.31
 -16   8  14    0.08    0.45
 -14  -8  14   -0.03    0.39
 -14  -8  14   -0.38    0.56
 -14   8  14    0.03    0.41
 -12  -8  14   -0.01    0.54
 -12   8  14    0.21    0.40
 -12   8  14    0.54    0.43
 -10  -8  14    0.07    0.53
 -10   8  14   -0.55    0.38
 -10   8  14    0.07    0.34
   8  -8 -14    0.43    0.39
  -8  -8  14   -0.37    0.46
  -8   8  14    0.23    0.32
  -6  -8  14    1.32    0.48
  -6  -8  14    1.71    0.44
   6  -8 -14    1.46    0.44
  -6   8  14    1.36    0.35
  -4  -8  14    4.17    0.52
   4  -8 -14    3.74    0.55
  -4  -8  14    3.48    0.53
  -4   8  14    2.77    0.41
   2  -8 -14    0.31    0.42
  -2  -8  14    0.82    0.40
  -2  -8  14    0.70    0.38
  -2   8  14    0.58    0.30
   0  -8 -14    1.05    0.43
   0  -8  14    1.05    0.40
   0  -8  14    1.22    0.40
   0   8  14    1.47    0.32
   2  -8  14    3.40    0.50
   2  -8  14    3.73    0.50
  -2  -8 -14    2.70    0.54
   2   8  14    3.32    0.41
  -4  -8 -14    0.66    0.46
   4  -8  14    0.52    0.35
   4   8  14    0.45    0.31
  -6  -8 -14    0.85    0.49
   6  -8  14    0.50    0.38
  -6   8 -14    0.74    0.46
   6   8  14    0.91    0.34
  -8  -8 -14    1.94    0.56
   8  -8  14    2.17    0.44
   8   8  14    1.97    0.43
  -8   8 -14    2.55    0.58
  10  -8  14    1.05    0.42
 -10  -8 -14    1.81    0.56
 -10   8 -14    2.65    0.60
  10   8  14    1.88    0.46
 -12  -8 -14    1.25    0.54
  12  -8  14    0.10    0.37
 -12   8 -14    0.58    0.54
  12   8  14   -0.47    0.44
  14  -8  14    0.54    0.38
 -14   8 -14    1.26    0.62
  14   8  14    0.14    0.52
 -16  -8 -14   -0.19    0.95
 -16   8 -14    1.81    0.67
 -17   9  14    0.46    0.47
  15  -9 -14    0.34    0.29
 -15  -9  14    0.26    0.63
 -13  -9  14   -0.12    0.59
 -13   9  14    0.37    0.43
 -11  -9  14    0.36    0.59
 -11   9  14    0.27    0.44
 -11   9  14    0.86    0.40
   9  -9 -14    2.29    0.48
  -9  -9  14    1.38    0.58
   9   9 -14    1.88    0.30
  -9   9  14    1.36    0.39
  -7  -9  14    0.16    0.49
  -7  -9  14   -0.40    0.26
   7  -9 -14    1.07    0.44
   7   9 -14    0.49    0.26
  -7   9  14    0.21    0.33
   5  -9 -14    1.03    0.46
  -5  -9  14    0.94    0.48
  -5  -9  14    0.79    0.42
  -5   9  14    0.67    0.32
  -3  -9  14    0.68    0.41
   3  -9 -14    0.51    0.45
  -3  -9  14    0.81    0.42
  -3   9  14    0.60    0.32
  -1  -9  14    0.32    0.41
  -1  -9  14    0.16    0.37
   1  -9 -14    0.12    0.44
  -1   9  14    0.41    0.29
   1  -9  14   13.79    1.03
   1  -9  14   13.82    1.02
  -1  -9 -14   14.15    1.12
   1   9  14   14.17    0.95
  -3  -9 -14    1.07    0.50
   3  -9  14    0.82    0.41
   3  -9  14    0.59    0.40
   3   9  14    1.03    0.35
  -5  -9 -14    0.85    0.52
   5  -9  14    0.33    0.39
  -5   9 -14    0.08    0.42
   5   9  14    0.14    0.33
  -7  -9 -14    2.08    0.57
   7  -9  14    1.25    0.43
   7   9  14    1.22    0.40
  -7   9 -14    2.02    0.55
  -9  -9 -14    1.98    0.57
   9  -9  14    0.68    0.40
   9   9  14    0.19    0.42
  -9   9 -14    1.44    0.53
 -11  -9 -14    1.94    0.57
  11  -9  14    0.50    0.40
  11   9  14    0.76    0.47
 -11   9 -14    1.66    0.59
  13  -9  14    0.30    0.41
 -13   9 -14    1.05    0.57
  13   9  14   -0.38    0.48
 -15   9 -14    1.69    0.66
  15   9  14    0.30    0.61
 -18  10  14    0.32    0.51
 -16  10  14   -0.22    0.46
 -14 -10  14    0.21    0.67
 -14  10  14    0.89    0.50
  14  10 -14    0.43    0.27
 -12 -10  14    0.50    0.63
 -12  10  14    0.62    0.43
  12  10 -14    0.39    0.26
 -12  10  14    0.65    0.46
 -10 -10  14    1.00    0.62
  10  10 -14    0.77    0.26
 -10  10  14    1.11    0.39
   8 -10 -14    1.86    0.50
  -8 -10  14    0.57    0.55
  -8  10  14    0.79    0.37
   6 -10 -14    0.85    0.47
  -6 -10  14    0.31    0.43
  -6 -10  14    0.46    0.51
  -6  10  14    0.81    0.34
  -4 -10  14    0.19    0.45
  -4 -10  14   -0.25    0.40
   4 -10 -14    0.75    0.48
  -4  10  14   -0.12    0.30
   2 -10 -14    0.44    0.48
  -2 -10  14    0.15    0.43
  -2 -10  14    0.32    0.41
  -2  10  14    0.25    0.31
   0 -10  14    2.59    0.51
   0 -10  14    2.36    0.48
   0 -10 -14    2.48    0.58
   0  10  14    2.83    0.44
   2 -10  14    1.71    0.44
  -2 -10 -14    2.60    0.58
   2 -10  14    1.78    0.47
   2  10  14    1.58    0.39
   4 -10  14    1.64    0.47
  -4 -10 -14    1.97    0.57
   4  10  14    2.10    0.41
   6 -10  14    1.77    0.48
  -6 -10 -14    3.38    0.67
   6  10  14    2.64    0.43
  -6  10 -14    2.25    0.58
   8 -10  14    1.50    0.46
  -8 -10 -14    2.69    0.66
  -8  10 -14    1.93    0.58
   8  10  14    1.77    0.44
 -10 -10 -14    1.90    0.58
 -10  10 -14    1.30    0.57
  10  10  14    0.26    0.45
  12 -10  14    0.61    0.41
 -12 -10 -14    2.03    0.63
 -12  10 -14    1.45    0.60
  12  10  14    0.00    0.47
  14 -10  14    0.66    0.43
  14  10  14    0.39    0.55
 -14  10 -14    2.04    0.65
 -17  11  14    0.01    0.51
  17  11 -14    0.24    0.32
 -15  11  14    0.72    0.51
  15  11 -14    0.47    0.30
 -13 -11  14    0.44    0.71
  13  11 -14    0.29    0.26
 -13  11  14    0.29    0.47
 -11 -11  14   -0.40    0.63
 -11  11  14    0.34    0.41
 -11  11  14    0.17    0.45
  11  11 -14    0.47    0.26
  -9 -11  14    0.36    0.61
   9 -11 -14    0.76    0.49
  -9  11  14    0.84    0.38
   9  11 -14    0.20    0.26
   7 -11 -14    1.70    0.54
  -7 -11  14    1.36    0.60
  -7 -11  14    1.58    0.52
  -7  11  14    2.01    0.40
   5 -11 -14    1.00    0.53
  -5 -11  14    0.43    0.50
  -5 -11  14    0.23    0.42
  -5  11  14    0.44    0.34
  -3 -11  14    0.11    0.44
   3 -11 -14    0.81    0.53
  -3 -11  14    0.41    0.47
  -3  11  14    0.47    0.33
  -1 -11  14    4.33    0.57
   1 -11 -14    3.83    0.68
  -1 -11  14    3.68    0.59
  -1  11  14    3.16    0.44
   1 -11  14    0.60    0.44
   1 -11  14    1.31    0.46
  -1 -11 -14    1.40    0.57
   1  11  14    0.92    0.37
   3 -11  14    2.23    0.50
  -3 -11 -14    2.73    0.64
   3 -11  14    1.68    0.48
   3  11  14    1.70    0.41
  -5 -11 -14    2.96    0.68
   5 -11  14    1.62    0.49
   5  11  14    1.81    0.42
  -5  11 -14    2.54    0.59
  -7 -11 -14    3.08    0.69
   7 -11  14    1.00    0.48
  -7  11 -14    1.79    0.58
   7  11  14    1.53    0.42
  -9 -11 -14    1.57    0.63
   9 -11  14    0.36    0.44
   9  11  14    0.93    0.43
  -9  11 -14    1.39    0.53
 -11 -11 -14    3.08    0.72
  11 -11  14    1.06    0.46
 -11  11 -14    2.85    0.68
  11  11  14    2.05    0.50
  13 -11  14    0.69    0.44
 -13  11 -14    2.29    0.66
  13  11  14    1.17    0.56
  16  12 -14    0.52    0.31
 -16  12  14    0.24    0.48
 -14  12  14    0.63    0.50
  14  12 -14    0.32    0.29
 -12 -12  14   -0.46    0.67
  12  12 -14    0.12    0.27
 -12  12  14   -0.21    0.49
 -12  12  14    0.16    0.42
 -10 -12  14    0.64    0.68
 -10  12  14    0.18    0.37
  10  12 -14    0.63    0.29
   8 -12 -14    1.21    0.53
  -8 -12  14    1.17    0.66
  -8  12  14    0.60    0.37
   8  12 -14    1.04    0.29
   6 -12 -14    0.51    0.54
  -6 -12  14    0.77    0.56
  -6 -12  14    0.27    0.49
  -6  12  14    0.40    0.35
   6  12 -14    0.99    0.30
  -6  12  14    0.51    0.35
  -4 -12  14    0.57    0.50
   4 -12 -14    2.60    0.63
  -4 -12  14    1.64    0.54
  -4  12  14    1.24    0.35
  -2 -12  14    0.94    0.50
   2 -12 -14    1.54    0.60
  -2 -12  14    1.41    0.52
  -2  12  14    0.54    0.32
   0 -12  14    1.06    0.48
   0 -12 -14    1.72    0.64
   0 -12  14    0.67    0.49
   0  12  14    0.68    0.33
   2 -12  14    0.96    0.49
  -2 -12 -14    2.43    0.66
   2 -12  14    1.69    0.48
   2  12  14    1.53    0.41
  -4 -12 -14    2.30    0.69
   4 -12  14    1.02    0.48
   4  12  14    1.65    0.41
   6 -12  14   -0.28    0.43
  -6 -12 -14    1.51    0.64
   6  12  14    0.63    0.38
  -6  12 -14    0.09    0.50
   8 -12  14    0.47    0.47
  -8 -12 -14    2.11    0.68
   8  12  14    1.10    0.42
  -8  12 -14    1.00    0.55
 -10 -12 -14    4.57    0.80
  10 -12  14    2.16    0.53
  10  12  14    2.34    0.51
 -10  12 -14    3.92    0.71
  12 -12  14    0.49    0.49
 -12  12 -14    1.59    0.62
  12  12  14    1.28    0.56
  15  13 -14    0.45    0.32
 -13  13  14   -0.48    0.49
  13  13 -14   -0.02    0.30
 -11  13  14    0.02    0.42
 -11  13  14   -0.01    0.47
   9 -13 -14    0.24    0.56
  -9 -13  14   -0.28    0.62
  -9  13  14    0.23    0.35
   9  13 -14    0.92    0.29
   7 -13 -14    1.19    0.57
  -7 -13  14    0.80    0.63
  -7  13  14    0.81    0.36
   7  13 -14    0.81    0.30
  -7  13  14    0.89    0.39
  -5 -13  14    0.62    0.48
   5 -13 -14    2.12    0.64
  -5 -13  14    0.31    0.54
  -5  13  14    0.36    0.33
   3 -13 -14    2.60    0.68
  -3 -13  14    0.76    0.53
  -3 -13  14    1.23    0.56
  -3  13  14    0.93    0.33
  -1 -13  14    0.58    0.48
   1 -13 -14    2.50    0.70
  -1 -13  14    1.12    0.50
  -1  13  14    0.73    0.32
   1 -13  14    1.54    0.51
   1 -13  14    1.18    0.52
  -1 -13 -14    2.35    0.71
   1  13  14    1.48    0.36
   3 -13  14    0.79    0.48
  -3 -13 -14    1.99    0.74
   3 -13  14    0.68    0.53
   3  13  14    1.22    0.40
  -5 -13 -14    2.57    0.71
   5 -13  14    0.78    0.49
   5  13  14    0.89    0.39
  -5  13 -14    0.92    0.52
  -7 -13 -14    1.23    0.70
   7 -13  14    0.26    0.49
  -7  13 -14    0.72    0.53
   7  13  14    0.83    0.40
  -9 -13 -14    3.17    0.82
   9 -13  14   -0.38    0.47
  -9  13 -14    1.31    0.58
   9  13  14    0.96    0.43
 -11 -13 -14    2.05    0.84
 -14  14  14   -0.48    0.49
  12  14 -14    0.69    0.31
 -12  14  14   -0.73    0.55
 -10  14  14   -0.08    0.42
  10  14 -14    0.67    0.30
   8 -14 -14   -0.30    0.59
  -8 -14  14    0.30    0.63
   8  14 -14    0.48    0.31
  -8  14  14    0.10    0.34
  -6 -14  14   -0.26    0.49
   6 -14 -14    0.51    0.61
  -6 -14  14    0.47    0.60
  -6  14  14    0.32    0.33
   6  14 -14    0.22    0.30
  -4 -14  14    1.05    0.56
   4 -14 -14    1.35    0.68
  -4 -14  14    1.79    0.60
  -4  14  14    0.64    0.34
  -2 -14  14    0.41    0.53
   2 -14 -14    1.86    0.71
  -2 -14  14    0.30    0.51
  -2  14  14    0.22    0.30
   0 -14 -14    1.19    0.71
   0 -14  14   -0.11    0.48
   0 -14  14    0.19    0.50
   0  14  14    0.48    0.29
  -2 -14 -14    1.62    0.76
   2 -14  14    0.19    0.52
   2 -14  14    0.53    0.50
   2  14  14    0.50    0.32
   4 -14  14   -0.17    0.51
  -4 -14 -14    1.49    0.80
   4  14  14    0.71    0.39
  -6 -14 -14    2.43    0.84
   6  14  14    0.68    0.39
   8  14  14    1.12    0.44
 -11  15  14   -0.18    0.50
  11  15 -14    0.33    0.33
   9  15 -14    0.02    0.30
  -9  15  14    0.06    0.41
   7  15 -14    0.35    0.33
  -5 -15  14    0.76    0.64
  -5 -15  14    0.06    0.50
  -5  15  14    0.38    0.34
  -3 -15  14    0.51    0.55
  -3 -15  14   -0.03    0.55
  -3  15  14    0.55    0.33
  -1 -15  14    0.58    0.54
  -1 -15  14    0.28    0.57
  -1  15  14    0.74    0.31
   1 -15  14    0.34    0.58
   1  15  14    0.53    0.29
   3  15  14    0.42    0.31
   5  15  14    0.10    0.45
   8  16 -14    0.16    0.34
   6  16 -14    0.57    0.34
   4  16 -14   -0.37    0.34
   2  16 -14    0.63    0.35
   5  17 -14    0.14    0.37
   3  17 -14    0.77    0.36
 -22   0  15    0.10    0.43
  20   0 -15    0.65    0.35
 -18   0  15   -0.38    0.35
 -18   0  15   -0.29    0.63
  18   0 -15    0.41    0.31
 -16   0  15   -0.04    0.36
  16   0 -15    0.76    0.29
 -16   0  15   -0.32    0.48
  14   0 -15    0.26    0.26
 -14   0  15   -0.24    0.33
 -14   0  15   -0.14    0.48
 -12   0  15   -0.37    0.44
 -12   0  15    0.08    0.32
  12   0 -15    0.31    0.22
 -10   0  15   -0.23    0.29
 -10   0  15    0.14    0.31
 -10   0  15   -0.33    0.41
  -8   0  15    0.09    0.35
  -8   0  15    0.33    0.28
  -8   0  15    0.42    0.25
  -6   0  15   -0.41    0.23
  -6   0  15    0.23    0.24
  -6   0  15    0.15    0.29
  -4   0  15   -0.25    0.19
  -4   0  15    0.15    0.29
  -4   0  15   -0.30    0.23
  -2   0  15    0.05    0.27
  -2   0  15   -0.13    0.20
  -2   0  15    0.13    0.22
   0   0  15    0.07    0.28
   0   0  15    0.07    0.23
   0   0  15    0.07    0.20
   2   0  15    0.39    0.21
   2   0  15    0.13    0.23
  -2   0 -15    0.25    0.30
   4   0  15    0.09    0.21
  -4   0 -15    0.20    0.33
   4   0  15    0.03    0.24
  -6   0 -15    0.63    0.37
   6   0  15    0.04    0.27
   6   0  15    0.10    0.24
   8   0  15    0.04    0.27
   8   0  15   -0.10    0.29
  -8   0 -15    0.19    0.42
 -10   0 -15    0.05    0.48
  10   0  15   -0.12    0.33
  10   0  15   -0.03    0.31
  12   0  15    0.03    0.34
  12   0  15   -0.11    0.36
 -12   0 -15    0.56    0.52
  14   0  15    0.23    0.34
  14   0  15    0.23    0.43
 -14   0 -15    1.50    0.63
 -16   0 -15    1.74    0.55
  16   0  15   -0.17    0.45
 -18   0 -15    1.04    0.65
  18   0  15    0.14    0.51
 -21  -1  15    0.07    0.42
 -21   1  15   -0.48    0.41
  19  -1 -15    0.83    0.33
 -19  -1  15    0.03    0.38
 -19  -1  15   -0.21    0.54
 -19   1  15   -0.37    0.37
  19   1 -15    0.80    0.35
 -17  -1  15   -0.16    0.52
  17  -1 -15    0.50    0.29
 -17  -1  15   -0.17    0.36
  17   1 -15    0.87    0.30
 -17   1  15    0.14    0.35
 -15  -1  15   -0.33    0.48
 -15  -1  15    0.05    0.35
  15  -1 -15    0.95    0.30
  15   1 -15    0.39    0.26
 -15   1  15    0.33    0.33
  13  -1 -15    0.38    0.25
 -13  -1  15   -0.62    0.47
 -13  -1  15   -0.20    0.34
  13   1 -15    0.21    0.25
 -13   1  15   -0.51    0.33
 -13   1  15   -0.42    0.33
 -11  -1  15    0.67    0.49
  11   1 -15    1.28    0.24
 -11   1  15    0.21    0.40
  -9  -1  15    1.10    0.44
  -9   1  15    1.25    0.43
  -9   1  15    1.59    0.34
  -7  -1  15    0.24    0.38
  -7  -1  15    0.23    0.25
  -7  -1  15    0.17    0.24
  -7   1  15    0.48    0.25
  -7   1  15    0.22    0.34
  -7   1  15   -0.27    0.26
  -5  -1  15    0.43    0.12
  -5  -1  15    0.22    0.33
  -5  -1  15    0.20    0.22
  -5   1  15    0.45    0.29
  -5   1  15    0.34    0.15
  -5   1  15    0.19    0.25
  -3  -1  15    0.64    0.25
  -3  -1  15    0.53    0.21
  -3  -1  15    0.65    0.32
  -3   1  15    0.51    0.24
  -3   1  15    0.75    0.29
  -3   1  15    0.87    0.25
  -1  -1  15    1.31    0.28
  -1  -1  15    1.68    0.23
  -1  -1  15    1.22    0.32
  -1   1  15    1.43    0.26
  -1   1  15    1.27    0.27
   1  -1  15    1.53    0.23
   1  -1  15    2.23    0.37
   1  -1  15    1.71    0.30
  -1  -1 -15    2.15    0.36
   1   1  15    1.74    0.30
   1   1  15    2.35    0.28
   3  -1  15    0.99    0.27
  -3  -1 -15    1.15    0.36
   3  -1  15    0.60    0.17
   3   1  15    1.62    0.29
  -3   1 -15    1.11    0.34
   3   1  15    1.41    0.26
   5  -1  15    0.25    0.21
   5  -1  15    0.04    0.25
  -5  -1 -15    0.34    0.35
  -5   1 -15    0.07    0.34
   5   1  15    0.30    0.27
   5   1  15    0.27    0.25
   7  -1  15    8.30    0.60
   7  -1  15    7.38    0.65
  -7  -1 -15    7.02    0.75
   7   1  15    7.77    0.65
  -7   1 -15    7.02    0.74
   7   1  15    8.34    0.62
   9  -1  15    1.60    0.38
  -9  -1 -15    2.40    0.56
   9  -1  15    2.23    0.35
   9   1  15    1.72    0.37
  -9   1 -15    1.87    0.51
   9   1  15    2.23    0.39
  11  -1  15    1.67    0.38
 -11  -1 -15    1.83    0.56
  11  -1  15    1.18    0.38
  11   1  15    1.53    0.39
 -11   1 -15    2.11    0.56
  11   1  15    1.90    0.41
 -13  -1 -15    1.99    0.62
  13  -1  15    0.99    0.38
  13  -1  15    0.82    0.41
 -13   1 -15    1.55    0.57
  13   1  15    1.18    0.39
  13   1  15    0.53    0.42
  15  -1  15    0.07    0.44
 -15  -1 -15    1.10    0.54
  15   1  15   -0.26    0.43
 -15   1 -15    2.56    0.67
  17  -1  15   -0.64    0.46
 -17  -1 -15    0.96    0.60
 -17   1 -15    1.65    0.57
  17   1  15   -0.06    0.48
 -22  -2  15    0.06    0.43
 -22   2  15    0.14    0.44
 -20  -2  15    0.03    0.62
  20  -2 -15    0.54    0.40
 -20   2  15    0.08    0.39
  18  -2 -15    0.98    0.32
 -18  -2  15   -0.34    0.54
 -18   2  15    0.57    0.37
  16  -2 -15    0.38    0.29
 -16  -2  15    0.10    0.36
 -16  -2  15    0.13    0.52
 -16   2  15    0.24    0.36
  16   2 -15    0.85    0.29
  14  -2 -15    0.44    0.26
 -14  -2  15   -0.41    0.52
 -14  -2  15    0.06    0.35
 -14   2  15    0.52    0.36
  14   2 -15    0.69    0.25
 -12  -2  15    1.62    0.37
 -12  -2  15    1.32    0.54
  12   2 -15    2.14    0.29
 -10  -2  15    0.23    0.47
 -10   2  15    0.07    0.32
 -10   2  15   -0.28    0.37
  10   2 -15    0.16    0.19
 -10   2  15   -0.09    0.34
  -8  -2  15    0.70    0.25
  -8  -2  15    0.15    0.26
  -8  -2  15    0.73    0.43
  -8   2  15    0.39    0.31
  -8   2  15   -0.09    0.28
  -8   2  15    0.55    0.35
  -6  -2  15    2.24    0.28
  -6  -2  15    2.31    0.44
  -6  -2  15    2.27    0.32
  -6   2  15    2.30    0.36
  -6   2  15    2.35    0.34
  -6   2  15    2.59    0.33
  -4  -2  15    0.28    0.26
  -4  -2  15   -0.10    0.32
  -4  -2  15    0.24    0.19
  -4   2  15    0.22    0.25
  -4   2  15    0.13    0.28
  -4   2  15    0.13    0.25
  -2  -2  15    0.71    0.20
  -2  -2  15    0.46    0.26
  -2  -2  15    0.65    0.33
  -2   2  15    0.70    0.27
  -2   2  15    0.58    0.28
  -2   2  15    0.54    0.25
   0  -2  15    8.98    0.68
   0  -2  15    7.69    0.62
   0  -2  15    8.70    0.56
   0   2  15    7.94    0.61
   0   2  15    7.95    0.59
   2  -2  15    4.45    0.37
   2  -2  15    3.91    0.44
  -2  -2 -15    3.39    0.52
   2   2  15    3.95    0.43
   2   2  15    3.53    0.41
  -4  -2 -15    0.11    0.33
   4  -2  15    0.13    0.25
   4  -2  15    0.41    0.20
   4   2  15    0.22    0.24
   4   2  15   -0.03    0.24
  -4   2 -15    0.00    0.29
   6  -2  15    2.89    0.33
   6  -2  15    3.95    0.48
  -6  -2 -15    4.66    0.56
   6   2  15    3.97    0.48
  -6   2 -15    3.68    0.52
   6   2  15    4.19    0.46
  -8  -2 -15    3.36    0.59
   8  -2  15    3.71    0.46
   8  -2  15    3.64    0.44
   8   2  15    4.12    0.45
   8   2  15    3.88    0.47
  -8   2 -15    4.44    0.57
  10  -2  15    1.25    0.34
 -10  -2 -15    1.78    0.55
  10  -2  15    1.55    0.38
 -10   2 -15    1.31    0.51
  10   2  15    1.44    0.39
  10   2  15    1.41    0.40
  12  -2  15    3.48    0.48
 -12  -2 -15    3.33    0.65
  12  -2  15    2.84    0.46
 -12   2 -15    3.25    0.65
  12   2  15    3.14    0.48
  12   2  15    3.20    0.49
 -14  -2 -15    0.89    0.55
  14  -2  15    0.03    0.41
  14  -2  15    0.55    0.37
  14   2  15    0.07    0.42
 -14   2 -15    1.82    0.58
  14   2  15    0.14    0.35
 -16  -2 -15    0.48    0.58
  16  -2  15   -0.23    0.44
 -16   2 -15    2.03    0.57
  16   2  15    0.26    0.45
  18  -2  15    0.56    0.51
 -18  -2 -15    1.21    0.75
 -21  -3  15   -0.13    0.43
 -21   3  15    0.26    0.44
 -19  -3  15    0.13    0.62
 -19  -3  15    0.64    0.40
  19  -3 -15    1.58    0.35
 -19   3  15    0.50    0.40
 -17  -3  15    0.19    0.37
 -17  -3  15   -0.09    0.58
  17  -3 -15    0.68    0.29
 -17   3  15   -0.17    0.38
 -15  -3  15    0.14    0.36
 -15  -3  15    0.01    0.57
  15  -3 -15    0.15    0.27
 -15   3  15   -0.23    0.37
 -13  -3  15    0.91    0.56
 -13   3  15    1.10    0.37
 -11  -3  15    0.34    0.52
  11   3 -15    0.68    0.26
 -11   3  15    0.25    0.34
 -11   3  15    0.78    0.38
  -9  -3  15    5.51    0.73
   9   3 -15    5.12    0.42
  -9   3  15    5.99    0.56
  -9   3  15    5.71    0.50
  -7  -3  15   -0.39    0.25
  -7  -3  15    0.29    0.24
  -7  -3  15    0.00    0.40
  -7   3  15   -0.01    0.29
  -5  -3  15    3.33    0.47
  -5  -3  15    3.19    0.34
  -5   3  15    4.02    0.43
  -5   3  15    3.60    0.39
  -3  -3  15    1.46    0.22
  -3  -3  15    2.39    0.33
  -3  -3  15    1.96    0.39
  -3   3  15    1.85    0.32
  -3   3  15    2.36    0.32
  -1  -3  15    3.05    0.43
  -1  -3  15    3.57    0.45
  -1  -3  15    3.75    0.33
  -1   3  15    3.53    0.43
  -1   3  15    3.74    0.41
   1  -3  15   10.68    0.62
   1  -3  15    9.51    0.73
  -1  -3 -15    8.14    0.72
   1  -3  15    9.88    0.71
   1   3  15   10.03    0.67
   1   3  15    9.61    0.69
   3  -3  15    3.29    0.34
  -3  -3 -15    3.07    0.44
   3  -3  15    3.32    0.39
   3   3  15    3.25    0.44
   3   3  15    3.65    0.37
  -5  -3 -15    5.38    0.64
   5  -3  15    5.74    0.44
   5  -3  15    4.82    0.52
   5   3  15    4.16    0.52
  -5   3 -15    4.96    0.60
   5   3  15    5.07    0.50
  -7  -3 -15    4.48    0.61
   7  -3  15    4.28    0.51
   7  -3  15    3.12    0.35
  -7   3 -15    4.61    0.57
   7   3  15    4.76    0.51
   7   3  15    4.34    0.53
  -9  -3 -15    7.01    0.82
   9  -3  15    6.85    0.58
   9  -3  15    6.29    0.65
   9   3  15    7.82    0.67
  -9   3 -15    6.82    0.77
   9   3  15    7.05    0.66
  11  -3  15    1.70    0.37
  11  -3  15    1.74    0.42
 -11  -3 -15    2.18    0.60
 -11   3 -15    1.92    0.56
  11   3  15    1.91    0.44
  11   3  15    2.00    0.43
  13  -3  15    1.74    0.42
  13  -3  15    1.20    0.40
 -13  -3 -15    1.09    0.58
  13   3  15    1.87    0.45
  13   3  15    1.15    0.40
 -13   3 -15    1.74    0.61
  15  -3  15    0.95    0.45
 -15  -3 -15    0.90    0.60
  15   3  15    0.76    0.47
 -15   3 -15    2.47    0.65
 -17  -3 -15    0.86    0.67
  17  -3  15   -0.05    0.46
  17   3  15   -0.02    0.48
 -17   3 -15    1.90    0.58
 -22  -4  15   -0.41    0.46
 -20  -4  15    0.76    0.43
 -20   4  15    0.26    0.43
 -18  -4  15    0.21    0.40
 -18  -4  15   -0.23    0.64
  18  -4 -15    1.27    0.33
 -18   4  15    0.07    0.39
 -16  -4  15    0.07    0.62
  16  -4 -15    0.74    0.30
 -16  -4  15    0.03    0.39
 -16   4  15    0.49    0.41
  14  -4 -15    0.95    0.29
 -14  -4  15    0.92    0.59
 -14  -4  15    0.80    0.37
 -14   4  15    0.79    0.39
 -12  -4  15    0.33    0.36
 -12  -4  15   -0.70    0.51
 -12   4  15   -0.23    0.38
 -12   4  15    0.17    0.35
 -10  -4  15    4.72    0.47
 -10  -4  15    3.92    0.63
 -10   4  15    4.19    0.44
 -10   4  15    4.18    0.49
   8  -4 -15    4.31    0.52
  -8  -4  15    4.24    0.60
  -8  -4  15    4.20    0.54
  -8   4  15    5.20    0.51
  -6  -4  15    1.48    0.32
  -6  -4  15    1.46    0.43
  -6   4  15    1.76    0.33
  -4  -4  15    3.59    0.44
  -4  -4  15    2.80    0.45
  -4   4  15    3.28    0.38
  -4   4  15    3.17    0.39
  -2  -4  15    2.27    0.41
  -2  -4  15    3.08    0.38
  -2   4  15    2.49    0.36
  -2   4  15    2.59    0.34
   0  -4  15    3.21    0.39
   0  -4  15    2.50    0.40
   0   4  15    2.86    0.34
   0   4  15    2.78    0.37
   2  -4  15    3.86    0.49
   2  -4  15    4.64    0.53
  -2  -4 -15    3.94    0.51
   2   4  15    4.34    0.44
   2   4  15    4.17    0.47
   4  -4  15    6.18    0.46
  -4  -4 -15    6.26    0.64
   4  -4  15    6.02    0.56
  -4   4 -15    6.10    0.63
   4   4  15    5.51    0.54
   4   4  15    5.74    0.56
   6  -4  15    5.33    0.56
   6  -4  15    5.17    0.46
  -6  -4 -15    5.76    0.67
   6   4  15    5.44    0.55
   6   4  15    5.50    0.57
  -6   4 -15    5.41    0.66
  -8  -4 -15    3.30    0.60
   8  -4  15    3.88    0.47
   8  -4  15    3.70    0.37
  -8   4 -15    3.65    0.58
   8   4  15    3.11    0.46
   8   4  15    3.61    0.45
 -10  -4 -15    3.05    0.62
  10  -4  15    2.46    0.44
  10   4  15    2.79    0.46
  10   4  15    2.93    0.47
 -10   4 -15    2.49    0.58
 -12  -4 -15    2.21    0.61
  12  -4  15    1.31    0.38
  12  -4  15    1.97    0.42
  12   4  15    1.51    0.46
  12   4  15    1.71    0.44
 -12   4 -15    1.88    0.60
  14  -4  15    1.81    0.42
 -14  -4 -15    1.54    0.65
  14  -4  15    1.18    0.41
 -14   4 -15    1.61    0.61
  14   4  15    0.58    0.53
  14   4  15    1.36    0.49
 -16  -4 -15    1.97    0.71
  16  -4  15    1.56    0.49
  16   4  15    1.61    0.54
  18  -4  15    0.13    0.50
 -21  -5  15    0.23    0.44
 -21   5  15   -0.08    0.47
 -19  -5  15   -0.47    0.40
 -19   5  15    0.09    0.43
 -17  -5  15    0.63    0.65
  17  -5 -15    0.51    0.31
 -17  -5  15   -0.02    0.40
 -17   5  15    0.15    0.41
 -15  -5  15    0.08    0.59
  15  -5 -15    0.99    0.29
 -15  -5  15    0.22    0.39
 -15   5  15    0.67    0.40
 -13  -5  15    0.50    0.56
 -13  -5  15    0.62    0.39
 -13   5  15    0.64    0.36
 -11  -5  15    1.53    0.57
 -11   5  15    2.54    0.40
 -11   5  15    2.43    0.44
  -9  -5  15    3.61    0.63
  -9  -5  15    4.76    0.47
   9  -5 -15    3.96    0.53
  -9   5  15    3.61    0.47
   7  -5 -15    3.46    0.46
  -7  -5  15    3.43    0.56
  -7  -5  15    4.54    0.42
  -7  -5  15    4.22    0.47
  -7   5  15    3.62    0.43
  -5  -5  15    0.22    0.37
   5  -5 -15    0.12    0.32
  -5  -5  15    0.34    0.32
  -5   5  15    0.84    0.30
  -3  -5  15    0.91    0.36
  -3  -5  15    1.53    0.36
  -3   5  15    1.13    0.31
  -1  -5  15    3.67    0.48
  -1  -5  15    3.95    0.49
  -1   5  15    3.37    0.45
  -1   5  15    3.46    0.38
   1  -5  15    5.21    0.58
   1  -5  15    5.73    0.56
   1   5  15    5.63    0.54
   1   5  15    5.94    0.51
  -3  -5 -15    5.14    0.56
   3  -5  15    4.44    0.54
   3  -5  15    4.50    0.55
   3   5  15    4.62    0.52
   3   5  15    4.52    0.49
   5  -5  15    4.91    0.56
  -5  -5 -15    5.57    0.66
   5   5  15    6.01    0.58
  -5   5 -15    5.16    0.64
   5   5  15    5.49    0.54
   7  -5  15    0.28    0.32
  -7  -5 -15    0.79    0.48
   7   5  15    0.59    0.36
  -7   5 -15   -0.02    0.40
   7   5  15    0.74    0.34
   9  -5  15    0.76    0.40
   9  -5  15    0.30    0.35
  -9  -5 -15    0.83    0.53
   9   5  15    0.30    0.38
  -9   5 -15    0.44    0.45
   9   5  15    0.21    0.37
  11  -5  15    6.02    0.64
 -11  -5 -15    6.16    0.85
  11  -5  15    3.96    0.49
  11   5  15    7.34    0.73
 -11   5 -15    6.29    0.81
  11   5  15    5.27    0.66
  13  -5  15    1.13    0.37
 -13  -5 -15    1.15    0.61
  13  -5  15    0.76    0.37
 -13   5 -15    1.28    0.59
  13   5  15    0.76    0.46
  15  -5  15    2.09    0.50
 -15  -5 -15    1.75    0.70
 -15   5 -15    3.23    0.71
  15   5  15    2.18    0.56
  17  -5  15    0.75    0.53
 -17  -5 -15    1.55    0.73
 -17   5 -15    3.19    0.88
 -20  -6  15    0.23    0.43
 -20   6  15    0.77    0.50
 -18  -6  15   -0.04    0.77
 -18  -6  15   -0.18    0.39
 -18   6  15   -0.03    0.43
  16  -6 -15    0.19    0.29
 -16  -6  15    0.32    0.61
 -16  -6  15    0.66    0.39
 -16   6  15    0.43    0.42
 -14  -6  15    0.60    0.39
 -14  -6  15    0.24    0.56
 -14   6  15    0.79    0.40
 -12  -6  15    2.38    0.40
 -12  -6  15    1.14    0.58
 -12   6  15    2.17    0.46
 -10  -6  15    0.70    0.53
 -10  -6  15    1.02    0.37
 -10   6  15    0.94    0.37
 -10   6  15    1.26    0.39
  -8  -6  15    3.89    0.44
   8  -6 -15    4.09    0.49
  -8  -6  15    2.80    0.57
  -8   6  15    3.16    0.44
  -6  -6  15    4.76    0.67
   6  -6 -15    6.24    0.65
  -6   6  15    5.93    0.57
  -4  -6  15    0.81    0.38
  -4  -6  15    0.77    0.36
   4  -6 -15    0.86    0.38
  -4   6  15    0.88    0.32
  -2  -6  15    2.39    0.43
  -2  -6  15    3.32    0.45
   2  -6 -15    2.63    0.46
  -2   6  15    2.73    0.36
   0  -6  15    3.81    0.46
   0  -6  15    2.94    0.46
   0   6  15    3.78    0.45
   2  -6  15    9.59    0.76
   2  -6  15    9.92    0.78
   2   6  15    9.52    0.70
   4  -6  15    4.25    0.54
   4   6  15    3.97    0.43
   6  -6  15    5.09    0.61
  -6  -6 -15    4.64    0.73
   6   6  15    6.04    0.57
  -6   6 -15    5.69    0.71
   8  -6  15    3.48    0.50
  -8  -6 -15    3.36    0.60
   8   6  15    2.81    0.46
  -8   6 -15    4.18    0.63
 -10  -6 -15    2.02    0.60
  10  -6  15    1.41    0.41
  10   6  15    1.16    0.44
 -10   6 -15    1.62    0.56
 -12  -6 -15    1.72    0.66
  12  -6  15    2.46    0.46
  12   6  15    2.65    0.52
 -12   6 -15    2.89    0.63
  14  -6  15    0.42    0.37
 -14  -6 -15    0.38    0.62
  14   6  15    0.61    0.51
 -14   6 -15    1.39    0.60
 -16  -6 -15    1.23    0.73
  16   6  15    1.66    0.59
 -16   6 -15    3.94    0.73
 -17  -7  15   -0.01    0.64
 -17  -7  15    0.37    0.40
  17  -7 -15    0.69    0.34
 -17   7  15    0.35    0.48
 -15  -7  15    0.33    0.39
  15  -7 -15    0.21    0.27
 -15  -7  15   -0.05    0.58
 -15   7  15    0.39    0.42
 -13  -7  15    0.44    0.37
 -13  -7  15   -0.30    0.54
 -13   7  15    0.08    0.40
 -13   7  15   -0.06    0.43
 -11  -7  15    1.31    0.56
 -11  -7  15    1.45    0.39
 -11   7  15    2.02    0.44
  -9  -7  15    2.05    0.58
   9  -7 -15    2.88    0.45
  -9   7  15    3.00    0.45
   7  -7 -15    4.88    0.62
  -7  -7  15    3.06    0.58
  -7  -7  15    4.80    0.57
  -7   7  15    3.57    0.45
   5  -7 -15    3.64    0.53
  -5  -7  15    3.24    0.54
  -5  -7  15    3.78    0.51
  -5   7  15    3.31    0.42
  -3  -7  15   -0.38    0.38
   3  -7 -15    0.31    0.39
  -3  -7  15   -0.11    0.34
  -3   7  15   -0.29    0.29
  -1  -7  15    3.69    0.51
  -1  -7  15    4.00    0.51
   1  -7 -15    3.60    0.53
  -1   7  15    4.02    0.48
   1  -7  15    2.56    0.45
  -1  -7 -15    2.05    0.46
   1  -7  15    2.41    0.43
   1   7  15    2.29    0.35
   3  -7  15    4.92    0.61
  -3  -7 -15    3.73    0.60
   3  -7  15    5.26    0.60
   3   7  15    4.95    0.51
  -5  -7 -15    5.17    0.66
   5  -7  15    4.47    0.55
  -5   7 -15    5.72    0.71
   5   7  15    4.84    0.55
   7  -7  15    4.57    0.62
  -7  -7 -15    5.81    0.77
   7   7  15    5.30    0.61
  -7   7 -15    5.36    0.77
  -9  -7 -15    1.96    0.55
   9  -7  15    1.80    0.43
   9   7  15    0.99    0.42
  -9   7 -15    2.34    0.56
 -11  -7 -15    0.22    0.69
  11  -7  15    0.03    0.37
 -11  -7 -15    0.47    0.50
 -11   7 -15    0.51    0.51
  11   7  15    0.53    0.44
  13  -7  15    0.94    0.41
 -13  -7 -15    1.93    0.61
 -13  -7 -15    0.58    0.68
 -13   7 -15    1.86    0.62
  13   7  15    0.88    0.51
 -15  -7 -15    0.00    0.67
 -15   7 -15    0.74    0.62
  15   7  15    0.16    0.53
 -17  -7 -15    0.79    0.77
 -20  -8  15    0.28    0.46
 -20   8  15   -0.11    0.53
 -18  -8  15    0.18    0.44
 -18   8  15    0.91    0.52
 -16  -8  15    0.30    0.42
  16  -8 -15    0.36    0.31
 -16  -8  15    0.35    0.65
 -16   8  15    0.42    0.48
 -14  -8  15   -0.37    0.58
 -14  -8  15    0.43    0.40
 -14   8  15    0.38    0.46
 -12  -8  15   -0.22    0.54
 -12   8  15    0.66    0.42
 -12   8  15    0.80    0.44
 -10  -8  15    1.12    0.58
 -10   8  15    1.09    0.40
   8  -8 -15    3.41    0.51
  -8  -8  15    1.66    0.55
  -8   8  15    1.86    0.40
   6  -8 -15    1.60    0.46
  -6  -8  15    1.23    0.48
  -6  -8  15    1.35    0.46
  -6   8  15    1.19    0.36
  -4  -8  15    0.98    0.43
   4  -8 -15    0.74    0.45
  -4  -8  15    1.12    0.46
  -4   8  15    0.99    0.34
   2  -8 -15    0.00    0.41
  -2  -8  15    0.00    0.42
  -2  -8  15   -0.23    0.36
  -2   8  15    0.40    0.32
   0  -8  15    1.38    0.43
   0  -8 -15    1.07    0.46
   0  -8  15    2.04    0.47
   0   8  15    1.44    0.35
   2  -8  15    0.82    0.41
  -2  -8 -15    0.24    0.44
   2  -8  15    1.41    0.40
   2   8  15    1.04    0.33
   4  -8  15    1.28    0.42
  -4  -8 -15    1.19    0.49
   4   8  15    1.16    0.35
   6  -8  15    0.44    0.39
  -6  -8 -15    0.27    0.47
   6   8  15    0.57    0.35
  -6   8 -15    0.75    0.47
   8  -8  15    0.75    0.40
  -8  -8 -15    1.51    0.54
   8   8  15    1.18    0.41
  -8   8 -15    1.59    0.56
 -10  -8 -15    1.78    0.57
  10  -8  15    0.51    0.39
 -10   8 -15    1.67    0.55
  10   8  15    0.68    0.42
  12  -8  15    1.52    0.45
 -12  -8 -15    2.05    0.59
 -12   8 -15    2.63    0.63
  12   8  15    1.69    0.54
  14  -8  15    1.08    0.42
 -14   8 -15    1.78    0.63
  14   8  15    0.76    0.54
 -17   9  15    0.49    0.53
  15  -9 -15    1.11    0.32
 -15  -9  15    0.71    0.69
 -15   9  15    0.39    0.49
 -13  -9  15   -0.12    0.60
 -13   9  15    0.03    0.46
 -13   9  15   -0.07    0.44
 -11  -9  15    0.51    0.60
 -11   9  15    0.15    0.40
  -9  -9  15    0.01    0.53
   9  -9 -15    1.51    0.45
  -9   9  15    0.06    0.36
   7  -9 -15    1.30    0.45
  -7  -9  15    0.00    0.25
  -7  -9  15   -0.16    0.48
  -7   9  15    0.29    0.35
   5  -9 -15    1.09    0.47
  -5  -9  15    0.76    0.49
  -5  -9  15    0.66    0.47
  -5   9  15    0.54    0.33
   3  -9 -15    1.71    0.49
  -3  -9  15    1.43    0.47
  -3  -9  15    1.94    0.51
  -3   9  15    1.44    0.36
   1  -9 -15    1.51    0.51
  -1  -9  15    0.81    0.47
  -1  -9  15    0.83    0.44
  -1   9  15    1.11    0.33
   1  -9  15    0.43    0.44
   1  -9  15    0.49    0.40
  -1  -9 -15    1.17    0.49
   1   9  15    0.84    0.35
  -3  -9 -15    2.54    0.58
   3  -9  15    2.26    0.48
   3  -9  15    2.12    0.49
   3   9  15    2.44    0.41
   5  -9  15    0.35    0.40
  -5  -9 -15    1.13    0.54
   5   9  15    0.50    0.35
  -5   9 -15    0.89    0.49
   7  -9  15    0.32    0.40
  -7  -9 -15    0.90    0.53
  -7   9 -15    1.51    0.53
   7   9  15    0.72    0.39
  -9  -9 -15    1.31    0.55
   9  -9  15    0.81    0.42
  -9   9 -15    1.04    0.52
   9   9  15    1.44    0.45
 -11  -9 -15    1.84    0.57
  11  -9  15    0.29    0.41
  11   9  15    0.65    0.47
 -11   9 -15    1.24    0.57
  13  -9  15    0.14    0.41
  13   9  15    0.37    0.50
 -13   9 -15    1.62    0.60
 -18  10  15    0.16    0.52
 -16  10  15    0.65    0.54
 -14 -10  15   -0.13    0.68
 -14  10  15    0.70    0.49
  14  10 -15    0.77    0.28
 -12 -10  15   -0.15    0.63
 -12  10  15   -0.47    0.46
 -12  10  15   -0.30    0.43
  12  10 -15   -0.39    0.25
 -10 -10  15    0.28    0.61
  10  10 -15   -0.01    0.25
 -10  10  15    0.03    0.44
 -10  10  15    0.22    0.39
  -8 -10  15    0.23    0.55
   8 -10 -15    0.99    0.49
  -8  10  15    0.51    0.36
   8  10 -15    0.31    0.26
  -6 -10  15    2.03    0.58
  -6 -10  15    1.81    0.56
   6 -10 -15    2.55    0.54
  -6  10  15    1.71    0.39
  -4 -10  15    0.68    0.52
  -4 -10  15    0.54    0.47
   4 -10 -15    1.77    0.53
  -4  10  15    0.86    0.35
  -2 -10  15    0.87    0.47
  -2 -10  15    0.66    0.50
   2 -10 -15    1.18    0.55
  -2  10  15    0.65    0.34
   0 -10  15    1.49    0.51
   0 -10 -15    1.28    0.53
   0 -10  15    1.51    0.47
   0  10  15    1.39    0.39
   2 -10  15    1.15    0.49
   2 -10  15    1.61    0.46
  -2 -10 -15    2.30    0.58
   2  10  15    1.82    0.39
  -4 -10 -15    2.08    0.61
   4 -10  15    1.95    0.50
   4  10  15    2.17    0.42
  -6 -10 -15    1.15    0.59
   6 -10  15    0.22    0.42
  -6  10 -15    0.73    0.49
   6  10  15    0.53    0.37
   8 -10  15    0.56    0.43
  -8 -10 -15    1.38    0.61
   8  10  15    0.32    0.41
  -8  10 -15    1.26    0.55
 -10 -10 -15    1.33    0.60
  10 -10  15   -0.06    0.40
 -10  10 -15    0.92    0.58
  10  10  15    0.29    0.44
  12 -10  15   -0.24    0.40
 -12 -10 -15    0.99    0.61
  12  10  15    0.06    0.49
 -12  10 -15    1.04    0.59
  14 -10  15    0.33    0.42
 -14  10 -15    1.75    0.68
 -17  11  15    0.40    0.51
  17  11 -15    0.07    0.31
 -15  11  15    0.54    0.54
  15  11 -15    0.20    0.28
 -13 -11  15   -0.34    0.92
  13  11 -15    0.18    0.27
 -13  11  15   -0.29    0.47
 -11 -11  15   -0.19    0.63
  11  11 -15    0.26    0.26
 -11  11  15    0.25    0.43
   9 -11 -15    0.95    0.51
  -9 -11  15    0.27    0.62
   9  11 -15    0.30    0.27
  -9  11  15   -0.12    0.38
  -9  11  15    0.20    0.41
  -7 -11  15    0.36    0.53
   7 -11 -15    1.24    0.53
  -7 -11  15    0.68    0.56
   7  11 -15    0.79    0.30
  -7  11  15    0.44    0.36
  -5 -11  15   -0.07    0.50
   5 -11 -15    0.07    0.50
  -5 -11  15   -0.16    0.42
  -5  11  15    0.38    0.34
  -3 -11  15   -0.06    0.42
  -3 -11  15    0.45    0.48
   3 -11 -15    0.46    0.54
  -3  11  15    0.48    0.35
   1 -11 -15    0.52    0.53
  -1 -11  15    0.23    0.44
  -1 -11  15    0.30    0.45
  -1  11  15    0.15    0.32
  -1 -11 -15    0.37    0.54
   1 -11  15    0.14    0.43
   1 -11  15   -0.03    0.42
   1  11  15    0.49    0.36
   3 -11  15    1.30    0.47
  -3 -11 -15    2.07    0.65
   3 -11  15    0.97    0.49
   3  11  15    1.61    0.40
  -5 -11 -15    0.69    0.60
   5 -11  15    0.06    0.45
   5  11  15    0.82    0.38
  -5  11 -15    0.48    0.50
  -7 -11 -15    0.68    0.60
   7 -11  15   -0.26    0.43
  -7  11 -15    0.00    0.48
   7  11  15    0.04    0.38
  -9 -11 -15    1.03    0.62
   9 -11  15    0.14    0.43
   9  11  15   -0.14    0.41
  -9  11 -15    0.39    0.50
  11 -11  15    0.13    0.42
 -11 -11 -15    1.43    0.67
  11  11  15    0.10    0.46
 -11  11 -15    0.93    0.59
  13 -11  15   -0.09    0.45
 -13  11 -15    1.16    0.68
 -16  12  15   -0.42    0.52
  16  12 -15    0.32    0.30
  14  12 -15    0.43    0.28
 -14  12  15    0.49    0.54
 -12  12  15    0.24    0.50
  12  12 -15    0.65    0.28
 -10 -12  15    0.22    0.67
 -10  12  15    0.08    0.40
 -10  12  15    0.25    0.44
   8 -12 -15    0.83    0.53
  -8 -12  15    0.01    0.59
  -8  12  15    0.49    0.39
   8  12 -15    0.67    0.29
  -6 -12  15    0.40    0.45
   6 -12 -15    1.11    0.57
  -6 -12  15    0.42    0.56
  -6  12  15    0.42    0.36
   4 -12 -15    0.87    0.58
  -4 -12  15   -0.22    0.47
  -4 -12  15    0.32    0.51
  -4  12  15    0.13    0.33
  -2 -12  15    0.41    0.48
   2 -12 -15    1.04    0.58
  -2 -12  15    0.45    0.50
  -2  12  15    0.29    0.32
   0 -12 -15    1.04    0.60
   0 -12  15    0.26    0.45
   0 -12  15    0.07    0.47
   0  12  15    0.27    0.32
   2 -12  15   -0.33    0.46
   2 -12  15    0.22    0.43
  -2 -12 -15    1.04    0.62
   2  12  15    0.47    0.38
   4 -12  15   -0.21    0.48
  -4 -12 -15    1.06    0.64
   4  12  15   -0.04    0.36
   6 -12  15   -0.24    0.47
  -6 -12 -15    0.70    0.64
   6  12  15    0.21    0.38
  -6  12 -15    0.47    0.51
  -8 -12 -15    1.15    0.67
   8 -12  15   -0.42    0.45
   8  12  15   -0.32    0.38
  -8  12 -15    0.01    0.51
 -10 -12 -15    1.78    0.70
  10 -12  15   -0.02    0.45
  10  12  15    0.50    0.46
 -10  12 -15    0.91    0.59
 -12 -12 -15    2.05    0.93
 -12  12 -15    1.27    0.76
 -15  13  15   -0.06    0.56
 -13  13  15   -0.34    0.49
  11  13 -15    0.32    0.29
  -9 -13  15   -0.13    0.63
   9 -13 -15    0.19    0.56
  -9  13  15   -0.10    0.36
   9  13 -15    0.71    0.32
  -9  13  15   -0.23    0.40
  -7 -13  15    0.25    0.61
   7 -13 -15    0.95    0.58
  -7  13  15    0.67    0.37
   7  13 -15    0.51    0.30
   5 -13 -15    1.30    0.61
  -5 -13  15    0.65    0.56
  -5 -13  15    0.12    0.49
  -5  13  15    0.56    0.36
   3 -13 -15    1.34    0.65
  -3 -13  15   -0.19    0.50
  -3 -13  15    0.54    0.54
  -3  13  15    0.05    0.31
  -1 -13  15   -0.21    0.47
  -1 -13  15    0.18    0.49
   1 -13 -15    1.53    0.66
  -1  13  15    0.62    0.32
   1 -13  15    0.37    0.46
   1 -13  15   -0.14    0.48
  -1 -13 -15    0.88    0.65
   1  13  15    0.32    0.32
   3 -13  15    0.33    0.47
   3 -13  15    0.24    0.48
  -3 -13 -15    0.80    0.66
   3  13  15    0.20    0.38
   5 -13  15    0.14    0.50
  -5 -13 -15    1.24    0.69
  -5  13 -15    0.19    0.52
   5  13  15    0.41    0.39
   7 -13  15   -0.32    0.49
  -7 -13 -15    1.21    0.73
   7  13  15    0.26    0.39
  -7  13 -15    0.14    0.52
  -9 -13 -15    1.65    0.82
   9  13  15   -0.23    0.40
  -9  13 -15    0.33    0.51
  12  14 -15    0.50    0.32
 -12  14  15   -0.46    0.54
 -10  14  15   -0.14    0.44
  10  14 -15    0.29    0.31
   8 -14 -15    0.27    0.64
   8  14 -15    0.49    0.31
  -8  14  15    0.14    0.45
   6 -14 -15    0.38    0.62
  -6 -14  15    0.48    0.63
  -6 -14  15    0.34    0.56
  -6  14  15    0.48    0.35
  -4 -14  15   -0.44    0.51
   4 -14 -15    0.47    0.65
  -4 -14  15    0.37    0.57
  -4  14  15   -0.07    0.31
   2 -14 -15    1.29    0.70
  -2 -14  15    0.04    0.53
  -2 -14  15    0.15    0.51
  -2  14  15    0.01    0.29
   0 -14  15    0.37    0.51
   0 -14 -15    1.00    0.74
   0 -14  15    0.48    0.53
   0  14  15    0.50    0.29
  -2 -14 -15    0.60    0.73
   2 -14  15   -0.28    0.52
   2 -14  15   -0.17    0.48
   2  14  15    0.14    0.30
  -4 -14 -15    0.73    0.81
   4 -14  15    0.43    0.66
   4  14  15    0.52    0.39
   6  14  15    0.16    0.39
  -6  14 -15    0.33    0.57
 -11  15  15    0.09    0.50
  11  15 -15    0.00    0.31
  -9  15  15   -0.16    0.41
   9  15 -15   -0.19    0.33
  -5 -15  15   -0.34    0.51
   5  15 -15    0.48    0.35
  -5  15  15    0.21    0.42
  -3 -15  15    0.00    0.54
  -3  15  15    0.39    0.33
  -1 -15  15    0.39    0.55
  -1  15  15    0.09    0.30
   1 -15  15    0.97    0.55
   1  15  15    1.16    0.35
   3  15  15    0.29    0.31
  -8  16  15    0.09    0.39
   8  16 -15    0.03    0.35
 -22   0  16   -0.13    0.44
 -20   0  16    0.16    0.41
  20   0 -16    0.96    0.36
 -18   0  16   -0.05    0.38
  18   0 -16    0.72    0.31
 -16   0  16    0.02    0.53
  16   0 -16    0.82    0.29
 -16   0  16    0.30    0.37
 -14   0  16    0.48    0.35
 -14   0  16    0.15    0.50
  14   0 -16    0.94    0.28
  12   0 -16    7.71    0.56
 -12   0  16    5.70    0.77
 -10   0  16    2.31    0.51
 -10   0  16    2.98    0.41
  -8   0  16   22.09    1.33
  -8   0  16   22.28    1.32
  -6   0  16    4.85    0.44
  -6   0  16    3.51    0.50
  -6   0  16    3.72    0.41
  -4   0  16    1.74    0.36
  -4   0  16    1.67    0.30
  -4   0  16    1.25    0.25
  -2   0  16    3.34    0.48
  -2   0  16    2.91    0.32
  -2   0  16    3.41    0.41
   0   0  16   12.70    0.79
   0   0  16   12.10    0.82
   0   0  16   12.36    0.86
  -2   0 -16    3.69    0.52
   2   0  16    3.12    0.42
   2   0  16    3.36    0.38
   4   0  16    1.94    0.29
  -4   0 -16    1.86    0.42
   4   0  16    1.90    0.32
  -6   0 -16   19.58    1.29
   6   0  16   18.64    1.21
   6   0  16   19.27    1.17
   8   0  16    4.80    0.57
  -8   0 -16    4.19    0.63
   8   0  16    5.60    0.54
  10   0  16    1.36    0.39
 -10   0 -16    1.25    0.54
  10   0  16    1.25    0.38
 -12   0 -16    4.69    0.70
  12   0  16    4.28    0.54
  12   0  16    4.85    0.54
  14   0  16    0.35    0.42
  14   0  16    0.64    0.37
 -16   0 -16    2.33    0.58
  16   0  16    1.27    0.52
 -21  -1  16    0.09    0.42
 -21   1  16   -0.20    0.42
  19  -1 -16    1.22    0.33
 -19  -1  16    0.20    0.39
 -19  -1  16   -0.21    0.62
  19   1 -16    0.85    0.37
 -19   1  16   -0.32    0.38
  17  -1 -16    1.14    0.30
 -17  -1  16    0.07    0.56
 -17  -1  16    0.41    0.39
  17   1 -16    1.22    0.31
 -17   1  16    0.47    0.38
  15  -1 -16    1.37    0.31
 -15  -1  16    0.60    0.55
 -15  -1  16    0.44    0.36
  15   1 -16    0.78    0.28
 -15   1  16    0.51    0.35
 -13  -1  16    1.00    0.53
  13  -1 -16    0.93    0.28
 -13   1  16    0.18    0.43
  13   1 -16    1.30    0.28
 -13   1  16    1.16    0.37
 -11  -1  16    2.99    0.58
 -11   1  16    3.94    0.45
 -11   1  16    3.01    0.41
 -11   1  16    2.43    0.51
  -9  -1  16    3.42    0.56
  -9   1  16    3.23    0.39
  -9   1  16    3.81    0.43
  -9   1  16    3.58    0.53
  -7  -1  16    5.00    0.63
  -7  -1  16    4.60    0.46
  -7  -1  16    3.80    0.44
  -7   1  16    4.80    0.49
  -7   1  16    4.70    0.46
  -7   1  16    5.21    0.57
  -5  -1  16    2.02    0.29
  -5  -1  16    2.39    0.41
  -5  -1  16    1.53    0.24
  -5   1  16    1.90    0.32
  -5   1  16    1.55    0.30
  -5   1  16    1.98    0.36
  -3  -1  16    2.65    0.41
  -3  -1  16    2.23    0.33
  -3  -1  16    2.27    0.28
  -3   1  16    2.07    0.31
  -3   1  16    1.94    0.32
  -3   1  16    2.30    0.36
  -1  -1  16    6.02    0.59
  -1  -1  16    5.82    0.53
  -1  -1  16    6.58    0.48
  -1   1  16    5.46    0.51
  -1   1  16    6.51    0.51
   1  -1  16    4.71    0.42
  -1  -1 -16    4.96    0.59
   1  -1  16    6.32    0.52
   1  -1  16    6.15    0.58
   1   1  16    5.57    0.48
   1   1  16    5.89    0.51
  -3  -1 -16    2.96    0.46
   3  -1  16    3.02    0.38
   3   1  16    3.39    0.36
   3   1  16    3.39    0.39
  -3   1 -16    2.97    0.45
  -5  -1 -16    6.17    0.66
   5  -1  16    6.13    0.50
   5  -1  16    5.89    0.56
   5   1  16    6.10    0.53
  -5   1 -16    6.38    0.68
   5   1  16    5.32    0.56
   7  -1  16    2.62    0.36
  -7  -1 -16    2.33    0.53
   7  -1  16    2.79    0.42
   7   1  16    2.79    0.42
  -7   1 -16    3.30    0.53
   7   1  16    3.01    0.39
  -9  -1 -16    2.65    0.60
   9  -1  16    3.23    0.41
   9  -1  16    3.47    0.47
   9   1  16    2.84    0.45
   9   1  16    3.11    0.44
  -9   1 -16    2.04    0.55
  11  -1  16    4.36    0.51
  11  -1  16    5.42    0.62
 -11  -1 -16    4.67    0.69
  11   1  16    5.12    0.61
 -11   1 -16    4.68    0.70
  11   1  16    4.49    0.60
  13  -1  16    1.69    0.44
 -13  -1 -16    2.97    0.66
  13  -1  16    1.68    0.42
  13   1  16    0.89    0.44
 -13   1 -16    2.80    0.62
  13   1  16    2.33    0.44
  15  -1  16    1.06    0.47
 -15  -1 -16    1.84    0.57
 -15   1 -16    2.35    0.65
  15   1  16    0.57    0.46
 -17  -1 -16    1.25    0.60
  17  -1  16    0.59    0.52
  17   1  16    0.94    0.51
 -17   1 -16    1.26    0.55
 -22  -2  16    0.15    0.45
 -20  -2  16   -0.27    0.69
 -20   2  16    0.09    0.40
 -18  -2  16   -0.31    0.60
  18  -2 -16    1.03    0.31
 -18   2  16    0.13    0.38
  16  -2 -16    1.38    0.34
 -16  -2  16    0.52    0.61
 -16  -2  16    0.65    0.39
 -16   2  16    0.77    0.38
 -14  -2  16   -0.61    0.53
  14  -2 -16    0.37    0.27
  14   2 -16    0.57    0.25
 -14   2  16    0.42    0.37
 -12  -2  16    0.46    0.36
 -12  -2  16    0.21    0.52
  12   2 -16    0.32    0.23
 -12   2  16    0.10    0.36
 -10  -2  16    4.08    0.64
 -10  -2  16    5.35    0.52
 -10   2  16    4.83    0.54
  -8  -2  16    2.41    0.33
  -8  -2  16    2.44    0.44
  -8  -2  16    3.12    0.54
  -8   2  16    2.47    0.37
  -8   2  16    2.77    0.45
  -8   2  16    3.02    0.40
  -6  -2  16    3.13    0.37
  -6  -2  16    3.27    0.49
  -6  -2  16    3.08    0.37
  -6   2  16    2.53    0.34
  -6   2  16    3.58    0.48
  -6   2  16    3.08    0.39
  -4  -2  16    3.10    0.41
  -4  -2  16    3.17    0.44
  -4  -2  16    2.50    0.29
  -4   2  16    2.83    0.36
  -4   2  16    3.02    0.44
  -4   2  16    2.61    0.36
  -2  -2  16    5.66    0.60
  -2  -2  16    5.85    0.54
  -2  -2  16    5.86    0.46
  -2   2  16    5.73    0.52
  -2   2  16    6.11    0.54
  -2   2  16    6.07    0.51
   0  -2  16    1.31    0.22
   0  -2 -16    0.35    0.30
   0  -2  16    1.11    0.34
   0  -2  16    1.01    0.30
   0   2  16    1.19    0.27
   0   2  16    1.23    0.29
   2  -2  16    0.50    0.27
  -2  -2 -16    0.26    0.34
   2  -2  16    0.61    0.21
   2   2  16    0.45    0.27
   2   2  16    0.60    0.26
   4  -2  16    5.53    0.44
   4  -2  16    5.17    0.52
  -4  -2 -16    4.81    0.60
   4   2  16    5.44    0.50
   4   2  16    5.22    0.52
  -4   2 -16    5.00    0.61
   6  -2  16    0.45    0.21
  -6  -2 -16    1.46    0.45
   6  -2  16    1.12    0.33
   6   2  16    1.18    0.31
   6   2  16    0.91    0.33
  -6   2 -16    1.04    0.41
  -8  -2 -16    5.45    0.78
   8  -2  16    5.76    0.54
   8  -2  16    5.82    0.62
   8   2  16    6.06    0.62
   8   2  16    5.81    0.60
  -8   2 -16    5.62    0.72
  10  -2  16    5.56    0.57
  10  -2  16    5.36    0.64
 -10  -2 -16    5.59    0.80
  10   2  16    6.11    0.66
  10   2  16    5.85    0.64
 -10   2 -16    6.11    0.78
  12  -2  16    5.79    0.65
  12  -2  16    4.71    0.56
 -12  -2 -16    6.22    0.86
  12   2  16    5.10    0.64
 -12   2 -16    5.70    0.83
  12   2  16    5.08    0.60
  14  -2  16    1.19    0.41
  14  -2  16    1.09    0.44
 -14  -2 -16    1.56    0.55
  14   2  16    1.09    0.41
 -14   2 -16    2.39    0.63
  14   2  16    0.74    0.44
 -16  -2 -16    1.51    0.61
  16  -2  16   -0.42    0.45
  16   2  16    0.42    0.47
 -16   2 -16    2.98    0.72
 -21   3  16   -0.62    0.42
 -19  -3  16   -0.41    0.66
 -19  -3  16    0.32    0.42
 -19   3  16    0.07    0.41
  17  -3 -16    0.39    0.30
 -17  -3  16    0.57    0.64
 -17  -3  16    0.07    0.39
 -17   3  16    0.18    0.41
 -15  -3  16    0.11    0.57
 -15  -3  16    0.40    0.38
  15  -3 -16    0.54    0.28
 -15   3  16    0.64    0.39
 -13  -3  16    0.19    0.37
 -13  -3  16    0.03    0.56
 -13   3  16    0.43    0.37
 -11  -3  16    1.56    0.39
 -11  -3  16    1.28    0.55
 -11   3  16    1.38    0.41
 -11   3  16    0.90    0.37
  -9  -3  16    1.33    0.52
  -9   3  16    1.22    0.38
  -7  -3  16    1.79    0.33
  -7  -3  16    1.75    0.49
  -7   3  16    1.69    0.36
  -7   3  16    2.09    0.37
  -5  -3  16    0.46    0.39
  -5  -3  16    0.76    0.27
  -5   3  16    0.90    0.31
  -5   3  16    0.81    0.31
  -3  -3  16    0.91    0.37
  -3  -3  16    0.85    0.23
  -3  -3  16    0.98    0.32
  -3   3  16    0.76    0.30
  -3   3  16    0.93    0.30
  -3   3  16    0.80    0.29
  -1  -3  16    1.47    0.33
  -1  -3  16    1.12    0.35
  -1  -3  16    0.87    0.21
  -1   3  16    1.14    0.29
  -1   3  16    1.29    0.29
   1  -3  16    0.17    0.31
  -1  -3 -16   -0.47    0.30
   1  -3  16    0.50    0.29
   1  -3  16    0.32    0.19
   1   3  16    0.31    0.27
   1   3  16    0.78    0.27
  -3  -3 -16    6.06    0.65
   3  -3  16    6.62    0.59
   3  -3  16    6.89    0.49
   3   3  16    6.67    0.56
   3   3  16    6.20    0.58
  -5  -3 -16    0.63    0.42
   5  -3  16    0.34    0.22
   5  -3  16    0.15    0.28
   5   3  16    0.10    0.28
  -5   3 -16    0.59    0.37
   5   3  16   -0.12    0.30
   7  -3  16    2.49    0.34
  -7  -3 -16    4.01    0.59
   7  -3  16    3.10    0.44
   7   3  16    3.08    0.42
   7   3  16    3.63    0.46
  -7   3 -16    3.70    0.56
  -9  -3 -16    4.55    0.64
   9  -3  16    3.78    0.47
   9  -3  16    4.26    0.52
   9   3  16    4.11    0.52
   9   3  16    4.04    0.51
  -9   3 -16    4.37    0.64
  11  -3  16    2.03    0.39
 -11  -3 -16    2.30    0.59
  11  -3  16    1.33    0.42
  11   3  16    1.88    0.47
 -11   3 -16    2.03    0.58
  11   3  16    1.51    0.43
  13  -3  16    1.93    0.44
 -13  -3 -16    1.99    0.58
  13  -3  16    1.62    0.43
 -13   3 -16    1.82    0.62
  13   3  16    1.56    0.44
  13   3  16    2.19    0.50
  15  -3  16    1.39    0.48
 -15  -3 -16    2.21    0.62
 -15   3 -16    2.54    0.66
  15   3  16    0.95    0.51
 -17  -3 -16    1.10    0.68
  17  -3  16    1.01    0.53
 -17   3 -16    2.41    0.68
 -20  -4  16   -0.10    0.43
 -20   4  16    0.02    0.42
  18  -4 -16    0.51    0.31
 -18  -4  16    0.25    0.40
 -18  -4  16   -0.13    0.66
 -18   4  16    0.03    0.43
 -16  -4  16    0.19    0.64
  16  -4 -16    0.86    0.31
 -16  -4  16    0.65    0.40
 -16   4  16    0.89    0.42
 -14  -4  16    0.19    0.38
 -14  -4  16   -0.05    0.59
 -12  -4  16    0.12    0.36
 -12  -4  16   -0.02    0.54
 -12   4  16   -0.02    0.37
 -12   4  16    0.03    0.41
 -10  -4  16   -0.01    0.53
 -10   4  16   -0.04    0.33
 -10   4  16    0.40    0.37
  -8  -4  16    0.91    0.49
   8  -4 -16    0.81    0.32
  -8   4  16    1.37    0.36
  -6  -4  16    0.33    0.30
  -6  -4  16    0.18    0.41
  -6   4  16    0.50    0.32
  -4  -4  16    3.40    0.50
  -4  -4  16    4.49    0.49
  -4   4  16    4.28    0.48
  -4   4  16    3.56    0.48
  -2  -4  16    1.38    0.39
  -2  -4  16    1.88    0.37
  -2   4  16    1.54    0.34
  -2   4  16    1.75    0.33
   0  -4  16    0.22    0.32
   0  -4  16    0.19    0.31
   0  -4 -16    0.12    0.27
   0   4  16    0.00    0.27
   0   4  16    0.13    0.29
  -2  -4 -16    3.76    0.48
   2  -4  16    4.11    0.50
   2  -4  16    4.41    0.54
   2   4  16    4.49    0.47
   2   4  16    3.54    0.49
   4  -4  16    0.83    0.32
   4  -4  16    0.68    0.32
  -4  -4 -16    0.70    0.40
  -4   4 -16    0.55    0.34
   4   4  16    0.79    0.33
   4   4  16    1.02    0.31
   6  -4  16    1.17    0.36
  -6  -4 -16    1.41    0.48
   6  -4  16    1.36    0.26
   6   4  16    0.91    0.37
  -6   4 -16    1.42    0.45
   6   4  16    1.45    0.35
   8  -4  16    0.89    0.36
  -8  -4 -16    0.88    0.50
   8  -4  16    0.57    0.26
  -8   4 -16    0.90    0.45
   8   4  16    0.95    0.38
   8   4  16    0.66    0.37
  10  -4  16    0.26    0.35
 -10  -4 -16    2.01    0.56
 -10   4 -16    0.72    0.50
  10   4  16    0.53    0.41
  10   4  16    0.92    0.39
  12  -4  16   -0.04    0.34
  12  -4  16    0.72    0.39
 -12  -4 -16    0.93    0.56
  12   4  16    0.18    0.44
  12   4  16    0.21    0.40
 -12   4 -16    0.28    0.53
 -14  -4 -16    1.92    0.63
  14  -4  16    0.62    0.42
  14  -4  16    1.54    0.44
  14   4  16    1.38    0.51
 -14   4 -16    1.79    0.64
  14   4  16    0.04    0.44
 -16  -4 -16    1.28    0.67
  16  -4  16    0.34    0.48
  16   4  16   -0.19    0.51
 -16   4 -16    2.06    0.67
 -21  -5  16   -0.51    0.45
 -21   5  16   -0.78    0.45
 -19  -5  16   -0.32    0.43
 -19   5  16   -0.11    0.49
 -17  -5  16   -0.18    0.42
  17  -5 -16    0.46    0.31
 -17  -5  16   -0.21    0.64
 -17   5  16    0.11    0.43
  15  -5 -16    0.46    0.29
 -15  -5  16    0.43    0.40
 -15  -5  16    0.08    0.61
 -15   5  16    0.30    0.41
 -13  -5  16   -0.52    0.38
 -13  -5  16    0.03    0.58
 -13   5  16    0.12    0.39
 -11  -5  16    0.48    0.38
 -11  -5  16   -0.24    0.51
 -11   5  16    0.13    0.40
 -11   5  16    0.10    0.35
   9  -5 -16    0.29    0.39
  -9  -5  16    0.16    0.49
  -9   5  16    0.38    0.37
   7  -5 -16    1.11    0.36
  -7  -5  16    0.54    0.45
  -7  -5  16    1.07    0.36
  -7   5  16    0.95    0.36
  -5  -5  16    1.44    0.44
  -5  -5  16    1.98    0.38
   5  -5 -16    1.28    0.39
  -5   5  16    1.33    0.34
  -3  -5  16    2.53    0.41
  -3  -5  16    2.12    0.44
  -3   5  16    2.41    0.37
  -1  -5  16    1.45    0.38
  -1  -5  16    0.77    0.36
  -1   5  16    1.00    0.32
  -1   5  16    1.09    0.31
   1  -5  16    0.52    0.34
   1  -5  16    0.98    0.35
   1   5  16    1.04    0.30
   1   5  16    0.57    0.32
   3  -5  16    2.10    0.40
   3   5  16    2.21    0.35
   3   5  16    2.09    0.38
   5  -5  16    3.71    0.48
  -5  -5 -16    4.17    0.55
  -5   5 -16    4.16    0.58
   5   5  16    4.26    0.51
   5   5  16    3.31    0.47
  -7  -5 -16    2.60    0.54
   7  -5  16    2.22    0.43
   7   5  16    2.06    0.41
   7   5  16    1.67    0.42
  -7   5 -16    2.02    0.53
   9  -5  16    0.21    0.36
  -9  -5 -16    0.92    0.51
  -9   5 -16    0.47    0.46
   9   5  16   -0.52    0.37
   9   5  16   -0.25    0.37
  11  -5  16    0.87    0.40
 -11  -5 -16    1.20    0.58
 -11   5 -16    1.18    0.54
  11   5  16    0.31    0.42
  11   5  16    1.63    0.46
 -13  -5 -16    1.02    0.60
  13  -5  16    0.50    0.38
 -13   5 -16    0.63    0.57
  13   5  16    0.59    0.50
 -15  -5 -16    1.25    0.66
  15   5  16    0.58    0.56
 -15   5 -16    1.56    0.64
 -17  -5 -16    1.07    0.71
 -20   6  16    0.28    0.49
 -18  -6  16   -0.21    0.39
 -18   6  16   -0.39    0.45
  16  -6 -16    0.30    0.29
 -16  -6  16    0.17    0.40
 -16  -6  16   -0.35    0.61
 -16   6  16    0.39    0.46
 -14  -6  16   -0.57    0.57
 -14  -6  16    0.05    0.38
 -14   6  16    0.20    0.41
 -12  -6  16    0.03    0.55
 -12  -6  16    0.62    0.37
 -12   6  16    0.45    0.43
 -10  -6  16   -0.53    0.36
 -10  -6  16   -0.54    0.50
 -10   6  16    0.33    0.40
   8  -6 -16    0.30    0.36
  -8  -6  16   -0.02    0.48
  -8   6  16    0.59    0.36
  -6  -6  16    0.21    0.19
  -6  -6  16    0.50    0.44
   6  -6 -16    1.06    0.39
  -6   6  16    0.42    0.35
   4  -6 -16    0.79    0.38
  -4  -6  16    0.74    0.40
  -4  -6  16    1.24    0.41
  -4   6  16    1.21    0.35
   2  -6 -16    0.21    0.37
  -2  -6  16    0.66    0.39
  -2  -6  16    0.56    0.36
  -2   6  16    0.77    0.31
   0  -6  16   -0.11    0.33
   0  -6  16    0.19    0.36
   0   6  16    0.13    0.29
   2  -6  16    0.17    0.33
   2  -6  16    0.16    0.36
   2   6  16    0.42    0.30
   4  -6  16    3.92    0.50
   4   6  16    3.59    0.43
   6  -6  16    4.34    0.53
   6   6  16    4.06    0.49
  -6   6 -16    4.60    0.65
   8  -6  16    0.24    0.36
  -8  -6 -16    1.48    0.59
   8   6  16    0.11    0.37
  -8   6 -16    0.48    0.49
 -10  -6 -16    1.56    0.57
  10  -6  16   -0.23    0.37
 -10   6 -16    0.54    0.50
  10   6  16   -0.28    0.39
 -12  -6 -16    1.00    0.61
  12  -6  16    0.34    0.37
 -12   6 -16    0.45    0.52
  12   6  16    0.27    0.45
  14  -6  16    0.62    0.38
 -14  -6 -16    0.69    0.63
  14   6  16    0.42    0.49
 -14   6 -16    0.73    0.59
 -16  -6 -16    1.14    0.72
 -19  -7  16    0.18    0.44
 -17  -7  16    0.74    0.44
 -17   7  16    0.32    0.47
  15  -7 -16    0.57    0.29
 -15  -7  16   -0.16    0.61
 -15  -7  16    0.27    0.41
 -13  -7  16   -0.08    0.58
 -13  -7  16    0.57    0.39
 -13   7  16   -0.07    0.42
 -13   7  16    0.21    0.45
 -11  -7  16   -0.17    0.56
 -11  -7  16    0.30    0.38
 -11   7  16    0.39    0.42
  -9  -7  16   -0.07    0.37
  -9  -7  16   -0.14    0.49
   9  -7 -16    0.75    0.38
  -9   7  16    0.59    0.38
   7  -7 -16    0.32    0.40
  -7  -7  16   -0.11    0.38
  -7  -7  16    0.01    0.45
  -7   7  16    0.09    0.35
  -5  -7  16   -0.05    0.40
  -5  -7  16    0.31    0.41
   5  -7 -16    0.00    0.39
  -5   7  16    0.10    0.33
   3  -7 -16    2.12    0.48
  -3  -7  16    2.32    0.48
  -3  -7  16    1.96    0.46
  -3   7  16    1.79    0.38
   1  -7 -16    1.16    0.43
  -1  -7  16    1.63    0.44
  -1  -7  16    0.84    0.39
  -1   7  16    0.95    0.33
  -1  -7 -16    0.14    0.40
   1  -7  16   -0.13    0.35
   1  -7  16    0.27    0.39
   1   7  16    0.18    0.29
  -3  -7 -16    0.41    0.44
   3  -7  16    0.28    0.37
   3  -7  16    0.16    0.36
   3   7  16   -0.06    0.30
  -5  -7 -16    1.65    0.51
   5  -7  16    1.41    0.42
   5   7  16    1.68    0.37
  -5   7 -16    1.82    0.50
   7  -7  16    0.98    0.41
  -7  -7 -16    1.68    0.51
  -7   7 -16    1.42    0.51
   7   7  16    1.13    0.39
   9  -7  16    1.27    0.43
  -9  -7 -16    1.05    0.52
   9   7  16    1.12    0.45
  -9   7 -16    1.42    0.53
  11  -7  16    0.07    0.38
 -11  -7 -16    0.97    0.52
  11   7  16    0.70    0.46
 -11   7 -16    0.73    0.52
 -13  -7 -16    1.22    0.53
  13  -7  16    0.02    0.38
  13   7  16    0.24    0.47
 -13   7 -16    0.90    0.55
 -15  -7 -16    0.26    0.82
 -15   7 -16    1.60    0.64
 -18   8  16    0.50    0.52
 -16  -8  16   -0.04    0.44
 -16   8  16    0.14    0.50
 -14  -8  16    0.17    0.41
 -14  -8  16   -0.44    0.62
 -12  -8  16   -0.42    0.57
 -12   8  16   -0.26    0.43
 -12   8  16    0.23    0.43
 -10  -8  16    0.31    0.54
 -10   8  16    0.57    0.41
 -10   8  16   -0.39    0.39
   8  -8 -16    1.35    0.43
  -8  -8  16    0.53    0.52
  -8   8  16    0.42    0.37
  -6  -8  16    0.90    0.48
  -6  -8  16    1.25    0.47
   6  -8 -16    1.35    0.45
  -6   8  16    1.07    0.38
   4  -8 -16    0.47    0.44
  -4  -8  16    0.35    0.40
  -4  -8  16   -0.05    0.45
  -4   8  16    0.21    0.33
  -2  -8  16    1.28    0.49
   2  -8 -16    1.80    0.49
  -2  -8  16    1.81    0.45
  -2   8  16    1.77    0.37
   0  -8  16    2.71    0.49
   0  -8  16    3.49    0.54
   0  -8 -16    2.22    0.54
   0   8  16    3.44    0.43
   2  -8  16    1.05    0.45
  -2  -8 -16    0.33    0.44
   2  -8  16    0.74    0.39
   2   8  16    1.17    0.35
   4  -8  16    1.63    0.45
  -4  -8 -16    1.27    0.50
   4   8  16    1.22    0.36
   6  -8  16    0.58    0.40
  -6  -8 -16    1.01    0.53
  -6   8 -16    1.59    0.53
   6   8  16    0.84    0.37
  -8  -8 -16    2.98    0.62
   8  -8  16    3.63    0.55
  -8   8 -16    3.69    0.69
   8   8  16    3.68    0.53
 -10  -8 -16    0.80    0.51
  10  -8  16    0.20    0.40
 -10   8 -16    0.18    0.51
  10   8  16   -0.19    0.40
  12  -8  16    0.45    0.39
 -12  -8 -16    2.32    0.61
 -12   8 -16    1.80    0.60
  12   8  16    0.55    0.49
  14  -8  16    0.21    0.39
  14   8  16    0.58    0.54
 -14   8 -16    1.79    0.64
 -17   9  16    0.31    0.54
 -15   9  16    0.32    0.52
 -13  -9  16   -0.06    0.65
 -13   9  16   -0.17    0.47
 -13   9  16   -0.20    0.46
 -11  -9  16    0.27    0.59
 -11   9  16    0.26    0.42
 -11   9  16    0.56    0.46
   9  -9 -16    1.30    0.45
  -9  -9  16    0.21    0.55
  -9   9  16    0.49    0.40
  -9   9  16    0.28    0.39
  -7  -9  16   -0.17    0.49
   7  -9 -16    1.50    0.47
  -7   9  16    0.84    0.37
   5  -9 -16    1.62    0.49
  -5  -9  16    1.09    0.49
  -5  -9  16    0.94    0.48
  -5   9  16    0.61    0.36
   3  -9 -16    0.47    0.46
  -3  -9  16   -0.07    0.48
  -3  -9  16   -0.10    0.42
  -3   9  16    0.13    0.33
   1  -9 -16    3.41    0.59
  -1  -9  16    2.40    0.57
  -1  -9  16    2.27    0.51
  -1   9  16    2.71    0.42
   1  -9  16    2.57    0.49
   1  -9  16    2.55    0.52
  -1  -9 -16    3.06    0.58
   1   9  16    2.20    0.41
   3  -9  16    0.46    0.41
  -3  -9 -16    0.52    0.50
   3  -9  16    0.14    0.43
   3   9  16    0.39    0.35
  -5  -9 -16    1.72    0.58
   5  -9  16    1.46    0.47
  -5   9 -16    1.85    0.56
   5   9  16    1.64    0.41
   7  -9  16    1.15    0.46
  -7  -9 -16    2.43    0.60
  -7   9 -16    1.86    0.57
   7   9  16    1.31    0.42
  -9  -9 -16    1.43    0.56
   9  -9  16    0.55    0.45
  -9   9 -16    1.19    0.55
   9   9  16    0.85    0.45
  11  -9  16    0.14    0.42
 -11  -9 -16    1.79    0.59
  11   9  16    0.26    0.45
 -11   9 -16    0.47    0.54
  13  -9  16   -0.16    0.39
 -13   9 -16    1.29    0.58
  13   9  16    0.62    0.50
 -18  10  16    0.21    0.53
  14  10 -16    0.18    0.27
 -12 -10  16   -0.56    0.61
  12  10 -16    0.22    0.28
 -12  10  16   -0.52    0.46
 -10 -10  16    0.64    0.61
 -10  10  16    0.86    0.42
  10  10 -16    0.36    0.27
  -8 -10  16    0.40    0.55
   8 -10 -16    1.14    0.48
  -8  10  16    0.54    0.39
  -6 -10  16   -0.02    0.51
  -6 -10  16    0.37    0.51
   6 -10 -16    0.90    0.49
  -6  10  16    0.79    0.38
   4 -10 -16    1.63    0.53
  -4 -10  16    1.35    0.55
  -4 -10  16    0.71    0.48
  -4  10  16    0.88    0.36
  -2 -10  16    1.46    0.50
   2 -10 -16    2.45    0.57
  -2 -10  16    1.77    0.60
  -2  10  16    1.67    0.39
   0 -10 -16    2.17    0.57
   0 -10  16    2.81    0.54
   0 -10  16    2.83    0.58
   0  10  16    2.59    0.44
   2 -10  16   -0.14    0.47
   2 -10  16    0.26    0.40
  -2 -10 -16    1.13    0.55
   2  10  16    0.66    0.36
   4 -10  16    0.89    0.48
  -4 -10 -16    1.62    0.60
   4  10  16    0.92    0.39
   6 -10  16    2.56    0.55
  -6 -10 -16    3.60    0.68
  -6  10 -16    2.68    0.63
   6  10  16    2.53    0.46
   8 -10  16    1.02    0.46
  -8 -10 -16    1.88    0.64
   8  10  16    0.81    0.44
  -8  10 -16    1.13    0.57
  10 -10  16    0.10    0.44
 -10 -10 -16    1.49    0.60
 -10  10 -16    1.66    0.62
  10  10  16    0.50    0.46
 -12 -10 -16    1.57    0.65
  12 -10  16    0.69    0.47
 -12  10 -16    1.14    0.63
  12  10  16    0.63    0.51
  14 -10  16   -0.08    0.58
  15  11 -16    0.47    0.29
 -15  11  16   -0.11    0.54
 -11 -11  16    0.89    0.70
 -11  11  16    1.20    0.48
  11  11 -16    0.51    0.27
   9 -11 -16    2.35    0.58
  -9 -11  16    1.12    0.64
  -9  11  16    1.58    0.46
   9  11 -16    1.26    0.31
   7 -11 -16    1.71    0.53
  -7 -11  16    0.96    0.58
   7  11 -16    0.52    0.31
  -7  11  16    1.00    0.42
   5 -11 -16    1.50    0.54
  -5 -11  16    0.83    0.53
  -5 -11  16    0.49    0.62
  -5  11  16    0.71    0.38
  -3 -11  16    1.78    0.66
  -3 -11  16    1.29    0.54
   3 -11 -16    2.18    0.59
  -3  11  16    1.19    0.38
  -1 -11  16    1.79    0.52
  -1 -11  16    2.21    0.65
   1 -11 -16    1.68    0.61
  -1  11  16    1.92    0.40
  -1 -11 -16    0.84    0.59
   1 -11  16    0.78    0.54
   1 -11  16    1.27    0.48
   1  11  16    1.57    0.42
   3 -11  16    0.37    0.44
   3 -11  16    0.34    0.49
  -3 -11 -16    0.94    0.58
   3  11  16    0.80    0.39
   5 -11  16    1.42    0.52
  -5 -11 -16    2.89    0.67
  -5  11 -16    2.05    0.60
   5  11  16    1.49    0.43
   7 -11  16    0.82    0.49
  -7 -11 -16    1.65    0.63
  -7  11 -16    0.97    0.56
   7  11  16    0.94    0.42
   9 -11  16    1.52    0.52
  -9 -11 -16    2.52    0.69
   9  11  16    1.78    0.51
  -9  11 -16    2.41    0.63
  11 -11  16    0.74    0.47
 -11 -11 -16    3.08    0.74
 -11  11 -16    2.12    0.66
  11  11  16    2.10    0.57
  14  12 -16    0.46    0.29
 -12  12  16    0.67    0.53
  12  12 -16    0.59    0.29
 -10 -12  16    0.31    0.68
  10  12 -16    0.66    0.30
 -10  12  16    0.48    0.44
  -8 -12  16    1.41    0.66
   8 -12 -16    1.33    0.57
  -8  12  16    1.54    0.45
   6 -12 -16    1.17    0.55
  -6 -12  16   -0.27    0.65
  -6 -12  16    0.23    0.55
  -6  12  16    0.50    0.39
  -4 -12  16    2.26    0.54
   4 -12 -16    3.66    0.66
  -4 -12  16    2.53    0.63
  -4  12  16    1.83    0.42
   2 -12 -16    0.79    0.59
  -2 -12  16    0.25    0.49
  -2 -12  16    0.05    0.49
  -2  12  16    0.14    0.34
   0 -12 -16    1.62    0.63
   0 -12  16    1.58    0.63
   0 -12  16    1.07    0.50
   0  12  16    0.64    0.36
   2 -12  16    0.22    0.56
   2 -12  16    1.13    0.49
  -2 -12 -16    2.18    0.67
   2  12  16    0.60    0.39
   4 -12  16    0.23    0.52
  -4 -12 -16    0.77    0.63
   4  12  16    0.58    0.39
  -6 -12 -16    1.92    0.70
   6 -12  16    0.95    0.52
  -6  12 -16    0.84    0.56
   6  12  16    0.75    0.40
   8 -12  16    1.08    0.52
  -8 -12 -16    3.65    0.77
   8  12  16    2.63    0.50
  -8  12 -16    1.87    0.62
 -10 -12 -16    2.39    0.74
 -10  12 -16    2.07    0.70
  13  13 -16    0.34    0.30
  11  13 -16    0.51    0.32
   9 -13 -16    0.35    0.69
   9  13 -16    0.61    0.32
   7 -13 -16    0.92    0.60
  -7 -13  16    0.52    0.64
  -7  13  16    0.56    0.39
   5 -13 -16    1.72    0.62
  -5 -13  16    0.32    0.59
  -5 -13  16   -0.10    0.52
  -5  13  16    0.74    0.37
  -3 -13  16    0.57    0.55
   3 -13 -16    1.83    0.66
  -3 -13  16    0.73    0.54
  -3  13  16    0.56    0.34
   1 -13 -16    2.75    0.70
  -1 -13  16    1.50    0.56
  -1 -13  16    0.85    0.52
  -1  13  16    1.04    0.35
  -1 -13 -16    1.67    0.68
   1 -13  16    0.62    0.47
   1 -13  16    0.10    0.51
   1  13  16    0.50    0.34
   3 -13  16    0.29    0.56
  -3 -13 -16    2.05    0.73
   3  13  16    0.96    0.41
  -5 -13 -16    1.96    0.73
   5 -13  16   -0.11    0.50
  -5  13 -16    0.43    0.52
   5  13  16    0.33    0.39
  -7 -13 -16    2.00    0.87
   7  13  16    1.45    0.45
  -7  13 -16    0.97    0.58
  -9  13 -16    0.86    0.58
 -12  14  16   -0.19    0.52
  12  14 -16    0.22    0.33
  10  14 -16    0.34    0.33
   8 -14 -16    0.58    0.69
   8  14 -16    0.09    0.36
   6 -14 -16    0.83    0.67
  -6 -14  16    0.43    0.64
  -6  14  16    0.24    0.38
  -4 -14  16    0.07    0.54
  -4 -14  16    0.89    0.63
   4 -14 -16    2.12    0.71
  -4  14  16    0.68    0.36
  -2 -14  16    0.14    0.55
   2 -14 -16    2.00    0.73
  -2 -14  16    0.47    0.54
  -2  14  16    0.35    0.31
   0 -14  16   -0.09    0.49
   0 -14 -16    1.24    0.80
   0 -14  16    0.45    0.51
   0  14  16    0.32    0.30
   2 -14  16   -0.07    0.67
   2 -14  16    0.46    0.51
   2  14  16    0.53    0.33
   4  14  16    0.78    0.42
  -6  14 -16    0.48    0.54
   7  15 -16    0.13    0.34
  -1 -15  16   -0.56    0.52
   1 -15  16    0.32    0.56
   6  16 -16    0.20    0.34
  20   0 -17    0.69    0.42
 -20   0  17   -0.16    0.42
  18   0 -17    0.78    0.31
 -18   0  17   -0.40    0.39
 -16   0  17   -0.55    0.37
  16   0 -17    0.35    0.27
 -14   0  17   -0.50    0.51
 -14   0  17   -0.33    0.36
  14   0 -17    0.38    0.26
 -12   0  17    0.04    0.47
 -12   0  17    0.51    0.36
 -10   0  17    0.24    0.44
 -10   0  17    0.01    0.34
  -8   0  17    0.32    0.31
  -8   0  17    0.45    0.42
  -8   0  17    0.35    0.36
  -6   0  17    0.08    0.27
  -6   0  17   -0.10    0.31
  -4   0  17    0.12    0.27
  -4   0  17   -0.15    0.21
  -4   0  17   -0.07    0.32
  -2   0  17   -0.03    0.27
  -2   0  17    0.03    0.32
  -2   0  17    0.00    0.22
   0   0  17    0.05    0.25
   0   0  17    0.12    0.33
   0   0  17    0.22    0.23
  -2   0 -17   -0.35    0.31
   2   0  17    0.10    0.23
   2   0  17   -0.03    0.25
   4   0  17   -0.08    0.24
  -4   0 -17   -0.08    0.37
   4   0  17   -0.06    0.26
  -6   0 -17    0.66    0.41
   6   0  17    0.47    0.28
   6   0  17    0.16    0.30
  -8   0 -17   -0.24    0.46
   8   0  17   -0.11    0.31
   8   0  17   -0.23    0.33
  10   0  17    0.14    0.36
 -10   0 -17    0.40    0.52
  10   0  17    0.16    0.37
  12   0  17   -0.34    0.38
  12   0  17   -0.38    0.35
 -12   0 -17    0.71    0.51
  14   0  17   -0.51    0.41
  14   0  17    0.36    0.38
 -14   0 -17    1.79    0.61
  16   0  17   -0.28    0.46
 -16   0 -17    1.71    0.56
 -21  -1  17    0.37    0.45
 -21   1  17   -0.36    0.42
  19  -1 -17    1.06    0.34
 -19  -1  17    0.29    0.42
 -17  -1  17   -0.66    0.56
 -17  -1  17   -0.41    0.38
  17  -1 -17    0.82    0.30
  17   1 -17    0.57    0.31
 -17   1  17    0.13    0.38
 -15  -1  17   -0.02    0.37
 -15  -1  17   -0.47    0.53
  15  -1 -17    0.45    0.29
  15   1 -17    0.63    0.28
 -15   1  17    0.00    0.36
 -13  -1  17    0.12    0.36
  13  -1 -17    0.72    0.26
 -13  -1  17    0.05    0.52
 -13   1  17   -0.18    0.35
  13   1 -17    0.41    0.25
 -11  -1  17    0.07    0.48
 -11   1  17    0.22    0.37
 -11   1  17   -0.24    0.51
  -9  -1  17    0.66    0.48
  -9  -1  17    0.64    0.28
  -9   1  17    0.61    0.35
  -9   1  17    0.29    0.44
  -7  -1  17    2.30    0.35
  -7  -1  17    2.50    0.36
  -7  -1  17    2.43    0.48
  -7   1  17    2.94    0.46
  -7   1  17    2.44    0.38
  -7   1  17    3.13    0.38
  -5  -1  17    0.16    0.25
  -5  -1  17    0.29    0.27
  -5  -1  17    0.22    0.36
  -5   1  17    0.44    0.33
  -5   1  17   -0.03    0.29
  -5   1  17    0.27    0.29
  -3  -1  17    2.43    0.35
  -3  -1  17    2.04    0.29
  -3  -1  17    2.24    0.42
  -3   1  17    2.11    0.38
  -3   1  17    2.45    0.35
  -3   1  17    2.52    0.34
  -1  -1  17    1.40    0.26
  -1  -1  17    1.26    0.36
  -1  -1  17    1.13    0.30
  -1   1  17    1.25    0.28
  -1   1  17    1.16    0.29
  -1   1  17    0.61    0.22
   1  -1  17    0.17    0.20
   1  -1  17    0.08    0.26
  -1  -1 -17    0.20    0.32
   1   1  17   -0.04    0.25
   1   1  17    0.28    0.25
   3  -1  17    0.05    0.16
   3  -1  17    0.12    0.27
  -3  -1 -17   -0.23    0.35
   3   1  17    0.05    0.25
   3   1  17    0.00    0.27
  -3   1 -17   -0.24    0.33
   5  -1  17    0.50    0.31
   5  -1  17    0.67    0.26
  -5  -1 -17    0.72    0.41
   5   1  17    0.44    0.30
   5   1  17    0.55    0.29
  -5   1 -17    0.02    0.39
  -7  -1 -17    4.80    0.66
   7  -1  17    4.52    0.58
   7  -1  17    4.57    0.51
   7   1  17    5.00    0.57
  -7   1 -17    4.87    0.65
   7   1  17    4.97    0.54
   9  -1  17    0.79    0.37
  -9  -1 -17    0.74    0.52
   9  -1  17    0.67    0.34
   9   1  17    0.02    0.36
   9   1  17    0.57    0.36
  -9   1 -17    0.35    0.48
 -11  -1 -17    2.18    0.56
  11  -1  17    1.07    0.39
  11  -1  17    1.60    0.43
  11   1  17    1.15    0.42
 -11   1 -17    1.57    0.57
  11   1  17    0.98    0.40
  13  -1  17    1.12    0.41
  13  -1  17    0.06    0.40
 -13  -1 -17    2.06    0.60
 -13   1 -17    1.61    0.55
  13   1  17    0.19    0.44
  13   1  17    0.66    0.40
  15  -1  17   -0.41    0.43
 -15   1 -17    2.09    0.65
  15   1  17   -0.28    0.45
  17  -1  17   -0.18    0.49
 -17  -1 -17    1.90    0.69
  17   1  17   -0.65    0.63
 -20  -2  17    0.16    0.42
 -20   2  17   -0.05    0.42
  18  -2 -17    0.30    0.31
 -18  -2  17    0.10    0.64
 -18   2  17   -0.25    0.39
 -16  -2  17   -0.45    0.54
  16  -2 -17    0.58    0.30
 -16   2  17   -0.16    0.38
 -14  -2  17    0.48    0.38
 -14  -2  17   -0.25    0.53
  14  -2 -17    0.31    0.27
 -14   2  17    0.06    0.37
 -12  -2  17    0.63    0.54
  12   2 -17    0.99    0.29
 -10  -2  17    0.27    0.36
 -10  -2  17    0.21    0.52
 -10   2  17    0.46    0.38
  -8  -2  17    1.47    0.34
  -8  -2  17    2.12    0.52
  -8   2  17    1.38    0.36
  -8   2  17    2.40    0.39
  -6  -2  17    1.49    0.45
  -6  -2  17    1.70    0.33
  -6  -2  17    1.27    0.28
  -6   2  17    1.80    0.36
  -6   2  17    1.93    0.38
  -4  -2  17    0.16    0.22
  -4  -2  17   -0.22    0.28
  -4  -2  17    0.21    0.36
  -4   2  17    0.04    0.29
  -4   2  17   -0.04    0.31
  -4   2  17   -0.14    0.29
  -2  -2  17    4.06    0.40
  -2  -2  17    3.55    0.46
  -2  -2  17    3.86    0.54
  -2   2  17    4.13    0.49
  -2   2  17    3.51    0.45
  -2   2  17    4.22    0.46
   0  -2  17    3.59    0.37
   0  -2  17    3.63    0.45
   0  -2  17    3.88    0.51
   0  -2 -17    2.09    0.40
   0   2  17    3.69    0.43
   0   2  17    3.15    0.39
  -2  -2 -17   -0.22    0.34
   2  -2  17   -0.01    0.26
   2  -2  17    0.06    0.21
   2   2  17    0.08    0.27
   2   2  17    0.48    0.27
  -4  -2 -17    2.54    0.45
   4  -2  17    1.61    0.34
   4  -2  17    1.83    0.28
   4   2  17    1.83    0.36
  -4   2 -17    2.04    0.44
   4   2  17    1.78    0.34
  -6  -2 -17    4.06    0.59
   6  -2  17    4.33    0.50
  -6   2 -17    3.65    0.59
   6   2  17    4.95    0.52
   6   2  17    4.27    0.46
  -8  -2 -17    1.02    0.53
   8  -2  17    1.38    0.39
   8  -2  17    0.65    0.31
  -8   2 -17    0.64    0.47
   8   2  17    1.24    0.37
   8   2  17    0.65    0.37
  10  -2  17    3.72    0.52
  10  -2  17    3.32    0.44
 -10  -2 -17    3.95    0.63
  10   2  17    3.94    0.52
  10   2  17    3.84    0.51
 -10   2 -17    4.04    0.65
  12  -2  17    1.52    0.41
 -12  -2 -17    2.18    0.59
  12  -2  17    1.54    0.44
  12   2  17    1.46    0.47
  12   2  17    1.29    0.43
 -12   2 -17    2.14    0.60
 -14  -2 -17    1.73    0.55
  14  -2  17    0.64    0.40
  14  -2  17    0.34    0.44
  14   2  17    0.98    0.43
  14   2  17   -0.02    0.46
 -14   2 -17    1.50    0.58
 -16  -2 -17    1.59    0.60
  16   2  17    0.17    0.49
 -16   2 -17    2.91    0.70
 -21  -3  17    0.11    0.46
 -21   3  17    0.00    0.48
 -19  -3  17    0.07    0.75
 -19  -3  17    0.26    0.43
 -17  -3  17    0.03    0.41
  17  -3 -17    0.27    0.30
 -17  -3  17   -0.02    0.61
 -15  -3  17   -0.08    0.38
 -15  -3  17   -0.01    0.59
  15  -3 -17    0.05    0.27
 -15   3  17   -0.46    0.39
 -13  -3  17    0.94    0.59
 -11  -3  17    1.80    0.41
 -11  -3  17    1.26    0.60
 -11   3  17    1.75    0.44
  -9  -3  17    2.61    0.60
  -9   3  17    3.11    0.45
  -7  -3  17    3.44    0.42
  -7  -3  17    3.35    0.56
  -7   3  17    3.06    0.43
  -7   3  17    3.50    0.44
  -5  -3  17    2.19    0.38
  -5  -3  17    1.82    0.46
  -5   3  17    2.07    0.37
  -5   3  17    1.86    0.36
  -3  -3  17    0.23    0.32
  -3  -3  17    0.07    0.36
  -3   3  17    0.18    0.30
  -3   3  17   -0.27    0.39
  -3   3  17   -0.04    0.29
   1  -3 -17    5.00    0.53
  -1  -3  17    4.66    0.51
  -1  -3  17    3.75    0.56
  -1   3  17    4.63    0.49
  -1   3  17    4.69    0.50
   1  -3  17    5.75    0.61
   1  -3  17    6.96    0.48
   1  -3  17    6.08    0.58
  -1  -3 -17    4.36    0.61
   1   3  17    6.46    0.54
   1   3  17    6.11    0.57
  -3  -3 -17    3.27    0.46
   3  -3  17    2.67    0.40
   3  -3  17    2.72    0.31
   3   3  17    2.58    0.40
   3   3  17    2.53    0.37
   5  -3  17    4.38    0.44
   5  -3  17    4.14    0.53
  -5  -3 -17    4.31    0.58
   5   3  17    4.51    0.50
  -5   3 -17    4.48    0.59
   5   3  17    4.53    0.52
   7  -3  17    0.88    0.28
   7  -3  17    0.97    0.37
  -7  -3 -17    1.65    0.53
   7   3  17    0.84    0.38
   7   3  17    1.18    0.37
  -7   3 -17    1.08    0.46
   9  -3  17    2.36    0.37
   9  -3  17    3.57    0.49
  -9  -3 -17    3.75    0.61
   9   3  17    2.89    0.47
  -9   3 -17    3.44    0.63
   9   3  17    2.58    0.47
  11  -3  17    2.34    0.41
  11  -3  17    2.45    0.48
  11   3  17    2.24    0.50
 -11   3 -17    3.20    0.63
  11   3  17    2.89    0.49
  13  -3  17    1.52    0.44
  13  -3  17    0.80    0.41
 -13  -3 -17    2.27    0.56
  13   3  17    1.00    0.47
 -13   3 -17    1.78    0.60
  13   3  17    1.53    0.45
 -15  -3 -17    1.64    0.60
  15  -3  17    0.94    0.47
 -15   3 -17    2.24    0.64
  15   3  17    0.90    0.55
  17  -3  17   -0.03    0.50
 -17  -3 -17    1.95    0.85
 -20  -4  17    0.13    0.45
 -20   4  17    0.26    0.48
 -18  -4  17    0.17    0.45
 -18  -4  17   -0.48    0.65
  18  -4 -17    0.41    0.35
 -18   4  17   -0.35    0.43
 -16  -4  17   -0.08    0.66
  16  -4 -17    0.52    0.30
 -16  -4  17    0.28    0.41
 -16   4  17    0.55    0.43
 -14  -4  17   -0.17    0.61
 -14  -4  17    0.22    0.39
 -14   4  17   -0.10    0.40
 -12  -4  17    0.86    0.58
 -12   4  17    0.68    0.43
 -10  -4  17    2.36    0.62
 -10   4  17    3.00    0.47
  -8  -4  17    0.69    0.51
   8  -4 -17    0.83    0.34
  -8   4  17    1.33    0.38
  -6  -4  17    3.84    0.57
  -6  -4  17    2.72    0.38
  -6   4  17    3.64    0.45
  -4  -4  17    2.90    0.41
  -4  -4  17    2.24    0.45
  -4   4  17    2.35    0.39
  -4   4  17    1.93    0.39
  -2  -4  17    4.82    0.61
  -2  -4  17    5.69    0.56
  -2   4  17    4.47    0.53
  -2   4  17    4.95    0.53
   0  -4  17    3.70    0.47
   0  -4  17    3.69    0.55
   0   4  17    3.74    0.49
   0   4  17    3.97    0.47
  -2  -4 -17    2.91    0.44
   2  -4  17    2.36    0.43
   2  -4  17    2.53    0.42
   2   4  17    2.40    0.37
   2   4  17    2.48    0.40
  -4  -4 -17    3.60    0.53
   4  -4  17    4.14    0.49
   4   4  17    4.54    0.46
   4   4  17    4.06    0.53
  -4   4 -17    3.78    0.55
   6  -4  17    1.21    0.37
  -6  -4 -17    1.03    0.48
  -6   4 -17    0.64    0.44
   6   4  17    0.90    0.36
   6   4  17    0.85    0.37
  -8  -4 -17    2.00    0.52
   8  -4  17    1.47    0.44
   8  -4  17    1.75    0.42
  -8   4 -17    1.45    0.52
   8   4  17    1.75    0.43
   8   4  17    1.53    0.41
  10  -4  17    3.68    0.53
 -10  -4 -17    4.30    0.66
  10   4  17    4.08    0.55
  10   4  17    3.64    0.53
 -10   4 -17    3.88    0.67
  12  -4  17    3.62    0.53
 -12  -4 -17    3.15    0.62
  12  -4  17    3.31    0.48
 -12   4 -17    3.68    0.70
  12   4  17    2.83    0.55
  12   4  17    2.34    0.52
  14  -4  17    1.76    0.48
 -14  -4 -17    2.59    0.64
  14  -4  17    2.19    0.47
  14   4  17    1.58    0.54
 -14   4 -17    2.78    0.71
  14   4  17    1.27    0.49
 -16  -4 -17    1.40    0.64
  16  -4  17    0.13    0.47
 -16   4 -17    2.06    0.75
 -19  -5  17   -0.15    0.42
 -19   5  17    0.65    0.52
 -17  -5  17   -0.09    0.43
  17  -5 -17    0.40    0.32
 -17  -5  17   -0.12    0.68
 -17   5  17   -0.27    0.46
 -15  -5  17    0.52    0.43
  15  -5 -17    0.33    0.29
 -15  -5  17   -0.41    0.63
 -13  -5  17    0.34    0.40
 -13  -5  17    0.50    0.61
 -13   5  17    0.42    0.44
 -11  -5  17    0.50    0.39
 -11  -5  17    0.07    0.58
 -11   5  17    0.82    0.42
  -9  -5  17    1.60    0.57
  -9   5  17    1.06    0.41
   7  -5 -17    2.17    0.42
  -7  -5  17    2.36    0.41
  -7  -5  17    1.61    0.51
  -7   5  17    1.85    0.41
  -5  -5  17    2.77    0.52
  -5  -5  17    4.06    0.48
  -5   5  17    3.17    0.44
  -3  -5  17    3.72    0.53
  -3  -5  17    4.77    0.55
  -3   5  17    4.36    0.52
  -1  -5  17    3.00    0.47
  -1  -5  17    3.48    0.47
  -1   5  17    2.63    0.41
  -1   5  17    2.84    0.40
   1  -5  17    1.61    0.40
   1  -5  17    2.76    0.45
   1   5  17    2.48    0.37
   1   5  17    1.89    0.38
   3  -5  17    2.76    0.43
   3   5  17    1.83    0.38
   3   5  17    1.90    0.36
  -5  -5 -17    2.92    0.67
   5  -5  17    1.96    0.42
  -5   5 -17    2.92    0.51
   5   5  17    2.46    0.40
   5   5  17    1.76    0.40
  -7  -5 -17    5.40    0.73
   7  -5  17    5.42    0.63
   7   5  17    5.80    0.62
   7   5  17    5.42    0.64
  -7   5 -17    4.81    0.71
   9  -5  17    3.64    0.52
  -9  -5 -17    3.79    0.62
  -9   5 -17    3.55    0.63
   9   5  17    3.15    0.50
   9   5  17    2.53    0.49
  11  -5  17    3.10    0.50
 -11  -5 -17    3.35    0.63
  11   5  17    2.65    0.52
  11   5  17    2.57    0.53
 -11   5 -17    3.63    0.67
  13  -5  17    1.83    0.44
 -13  -5 -17    2.05    0.64
  13   5  17    0.01    0.47
 -13   5 -17    1.98    0.66
  13   5  17    1.09    0.51
 -15  -5 -17    0.96    0.65
 -15   5 -17    1.78    0.66
  15   5  17    0.63    0.55
 -20  -6  17    0.06    0.45
 -20   6  17    0.02    0.57
 -18  -6  17    0.17    0.44
 -18   6  17   -0.25    0.50
 -16  -6  17    0.28    0.42
 -16  -6  17   -0.04    0.67
  16  -6 -17    0.73    0.32
 -16   6  17    0.10    0.47
 -14  -6  17    0.17    0.41
 -14  -6  17    0.45    0.65
 -14   6  17    0.54    0.43
 -12  -6  17    1.34    0.65
 -12   6  17    1.82    0.48
 -10  -6  17    0.60    0.55
 -10   6  17    0.67    0.42
   8  -6 -17    1.86    0.41
  -8  -6  17    0.72    0.51
  -8   6  17    1.18    0.41
   6  -6 -17    1.26    0.41
  -6  -6  17    0.73    0.30
  -6  -6  17    1.58    0.50
  -6   6  17    1.76    0.41
  -4  -6  17    3.55    0.54
  -4  -6  17    4.66    0.55
   4  -6 -17    4.05    0.54
  -4   6  17    4.56    0.54
  -2  -6  17    3.16    0.49
  -2  -6  17    2.46    0.48
  -2   6  17    2.57    0.41
   0  -6  17    2.12    0.45
   0  -6  17    1.68    0.42
   0   6  17    1.78    0.37
   2  -6  17    2.96    0.48
   2  -6  17    2.11    0.44
   2   6  17    2.53    0.40
   4  -6  17    2.59    0.45
   4   6  17    1.73    0.39
   4   6  17    1.93    0.39
   6  -6  17    7.82    0.73
   6   6  17    7.59    0.70
   6   6  17    6.14    0.72
  -6   6 -17    9.04    0.87
   8  -6  17    2.33    0.48
   8   6  17    2.76    0.46
  -8   6 -17    2.99    0.61
  10  -6  17    0.94    0.42
 -10  -6 -17    2.19    0.76
  10   6  17    1.45    0.46
 -10   6 -17    2.34    0.58
 -12  -6 -17    1.66    0.65
  12  -6  17    1.68    0.45
 -12   6 -17    2.36    0.63
  12   6  17    1.19    0.49
  14  -6  17    1.83    0.45
 -14  -6 -17    1.22    0.66
  14   6  17    0.98    0.55
 -14   6 -17    1.48    0.63
 -16  -6 -17    1.42    0.72
 -19  -7  17    0.26    0.46
 -17  -7  17   -0.44    0.44
 -17   7  17   -0.25    0.51
 -15  -7  17   -0.01    0.42
 -15  -7  17    0.45    0.65
 -15   7  17    0.05    0.45
 -13  -7  17    0.36    0.62
 -13   7  17    0.68    0.47
 -13   7  17    0.39    0.48
 -11  -7  17    0.71    0.57
 -11  -7  17    0.77    0.40
 -11   7  17    1.11    0.43
 -11   7  17    1.02    0.44
  -9  -7  17   -0.10    0.50
  -9   7  17    0.42    0.41
  -7  -7  17    2.13    0.47
   7  -7 -17    2.23    0.47
  -7  -7  17    1.17    0.51
  -7   7  17    1.28    0.41
   5  -7 -17    2.42    0.47
  -5  -7  17    2.42    0.50
  -5  -7  17    1.72    0.49
  -5   7  17    2.31    0.42
  -3  -7  17    3.48    0.55
   3  -7 -17    4.35    0.58
  -3  -7  17    4.80    0.59
  -3   7  17    4.87    0.55
  -1  -7  17    2.11    0.49
  -1  -7  17    1.90    0.45
   1  -7 -17    2.06    0.48
  -1   7  17    1.83    0.39
   1  -7  17    0.72    0.39
   1  -7  17    0.94    0.44
  -1  -7 -17    0.21    0.43
   1   7  17    1.17    0.35
   3  -7  17    4.05    0.53
   3  -7  17    3.88    0.55
  -3  -7 -17    3.57    0.59
   3   7  17    3.67    0.45
   5  -7  17    3.06    0.51
   5   7  17    3.11    0.44
  -5   7 -17    3.20    0.61
   7  -7  17    2.39    0.50
  -7   7 -17    4.60    0.70
   7   7  17    2.55    0.46
   9  -7  17    1.05    0.42
  -9  -7 -17    1.94    0.57
  -9   7 -17    1.68    0.57
   9   7  17    1.34    0.46
 -11  -7 -17    1.77    0.54
  11  -7  17    0.92    0.45
 -11   7 -17    1.45    0.58
  11   7  17    0.30    0.47
 -13  -7 -17    1.63    0.56
  13  -7  17    1.23    0.43
 -13   7 -17    2.27    0.62
  13   7  17    1.26    0.51
 -18  -8  17   -0.27    0.47
 -18   8  17    0.83    0.57
 -16  -8  17   -0.27    0.45
 -16   8  17   -0.23    0.50
 -14  -8  17    0.09    0.43
 -14  -8  17   -0.05    0.66
 -14   8  17   -0.13    0.51
 -12  -8  17    0.40    0.63
 -12   8  17    0.27    0.47
 -12   8  17    0.18    0.46
 -10  -8  17   -0.10    0.55
 -10   8  17    0.82    0.43
  -8  -8  17    0.09    0.49
   8  -8 -17    1.06    0.44
  -8   8  17    0.99    0.41
  -6  -8  17   -0.07    0.46
   6  -8 -17    1.27    0.45
  -6  -8  17    0.88    0.46
  -6   8  17    1.17    0.39
   4  -8 -17    1.36    0.47
  -4  -8  17    1.08    0.48
  -4  -8  17    0.93    0.45
  -4   8  17    0.89    0.38
  -2  -8  17    2.67    0.53
  -2  -8  17    3.62    0.58
   2  -8 -17    3.23    0.56
  -2   8  17    2.70    0.43
   0  -8  17    0.73    0.42
   0  -8  17    0.85    0.46
   0  -8 -17    0.60    0.45
   0   8  17    0.85    0.36
   2  -8  17    0.58    0.39
  -2  -8 -17    0.89    0.47
   2  -8  17    0.74    0.45
   2   8  17    0.54    0.34
   4  -8  17    1.80    0.47
  -4  -8 -17    1.48    0.53
   4   8  17    1.78    0.39
   6  -8  17    1.16    0.46
  -6  -8 -17    1.09    0.54
   6   8  17    0.94    0.41
  -6   8 -17    1.69    0.55
  -8  -8 -17    1.28    0.55
   8  -8  17    0.81    0.43
   8   8  17    0.59    0.42
  -8   8 -17    1.31    0.56
 -10  -8 -17    1.46    0.55
  10  -8  17    0.49    0.42
  10   8  17    0.79    0.46
 -10   8 -17    2.38    0.62
 -12  -8 -17    1.34    0.57
  12  -8  17    0.78    0.44
  12   8  17    0.74    0.52
 -12   8 -17    1.94    0.60
  14  -8  17    0.94    0.44
 -14   8 -17    1.63    1.01
 -17   9  17    0.37    0.54
 -15   9  17    0.76    0.59
 -13  -9  17    0.05    0.66
 -13   9  17    0.48    0.52
 -13   9  17    0.20    0.49
 -11  -9  17   -0.42    0.59
 -11   9  17    0.03    0.43
   9  -9 -17    0.77    0.56
  -9  -9  17    0.01    0.53
  -9   9  17   -0.42    0.39
   9   9 -17    0.05    0.27
  -7  -9  17    0.78    0.54
   7  -9 -17    1.48    0.48
  -7   9  17    0.54    0.39
  -5  -9  17    2.30    0.55
   5  -9 -17    2.27    0.52
  -5  -9  17    1.13    0.50
  -5   9  17    1.48    0.40
  -3  -9  17    0.99    0.46
  -3  -9  17    1.32    0.54
   3  -9 -17    1.94    0.52
  -3   9  17    1.01    0.38
   1  -9 -17    0.76    0.50
  -1  -9  17   -0.09    0.49
  -1  -9  17   -0.01    0.42
  -1   9  17    0.26    0.34
   1  -9  17    0.18    0.41
  -1  -9 -17    1.08    0.51
   1  -9  17   -0.27    0.45
   1   9  17    0.14    0.35
  -3  -9 -17    1.06    0.54
   3  -9  17    1.13    0.49
   3  -9  17    1.29    0.45
   3   9  17    1.99    0.41
  -5  -9 -17    1.46    0.56
   5  -9  17    0.80    0.45
   5   9  17    1.41    0.40
  -5   9 -17    1.58    0.56
   7  -9  17    1.03    0.47
  -7  -9 -17    2.50    0.61
  -7   9 -17    2.01    0.59
   7   9  17    1.27    0.44
  -9  -9 -17    1.22    0.59
   9  -9  17    0.41    0.46
  -9   9 -17    0.67    0.52
   9   9  17    0.53    0.44
 -11  -9 -17    0.76    0.57
  11  -9  17    0.21    0.43
 -11   9 -17    1.84    0.62
  11   9  17    1.12    0.50
  13  -9  17    0.70    0.44
 -13   9 -17    1.29    0.92
 -16  10  17   -0.08    0.55
 -14  10  17    0.12    0.54
  14  10 -17    0.40    0.28
 -12 -10  17   -0.34    0.64
 -12  10  17   -0.25    0.48
  12  10 -17    0.37    0.29
 -10 -10  17   -0.19    0.59
 -10  10  17    0.68    0.45
  10  10 -17    0.12    0.28
 -10  10  17    0.65    0.44
   8 -10 -17    0.80    0.46
  -8 -10  17    1.13    0.58
  -8  10  17    0.65    0.40
  -6 -10  17    0.04    0.51
   6 -10 -17    1.53    0.50
  -6 -10  17    1.06    0.60
  -6  10  17    0.06    0.39
   4 -10 -17    1.74    0.53
  -4 -10  17    1.12    0.57
  -4 -10  17    1.19    0.52
  -4  10  17    1.30    0.38
  -2 -10  17    1.59    0.50
   2 -10 -17    1.37    0.54
  -2 -10  17    1.10    0.58
  -2  10  17    0.58    0.37
   0 -10  17    0.17    0.43
   0 -10 -17    0.55    0.52
   0 -10  17    0.01    0.51
   0  10  17    0.17    0.38
   2 -10  17    0.77    0.51
   2 -10  17    0.76    0.45
  -2 -10 -17    1.11    0.56
   2  10  17    1.09    0.40
  -4 -10 -17    1.67    0.60
   4 -10  17    0.05    0.46
   4  10  17    0.46    0.38
  -6 -10 -17    1.72    0.59
   6 -10  17    0.59    0.46
   6  10  17    0.85    0.41
  -6  10 -17    0.86    0.55
   8 -10  17    0.06    0.44
  -8 -10 -17    1.57    0.60
  -8  10 -17    0.52    0.54
   8  10  17    0.20    0.43
 -10 -10 -17    2.47    0.67
  10 -10  17    0.11    0.46
 -10  10 -17    0.81    0.58
  10  10  17    0.43    0.47
  12 -10  17    0.15    0.45
 -12 -10 -17    1.50    0.64
 -12  10 -17    0.77    0.69
  15  11 -17    0.10    0.28
 -11 -11  17   -0.20    0.68
 -11  11  17   -0.39    0.49
  11  11 -17    0.11    0.28
 -11  11  17    0.03    0.48
  -9 -11  17    0.19    0.60
  -9  11  17    0.16    0.43
   9  11 -17    0.15    0.29
  -7 -11  17    0.03    0.55
   7 -11 -17    1.36    0.53
   7  11 -17    0.38    0.31
  -7  11  17    0.71    0.43
   5 -11 -17    0.89    0.51
  -5 -11  17   -0.28    0.62
  -5 -11  17    0.02    0.51
  -5  11  17    0.03    0.39
  -3 -11  17    0.09    0.63
  -3 -11  17    0.29    0.50
   3 -11 -17    2.07    0.59
  -3  11  17    0.40    0.39
   1 -11 -17    1.06    0.57
  -1 -11  17   -0.43    0.60
  -1 -11  17   -0.12    0.47
  -1  11  17    0.31    0.36
   1 -11  17    0.10    0.53
   1 -11  17    0.06    0.44
  -1 -11 -17    1.34    0.59
   1  11  17    0.62    0.40
  -3 -11 -17    2.28    0.64
   3 -11  17    0.59    0.51
   3 -11  17    1.10    0.49
   3  11  17    1.63    0.43
  -5 -11 -17    0.95    0.60
   5 -11  17   -0.31    0.45
   5  11  17   -0.27    0.38
  -5  11 -17    0.25    0.51
   7 -11  17   -0.05    0.46
  -7 -11 -17    1.26    0.60
  -7  11 -17    0.24    0.52
   7  11  17    0.17    0.40
   9 -11  17    0.06    0.48
  -9 -11 -17    1.83    0.67
  -9  11 -17    0.79    0.55
   9  11  17    0.16    0.45
 -11 -11 -17    1.33    0.66
 -11  11 -17    0.95    0.89
  14  12 -17    0.32    0.29
 -14  12  17    0.04    0.58
  12  12 -17   -0.17    0.29
   8 -12 -17    1.03    0.55
  -8 -12  17    0.48    0.63
  -8  12  17    0.09    0.43
  -6 -12  17   -0.25    0.67
   6 -12 -17    2.01    0.60
  -6 -12  17    0.20    0.57
  -6  12  17    0.41    0.40
   4 -12 -17    1.08    0.56
  -4 -12  17    0.01    0.61
  -4 -12  17   -0.07    0.53
  -4  12  17    0.04    0.36
   2 -12 -17    1.04    0.60
  -2 -12  17   -0.76    0.63
  -2 -12  17    0.10    0.48
  -2  12  17   -0.17    0.35
   0 -12  17    0.66    0.49
   0 -12 -17    0.99    0.62
   0 -12  17    0.66    0.63
   0  12  17   -0.02    0.34
   2 -12  17   -0.25    0.45
  -2 -12 -17    0.81    0.63
   2 -12  17    0.35    0.55
   2  12  17    0.03    0.38
   4 -12  17   -0.39    0.50
  -4 -12 -17    1.05    0.66
   4  12  17   -0.10    0.39
  -6 -12 -17    0.92    0.67
   6 -12  17   -0.40    0.47
   6  12  17   -0.07    0.43
  -6  12 -17    0.03    0.52
   8 -12  17    0.28    0.62
  -8 -12 -17    1.58    0.70
  -8  12 -17    0.39    0.56
   8  12  17    0.47    0.42
  13  13 -17    0.28    0.32
  11  13 -17    0.17    0.32
  -7 -13  17    0.26    0.66
   7 -13 -17    1.31    0.59
  -7  13  17    0.22    0.43
  -5 -13  17   -0.46    0.73
   5 -13 -17    1.62    0.63
  -5 -13  17    0.08    0.58
  -5  13  17    0.35    0.39
   3 -13 -17    1.17    0.65
  -3 -13  17   -0.48    0.71
  -3 -13  17    0.16    0.51
  -3  13  17    0.07    0.34
   1 -13 -17    1.11    0.65
  -1 -13  17    0.11    0.50
  -1 -13  17   -0.74    0.60
  -1  13  17    0.69    0.35
  -1 -13 -17    0.80    0.65
   1 -13  17   -0.05    0.46
   1 -13  17    0.15    0.58
   1  13  17    0.22    0.34
   3 -13  17   -0.21    0.54
  -3 -13 -17    1.08    0.70
   3  13  17    0.25    0.41
  -5 -13 -17    1.82    0.93
   5  13  17    0.67    0.43
  -5  13 -17    0.86    0.57
  -7  13 -17    0.45    0.58
   8  14 -17   -0.17    0.35
  -4 -14  17   -0.56    0.74
  -4 -14  17   -0.82    0.77
  -2 -14  17   -0.08    0.54
  -2 -14  17   -0.32    0.69
  -2  14  17    0.29    0.34
   0 -14  17    0.11    0.51
   0  14  17    0.31    0.32
   2 -14  17   -0.19    0.51
   2  14  17    0.32    0.35
  -4  14 -17    0.93    0.64
   7  15 -17    0.59    0.40
 -20   0  18   -0.20    0.44
  18   0 -18    0.96    0.32
 -18   0  18   -0.37    0.42
 -16   0  18    0.16    0.39
  16   0 -18    0.82    0.29
 -14   0  18    0.86    0.76
 -14   0  18    0.89    0.40
  14   0 -18    1.41    0.31
 -12   0  18    2.03    0.41
 -12   0  18    1.85    0.76
 -10   0  18    5.18    0.69
 -10   0  18    7.28    0.60
  -8   0  18    4.89    0.49
  -8   0  18    3.27    0.48
  -6   0  18    3.00    0.37
  -6   0  18    4.08    0.52
  -6   0  18    3.60    0.42
  -4   0  18    3.46    0.41
  -4   0  18    3.11    0.47
  -2   0  18    4.86    0.51
  -2   0  18    7.77    0.64
  -2   0  18    7.01    0.58
   0   0  18    4.88    0.52
   0   0  18    5.58    0.48
   0   0  18    5.12    0.59
   2   0  18    3.47    0.37
  -2   0 -18    3.58    0.49
   2   0  18    2.97    0.40
  -4   0 -18    7.07    0.76
   4   0  18    6.97    0.63
   4   0  18    7.33    0.59
   6   0  18    1.88    0.40
  -6   0 -18    2.17    0.50
   6   0  18    1.73    0.36
   8   0  18    4.69    0.49
  -8   0 -18    2.97    0.63
   8   0  18    4.73    0.54
  10   0  18    5.62    0.58
 -10   0 -18    4.29    0.70
  10   0  18    5.60    0.65
 -12   0 -18    2.84    0.61
  12   0  18    2.16    0.46
  12   0  18    1.90    0.47
 -14   0 -18    2.74    0.65
  14   0  18    1.12    0.48
  14   0  18    1.33    0.44
  16   0  18    0.14    0.51
 -16   0 -18    1.71    0.56
 -21  -1  18    0.52    0.45
 -21   1  18   -0.36    0.44
  19  -1 -18    1.12    0.34
 -19   1  18   -0.33    0.42
 -17  -1  18    0.38    0.81
  17  -1 -18    0.80    0.31
 -17  -1  18   -0.05    0.41
 -17   1  18    0.33    0.41
 -15  -1  18   -0.22    0.57
  15  -1 -18    0.85    0.29
 -15   1  18    0.35    0.39
  15   1 -18    0.76    0.33
 -13  -1  18    0.59    0.55
 -13  -1  18    0.92    0.40
 -13   1  18    1.31    0.39
  13   1 -18    1.25    0.28
 -11  -1  18    0.95    0.55
 -11   1  18    0.88    0.40
  -9  -1  18    1.64    0.35
  -9  -1  18    2.40    0.55
  -9   1  18    2.49    0.51
  -9   1  18    2.23    0.41
  -7  -1  18    6.62    0.58
  -7  -1  18    6.81    0.74
  -7  -1  18    6.59    0.59
  -7   1  18    6.95    0.59
  -7   1  18    7.43    0.70
  -7   1  18    6.90    0.61
  -5  -1  18    1.78    0.43
  -5  -1  18    1.55    0.34
  -5  -1  18    1.55    0.31
  -5   1  18    1.64    0.41
  -5   1  18    1.54    0.34
  -5   1  18    1.25    0.34
  -3  -1  18    1.80    0.35
  -3  -1  18    2.09    0.31
  -3  -1  18    2.32    0.43
  -3   1  18    1.87    0.34
  -3   1  18    1.56    0.38
  -3   1  18    1.89    0.35
  -1  -1  18    1.75    0.35
  -1  -1  18    1.80    0.40
  -1  -1  18    1.64    0.30
  -1   1  18    1.84    0.33
  -1   1  18    1.96    0.33
   1  -1  18    4.72    0.45
   1  -1  18    5.67    0.55
  -1  -1 -18    5.69    0.64
   1   1  18    5.42    0.53
   1   1  18    6.25    0.52
  -3  -1 -18    9.77    0.81
   3  -1  18    8.57    0.71
   3   1  18    8.68    0.70
   3   1  18    8.95    0.67
  -3   1 -18    8.42    0.80
   5  -1  18    3.15    0.37
   5  -1  18    3.37    0.45
  -5  -1 -18    2.94    0.52
   5   1  18    3.57    0.42
  -5   1 -18    3.32    0.55
   5   1  18    2.94    0.43
   7  -1  18    2.16    0.36
  -7  -1 -18    1.46    0.53
   7  -1  18    2.18    0.42
   7   1  18    2.02    0.39
  -7   1 -18    1.32    0.50
   7   1  18    2.04    0.41
   9  -1  18    2.16    0.45
   9  -1  18    1.21    0.39
  -9  -1 -18    1.97    0.57
  -9   1 -18    1.83    0.55
   9   1  18    1.77    0.43
   9   1  18    1.68    0.42
 -11  -1 -18    4.01    0.67
  11  -1  18    3.80    0.55
  11  -1  18    3.94    0.51
  11   1  18    4.10    0.55
 -11   1 -18    4.29    0.70
  11   1  18    4.64    0.56
  13  -1  18    1.54    0.44
  13  -1  18    1.16    0.45
 -13  -1 -18    2.52    0.61
  13   1  18    2.07    0.47
  13   1  18    1.26    0.48
 -13   1 -18    2.70    0.62
 -15  -1 -18    1.93    0.56
  15  -1  18    0.41    0.48
  15   1  18    0.01    0.49
 -15   1 -18    2.38    0.65
 -20  -2  18    0.16    0.45
 -20   2  18    0.03    0.45
 -18  -2  18    0.02    0.65
  18  -2 -18    1.00    0.33
 -18  -2  18    0.04    0.43
 -18   2  18   -0.14    0.42
 -16  -2  18   -0.11    0.61
  16  -2 -18    0.93    0.31
 -16   2  18    0.19    0.39
  14  -2 -18    0.40    0.27
 -14  -2  18   -0.40    0.55
 -14   2  18   -0.17    0.36
 -12  -2  18    0.55    0.58
 -12  -2  18    0.61    0.38
 -12   2  18    0.29    0.41
 -12   2  18    0.40    0.36
 -10  -2  18    3.10    0.65
 -10   2  18    4.51    0.50
  -8  -2  18    1.28    0.52
  -8   2  18    0.72    0.56
  -8   2  18    1.29    0.38
  -6  -2  18    4.88    0.53
  -6  -2  18    4.63    0.66
  -6   2  18    4.88    0.54
  -6   2  18    5.30    0.76
  -4  -2  18    1.28    0.30
  -4  -2  18    1.50    0.43
  -4  -2  18    1.86    0.35
  -4   2  18    1.70    0.36
  -4   2  18    1.31    0.35
  -4   2  18    1.69    0.38
  -2  -2  18    2.02    0.36
  -2  -2  18    1.90    0.43
  -2  -2  18    1.89    0.29
  -2   2  18    1.51    0.35
  -2   2  18    2.00    0.35
  -2   2  18    1.61    0.38
   0  -2  18    3.45    0.47
   0  -2  18    3.31    0.39
   0  -2  18    3.05    0.41
   0  -2 -18    2.51    0.43
   0   2  18    2.82    0.40
   0   2  18    3.38    0.39
   2  -2  18    9.39    0.65
   2  -2  18    9.23    0.74
  -2  -2 -18    9.27    0.80
   2   2  18    9.22    0.69
   2   2  18    9.26    0.72
  -4  -2 -18    1.72    0.44
   4  -2  18    1.94    0.38
   4  -2  18    2.05    0.30
   4   2  18    2.19    0.37
  -4   2 -18    1.67    0.45
   4   2  18    2.27    0.39
   6  -2  18    0.10    0.34
  -6  -2 -18    0.05    0.46
   6  -2  18    0.14    0.17
   6   2  18    0.64    0.33
   6   2  18    0.63    0.37
  -6   2 -18    0.06    0.43
   8  -2  18    3.26    0.49
   8  -2  18    3.04    0.42
  -8  -2 -18    3.70    0.64
   8   2  18    2.90    0.46
  -8   2 -18    3.33    0.60
   8   2  18    3.97    0.51
  10  -2  18    6.72    0.65
  10  -2  18    5.92    0.71
 -10  -2 -18    7.86    0.85
  10   2  18    6.11    0.71
 -10   2 -18    7.64    0.87
  10   2  18    6.62    0.71
 -12  -2 -18    6.54    0.84
  12  -2  18    4.07    0.57
  12  -2  18    4.12    0.53
  12   2  18    4.14    0.59
  12   2  18    4.17    0.57
 -12   2 -18    4.83    0.75
  14  -2  18    0.48    0.45
  14  -2  18    0.69    0.41
 -14  -2 -18    2.36    0.55
  14   2  18    0.29    0.43
 -14   2 -18    1.97    0.59
  14   2  18    0.34    0.48
  16  -2  18    0.64    0.50
 -16  -2 -18    1.73    0.60
  16   2  18    0.24    0.59
 -19  -3  18    0.42    0.47
 -19   3  18    0.28    0.44
 -17  -3  18   -0.61    0.43
  17  -3 -18    0.50    0.31
 -17  -3  18   -0.42    0.63
 -15  -3  18    0.66    0.42
 -15  -3  18   -0.17    0.62
  15  -3 -18    0.21    0.28
 -15   3  18    0.10    0.40
 -13  -3  18    0.31    0.57
 -13  -3  18    0.06    0.40
 -13   3  18    0.07    0.39
 -11  -3  18    0.44    0.59
 -11   3  18    0.65    0.42
  -9  -3  18    0.34    0.54
  -9   3  18    0.22    0.39
  -7  -3  18    0.87    0.50
  -7  -3  18    1.37    0.35
  -7   3  18    1.01    0.36
  -7   3  18    1.21    0.39
  -5  -3  18    2.99    0.52
  -5  -3  18    3.31    0.42
  -5   3  18    3.06    0.43
  -5   3  18    2.90    0.42
  -3  -3  18    1.52    0.39
  -3  -3  18    1.61    0.44
  -3   3  18    1.26    0.35
  -3   3  18    0.71    0.36
  -1  -3  18    0.03    0.36
  -1  -3  18    0.30    0.34
   1  -3 -18    0.23    0.31
  -1   3  18    0.17    0.31
  -1   3  18    0.05    0.31
   1  -3  18    2.09    0.40
   1  -3  18    1.88    0.42
  -1  -3 -18    1.27    0.40
   1   3  18    1.71    0.36
   1   3  18    2.11    0.36
  -3  -3 -18    1.50    0.41
   3  -3  18    1.18    0.35
   3  -3  18    0.95    0.36
   3   3  18    1.18    0.35
  -3   3 -18    1.15    0.42
   3   3  18    1.75    0.35
   5  -3  18    0.29    0.25
   5  -3  18    0.52    0.35
  -5  -3 -18    0.42    0.44
  -5   3 -18    0.30    0.41
   5   3  18    0.19    0.33
   5   3  18    0.19    0.35
  -7  -3 -18    3.34    0.59
   7  -3  18    3.41    0.38
   7  -3  18    2.61    0.47
   7   3  18    2.81    0.44
  -7   3 -18    3.26    0.59
   7   3  18    2.77    0.48
   9  -3  18    2.53    0.47
  -9  -3 -18    3.37    0.59
   9  -3  18    1.53    0.33
  -9   3 -18    3.03    0.62
   9   3  18    3.01    0.48
   9   3  18    2.64    0.49
  11  -3  18    1.53    0.46
  11  -3  18    1.35    0.39
 -11  -3 -18    2.82    0.61
 -11   3 -18    1.62    0.58
  11   3  18    1.87    0.49
  11   3  18    1.80    0.46
  13  -3  18    1.62    0.46
 -13  -3 -18    2.81    0.57
  13  -3  18    1.17    0.44
  13   3  18    0.81    0.45
 -13   3 -18    1.62    0.60
  13   3  18    1.18    0.50
 -15  -3 -18    2.06    0.59
  15  -3  18    0.37    0.45
  15   3  18    0.45    0.54
 -15   3 -18    2.21    0.63
  17  -3  18    0.32    0.62
 -20  -4  18   -0.29    0.46
 -20   4  18    0.35    0.49
 -18  -4  18   -0.13    0.45
 -18   4  18    0.53    0.47
 -16  -4  18   -0.44    0.65
  16  -4 -18   -0.03    0.29
 -16  -4  18   -0.18    0.42
 -16   4  18    0.45    0.44
 -14  -4  18   -0.08    0.41
 -14  -4  18    0.00    0.61
 -12  -4  18   -0.40    0.60
 -12  -4  18    0.38    0.41
 -12   4  18   -0.06    0.43
 -10  -4  18    0.26    0.56
 -10   4  18   -0.41    0.39
  -8  -4  18    1.12    0.53
   8  -4 -18    1.30    0.35
  -8   4  18    1.18    0.40
  -6  -4  18    0.83    0.48
  -6  -4  18    0.73    0.19
  -6   4  18    0.80    0.38
  -4  -4  18    2.91    0.45
  -4  -4  18    2.00    0.48
  -4   4  18    2.40    0.41
  -4   4  18    3.21    0.43
  -2  -4  18    0.22    0.37
  -2  -4  18   -0.14    0.36
  -2   4  18    0.02    0.32
  -2   4  18    0.48    0.34
   0  -4  18    0.56    0.36
   0  -4  18    0.79    0.38
   0   4  18    0.84    0.33
   0   4  18    1.35    0.34
   2  -4  18    2.18    0.42
   2  -4  18    1.61    0.42
   2   4  18    2.45    0.38
   2   4  18    2.21    0.40
  -4  -4 -18    0.90    0.43
   4  -4  18    0.23    0.35
  -4   4 -18   -0.14    0.37
   4   4  18   -0.36    0.33
   4   4  18    0.21    0.34
   6  -4  18    1.27    0.40
  -6  -4 -18    1.78    0.50
   6   4  18    1.24    0.41
   6   4  18    1.69    0.40
  -6   4 -18    1.08    0.50
  -8  -4 -18    0.86    0.48
   8  -4  18    0.25    0.37
   8   4  18    0.43    0.39
  -8   4 -18    0.62    0.47
   8   4  18    0.02    0.39
  10  -4  18    1.65    0.45
 -10  -4 -18    3.22    0.59
  10   4  18    1.47    0.46
  10   4  18    1.57    0.46
 -10   4 -18    2.00    0.58
 -12  -4 -18    1.68    0.53
  12  -4  18    0.45    0.41
  12   4  18   -0.17    0.42
 -12   4 -18    1.11    0.53
  12   4  18    0.60    0.48
  14  -4  18    0.55    0.42
 -14  -4 -18    1.89    0.58
 -14   4 -18    2.05    0.67
  14   4  18    0.28    0.54
  14   4  18   -0.04    0.45
 -16  -4 -18    1.70    0.66
 -19  -5  18    0.21    0.47
 -19   5  18   -0.64    0.54
 -17  -5  18   -0.35    0.73
 -17  -5  18   -0.16    0.45
 -17   5  18   -0.53    0.48
 -15  -5  18   -0.18    0.65
  15  -5 -18    0.67    0.29
 -15  -5  18    0.11    0.44
 -15   5  18   -0.05    0.45
 -13  -5  18   -0.31    0.65
 -13  -5  18   -0.46    0.41
 -13   5  18    0.09    0.45
 -13   5  18    0.37    0.42
 -11  -5  18    0.13    0.57
 -11   5  18   -0.21    0.42
  -9  -5  18   -0.05    0.53
  -9   5  18   -0.09    0.40
  -7  -5  18    0.43    0.48
  -7  -5  18    0.61    0.37
   7  -5 -18    0.58    0.36
  -7   5  18    0.10    0.38
  -5  -5  18   -0.01    0.42
  -5  -5  18    0.52    0.39
  -5   5  18    0.23    0.37
  -3  -5  18    0.69    0.41
  -3  -5  18    1.02    0.43
  -3   5  18    1.34    0.39
  -1  -5  18    0.20    0.40
  -1  -5  18    0.06    0.38
  -1   5  18   -0.25    0.32
  -1   5  18   -0.43    0.32
   1  -5  18    0.85    0.41
   1  -5  18    0.83    0.38
   1   5  18    0.71    0.34
   1   5  18    0.97    0.35
   3  -5  18    1.37    0.42
   3   5  18    1.38    0.38
   3   5  18    1.69    0.38
   5  -5  18    6.64    0.67
   5   5  18    6.51    0.62
  -5   5 -18    6.23    0.77
   5   5  18    5.74    0.66
  -7  -5 -18    1.81    0.63
   7  -5  18    0.77    0.41
   7   5  18    0.54    0.39
  -7   5 -18    0.78    0.51
   7   5  18    0.51    0.39
  -9  -5 -18    1.57    0.53
   9  -5  18    0.92    0.41
  -9   5 -18    0.81    0.52
   9   5  18    0.19    0.41
   9   5  18    0.90    0.41
 -11  -5 -18    1.65    0.54
  11  -5  18    0.33    0.39
  11   5  18    0.69    0.46
  11   5  18   -0.20    0.43
 -11   5 -18    1.54    0.59
  13  -5  18    0.42    0.41
 -13  -5 -18    0.91    0.57
  13   5  18    0.06    0.47
 -13   5 -18    0.40    0.58
  13   5  18   -0.98    0.44
  15  -5  18    1.65    0.74
 -15  -5 -18    1.75    0.67
 -18  -6  18   -0.49    0.45
 -18   6  18   -0.54    0.56
 -16  -6  18   -0.57    0.70
  16  -6 -18    0.22    0.31
 -16  -6  18   -0.22    0.42
 -14  -6  18   -0.12    0.64
 -14  -6  18   -0.01    0.42
 -14   6  18    0.71    0.47
 -12  -6  18    0.15    0.61
 -12   6  18   -0.20    0.44
 -10  -6  18   -0.17    0.56
 -10   6  18   -0.10    0.42
   8  -6 -18    0.48    0.37
  -8  -6  18   -0.06    0.49
  -8   6  18   -0.01    0.40
  -6  -6  18    0.78    0.38
  -6  -6  18    0.07    0.45
   6  -6 -18    0.89    0.40
  -6   6  18    0.09    0.39
  -4  -6  18    0.20    0.42
  -4  -6  18    0.39    0.42
   4  -6 -18    0.54    0.39
  -4   6  18    0.34    0.38
  -2  -6  18    0.07    0.42
  -2  -6  18   -0.06    0.38
  -2   6  18   -0.14    0.34
   0  -6  18   -0.06    0.41
   0  -6  18    0.43    0.39
   0   6  18    0.16    0.33
   2  -6  18    0.14    0.37
   2  -6  18   -0.17    0.39
   2   6  18   -0.09    0.33
   4  -6  18    4.16    0.54
   4   6  18    3.93    0.46
   4   6  18    2.70    0.46
   6  -6  18    0.52    0.40
  -6   6 -18    0.97    0.51
   6   6  18   -0.07    0.39
   6   6  18    0.30    0.37
   8  -6  18    0.02    0.39
   8   6  18   -0.37    0.41
  -8   6 -18    0.90    0.52
   8   6  18    0.32    0.41
  10  -6  18    0.44    0.40
  10   6  18    0.47    0.45
 -10   6 -18    1.28    0.54
  12  -6  18    0.33    0.39
  12   6  18    0.03    0.48
 -12   6 -18    0.89    0.56
 -14  -6 -18    1.14    0.79
  14  -6  18    1.10    0.44
  14   6  18    0.50    0.58
 -14   6 -18    1.62    0.65
 -16  -6 -18    0.56    0.78
 -19  -7  18    0.27    0.49
 -17  -7  18   -0.19    0.45
 -15  -7  18   -0.21    0.44
 -15  -7  18   -0.23    0.68
 -15   7  18   -0.29    0.51
 -13  -7  18    0.02    0.63
 -13  -7  18    0.35    0.43
 -13   7  18    0.44    0.49
 -13   7  18    0.51    0.46
 -11  -7  18    0.30    0.41
 -11  -7  18    0.04    0.58
 -11   7  18   -0.11    0.44
  -9  -7  18   -0.24    0.51
  -9   7  18   -0.11    0.41
  -7  -7  18    0.35    0.48
   7  -7 -18    0.75    0.40
  -7  -7  18    0.17    0.48
  -7   7  18   -0.40    0.38
   5  -7 -18    0.50    0.42
  -5  -7  18    0.77    0.47
  -5  -7  18    0.18    0.42
  -5   7  18    0.02    0.37
  -3  -7  18    0.61    0.47
  -3  -7  18    0.15    0.41
   3  -7 -18    0.98    0.43
  -3   7  18    0.56    0.38
   1  -7 -18    0.53    0.43
  -1  -7  18    0.33    0.41
  -1  -7  18    0.37    0.45
  -1   7  18    0.55    0.36
   1  -7  18   -0.02    0.43
   1  -7  18   -0.34    0.36
  -1  -7 -18    0.02    0.41
   1   7  18   -0.09    0.34
   3  -7  18    0.13    0.42
   3   7  18    0.44    0.37
   5  -7  18    1.51    0.45
  -5   7 -18    1.12    0.51
   5   7  18    1.38    0.39
   7  -7  18    0.30    0.43
  -7   7 -18    1.02    0.54
   7   7  18    0.58    0.39
   9  -7  18    0.59    0.42
  -9   7 -18    0.78    0.53
   9   7  18    0.43    0.44
 -11  -7 -18    0.94    0.51
  11  -7  18    0.65    0.42
 -11   7 -18    1.02    0.57
  11   7  18    0.72    0.46
 -13  -7 -18    1.00    0.54
  13  -7  18    0.33    0.41
  13   7  18    0.10    0.51
 -13   7 -18    1.20    0.58
  15  -7  18    0.79    0.59
 -18  -8  18    0.87    0.50
 -18   8  18   -0.05    0.56
 -16  -8  18    0.54    0.48
 -16   8  18    0.52    0.55
 -14  -8  18   -0.25    0.66
 -14  -8  18    0.53    0.45
 -14   8  18    0.33    0.50
 -12  -8  18   -0.10    0.63
 -12   8  18    0.29    0.44
 -12   8  18    0.32    0.49
 -10  -8  18   -0.36    0.56
 -10   8  18    0.58    0.45
  -8  -8  18   -0.25    0.51
   8  -8 -18    0.96    0.43
  -8   8  18    0.86    0.42
   6  -8 -18    1.57    0.48
  -6  -8  18    1.19    0.50
  -6  -8  18    1.02    0.49
  -6   8  18    1.65    0.44
   4  -8 -18    1.09    0.45
  -4  -8  18    0.23    0.48
  -4  -8  18   -0.10    0.43
  -4   8  18    0.41    0.39
  -2  -8  18    2.24    0.55
   2  -8 -18    1.87    0.52
  -2  -8  18    1.75    0.49
  -2   8  18    2.68    0.44
   0  -8 -18    0.98    0.48
   0  -8  18    0.88    0.48
   0  -8  18    0.92    0.44
   0   8  18    0.50    0.37
   2  -8  18    0.26    0.40
   2  -8  18   -0.54    0.43
  -2  -8 -18    0.35    0.46
   2   8  18    0.13    0.35
   4  -8  18    0.97    0.46
  -4  -8 -18    0.89    0.53
   4   8  18    0.78    0.38
   6  -8  18    2.18    0.52
  -6  -8 -18    1.94    0.58
   6   8  18    2.39    0.45
  -6   8 -18    2.20    0.60
  -8  -8 -18    1.26    0.55
   8  -8  18    0.84    0.45
   8   8  18    1.51    0.44
  -8   8 -18    0.78    0.54
  10  -8  18    0.41    0.43
 -10  -8 -18    1.05    0.54
 -10   8 -18    1.08    0.57
  10   8  18   -0.11    0.46
  12  -8  18    0.68    0.44
 -12  -8 -18    1.27    0.56
 -12   8 -18    1.82    0.62
  12   8  18    1.10    0.54
  14  -8  18    0.45    0.43
 -17   9  18    0.26    0.57
 -15   9  18    0.11    0.55
 -13  -9  18   -0.09    0.70
 -13   9  18   -0.15    0.59
 -13   9  18   -0.13    0.50
 -11  -9  18   -0.15    0.61
 -11   9  18   -0.08    0.46
  -9  -9  18    0.05    0.57
  -9   9  18   -0.06    0.43
   7  -9 -18    1.54    0.48
  -7  -9  18    1.03    0.54
  -7   9  18    1.08    0.43
   5  -9 -18    0.83    0.46
  -5  -9  18    0.23    0.50
  -5  -9  18    0.29    0.48
  -5   9  18    0.66    0.40
   3  -9 -18    1.41    0.51
  -3  -9  18    0.81    0.54
  -3  -9  18    0.55    0.47
  -3   9  18    0.48    0.39
  -1  -9  18    2.92    0.62
   1  -9 -18    3.58    0.60
  -1  -9  18    2.81    0.54
  -1   9  18    3.40    0.47
  -1  -9 -18    1.20    0.53
   1  -9  18    0.59    0.51
   1  -9  18    0.06    0.41
   1   9  18    0.30    0.37
  -3  -9 -18    1.01    0.55
   3  -9  18    0.59    0.47
   3  -9  18    0.33    0.43
   3   9  18    0.74    0.39
   5  -9  18    0.54    0.45
  -5  -9 -18    1.12    0.56
  -5   9 -18    0.89    0.53
   5   9  18    0.60    0.39
   7  -9  18    0.60    0.46
  -7  -9 -18    1.24    0.57
  -7   9 -18    0.30    0.52
   7   9  18    0.41    0.42
   9  -9  18    0.32    0.46
  -9  -9 -18    1.58    0.60
   9   9  18    1.16    0.49
  -9   9 -18    1.33    0.56
  11  -9  18    0.37    0.43
 -11  -9 -18    1.83    0.62
 -11   9 -18    1.02    0.59
  11   9  18    0.63    0.49
 -16  10  18   -0.02    0.58
 -14  10  18    0.49    0.56
  12  10 -18    0.61    0.30
 -12  10  18    0.56    0.51
 -10 -10  18   -0.05    0.59
 -10  10  18    0.31    0.49
   8 -10 -18    0.78    0.46
  -8 -10  18    0.42    0.57
  -8  10  18    0.24    0.42
  -6 -10  18    0.65    0.52
   6 -10 -18    1.44    0.49
  -6 -10  18    0.54    0.58
  -6  10  18    0.42    0.41
   4 -10 -18    1.02    0.50
  -4 -10  18    0.30    0.59
  -4 -10  18    0.01    0.48
  -4  10  18   -0.04    0.37
  -2 -10  18    1.20    0.61
  -2 -10  18    1.17    0.49
   2 -10 -18    1.21    0.51
  -2  10  18    1.23    0.41
   0 -10  18    0.88    0.55
   0 -10  18    0.53    0.46
   0 -10 -18    1.70    0.58
   0  10  18    0.62    0.40
  -2 -10 -18    0.98    0.55
   2 -10  18    0.75    0.46
   2 -10  18    0.10    0.52
   2  10  18    0.39    0.38
  -4 -10 -18    2.26    0.63
   4 -10  18    0.39    0.49
   4  10  18    1.04    0.41
  -6 -10 -18    2.52    0.63
   6 -10  18    0.38    0.46
   6  10  18    0.97    0.43
  -6  10 -18    0.88    0.56
   8 -10  18    0.55    0.49
  -8 -10 -18    2.03    0.63
  -8  10 -18    1.35    0.59
   8  10  18    0.41    0.44
 -10 -10 -18    2.10    0.64
  10 -10  18    0.75    0.49
  10  10  18    0.85    0.49
 -10  10 -18    1.35    0.61
 -12 -10 -18    2.78    0.74
 -15  11  18    0.28    0.60
  13  11 -18    0.46    0.30
  11  11 -18    0.57    0.30
  -9 -11  18    0.69    0.63
  -9  11  18    0.78    0.48
   9  11 -18    0.82    0.35
   7 -11 -18    1.83    0.54
  -7 -11  18    0.38    0.57
  -7  11  18    0.15    0.43
  -5 -11  18    0.79    0.56
   5 -11 -18    1.31    0.55
  -5 -11  18    1.14    0.65
  -5  11  18    0.79    0.42
  -3 -11  18    1.55    0.69
   3 -11 -18    2.59    0.61
  -3 -11  18    1.93    0.58
  -3  11  18    1.80    0.45
  -1 -11  18    0.86    0.65
  -1 -11  18    0.37    0.50
   1 -11 -18    1.84    0.61
  -1  11  18    0.33    0.39
   1 -11  18    0.32    0.45
  -1 -11 -18    0.85    0.56
   1 -11  18    0.27    0.58
   1  11  18    0.57    0.41
   3 -11  18   -0.25    0.52
  -3 -11 -18    1.74    0.63
   3  11  18    0.51    0.40
  -5 -11 -18    1.61    0.64
   5 -11  18    0.84    0.51
  -5  11 -18    1.07    0.58
   5  11  18    0.65    0.42
  -7 -11 -18    2.37    0.68
   7 -11  18    1.60    0.54
  -7  11 -18    1.51    0.61
   7  11  18    1.95    0.49
  -9 -11 -18    2.54    0.73
  -9  11 -18    2.61    0.68
 -14  12  18   -0.07    0.56
  14  12 -18    0.45    0.31
  12  12 -18    0.15    0.31
   8 -12 -18    1.49    0.57
  -8 -12  18    0.89    0.84
  -8  12  18    0.83    0.58
  -6 -12  18   -0.17    0.75
  -6 -12  18    0.57    0.59
   6 -12 -18    2.65    0.62
  -6  12  18    0.50    0.45
   4 -12 -18    1.43    0.58
  -4 -12  18    0.48    0.62
  -4 -12  18    0.88    0.58
  -4  12  18    0.21    0.41
  -2 -12  18    0.44    0.53
   2 -12 -18    1.76    0.62
  -2 -12  18    0.17    0.70
  -2  12  18    0.69    0.42
   0 -12 -18    1.57    0.63
   0 -12  18    0.18    0.50
   0 -12  18   -0.28    0.58
   0  12  18    1.10    0.40
  -2 -12 -18    2.98    0.72
   2 -12  18    0.66    0.50
   2 -12  18   -0.14    0.55
   2  12  18    1.05    0.43
  -4 -12 -18    1.11    0.67
   4 -12  18   -0.06    0.52
   4  12  18    0.72    0.42
  -6 -12 -18    2.07    0.72
  -6  12 -18    0.63    0.58
   6  12  18    1.42    0.46
  11  13 -18    0.55    0.36
 -11  13  18    0.12    0.49
   7 -13 -18    1.19    0.61
  -5 -13  18    0.72    0.81
  -5 -13  18    0.35    0.75
   5 -13 -18    1.88    0.64
  -5  13  18    0.31    0.54
  -3 -13  18    0.12    0.77
  -3 -13  18    0.66    0.60
   3 -13 -18    2.38    0.68
  -3  13  18    0.52    0.39
  -1 -13  18    0.59    0.52
  -1 -13  18    0.59    0.73
   1 -13 -18    1.74    0.67
  -1  13  18    0.48    0.38
   1 -13  18    0.25    0.62
   1 -13  18    0.42    0.51
  -1 -13 -18    1.92    0.90
   1  13  18    0.48    0.38
   3  13  18    1.26    0.47
  -5  13 -18    0.70    0.63
 -10  14  18    0.05    0.45
   8  14 -18    0.29    0.39
   7  15 -18    0.28    0.39
 -20   0  19    0.12    0.48
 -18   0  19    0.11    0.43
  16   0 -19    0.84    0.30
 -16   0  19   -0.48    0.41
 -14   0  19   -0.44    0.39
  14   0 -19    0.34    0.27
 -10   0  19    0.21    0.38
 -10   0  19   -0.02    0.36
  -8   0  19    0.23    0.33
  -8   0  19    0.33    0.32
  -6   0  19    0.36    0.17
  -6   0  19   -0.10    0.32
  -6   0  19   -0.20    0.26
  -4   0  19   -0.07    0.37
  -4   0  19   -0.13    0.23
  -4   0  19    0.15    0.31
  -2   0  19   -0.10    0.26
  -2   0  19   -0.17    0.31
  -2   0  19   -0.30    0.35
   0   0  19    0.07    0.28
   0   0  19    0.05    0.30
   2   0  19    0.34    0.28
   2   0  19   -0.39    0.29
  -2   0 -19   -0.18    0.38
  -4   0 -19   -0.13    0.42
   4   0  19    0.36    0.30
   4   0  19    0.08    0.32
  -6   0 -19    0.18    0.45
   6   0  19   -0.35    0.35
   6   0  19    0.27    0.32
   8   0  19   -0.09    0.37
   8   0  19    0.04    0.35
  -8   0 -19    0.52    0.51
  10   0  19    0.18    0.39
  10   0  19    0.31    0.40
 -10   0 -19    0.38    0.53
  12   0  19    0.36    0.39
  12   0  19   -0.19    0.45
 -12   0 -19    1.42    0.56
  14   0  19    0.53    0.42
 -14   0 -19    2.48    0.63
  14   0  19   -0.29    0.45
 -19  -1  19    0.34    0.46
 -19   1  19    0.18    0.46
  17  -1 -19    0.45    0.31
 -17  -1  19    0.15    0.43
 -17   1  19    0.29    0.42
 -15  -1  19    0.20    0.41
 -15  -1  19   -0.21    0.60
  15  -1 -19    0.32    0.28
 -15   1  19   -0.61    0.39
 -13  -1  19   -0.06    0.59
 -13  -1  19   -0.26    0.39
 -11  -1  19   -0.09    0.53
 -11   1  19   -0.13    0.39
  -9  -1  19    0.20    0.48
  -9  -1  19    0.05    0.36
  -9   1  19   -0.30    0.37
  -7  -1  19    0.71    0.32
  -7  -1  19    0.62    0.33
  -7  -1  19    0.60    0.46
  -7   1  19    0.82    0.33
  -7   1  19    0.47    0.41
  -7   1  19    0.10    0.35
  -5  -1  19    2.21    0.37
  -5  -1  19    1.58    0.33
  -5  -1  19    1.25    0.45
  -5   1  19    1.61    0.43
  -5   1  19    1.63    0.36
  -5   1  19    1.02    0.36
  -3  -1  19    0.45    0.28
  -3  -1  19    0.17    0.39
  -3  -1  19    0.52    0.32
  -3   1  19    0.36    0.36
  -3   1  19    0.04    0.32
  -3   1  19    0.81    0.33
  -1  -1  19    0.92    0.33
  -1  -1  19    0.85    0.28
  -1  -1  19    0.43    0.37
  -1   1  19    0.77    0.32
  -1   1  19    0.75    0.32
   1  -1  19    0.53    0.25
  -1  -1 -19    0.87    0.39
   1  -1  19    0.97    0.33
   1   1  19    0.47    0.30
   1   1  19    0.60    0.31
   3  -1  19    0.30    0.18
  -3  -1 -19    0.87    0.45
   3  -1  19    0.91    0.34
  -3   1 -19    1.04    0.44
   3   1  19    0.65    0.32
   3   1  19    1.04    0.33
   5  -1  19    4.61    0.53
   5  -1  19    4.14    0.50
  -5  -1 -19    4.69    0.62
   5   1  19    4.29    0.56
  -5   1 -19    4.58    0.64
   5   1  19    4.52    0.53
   7  -1  19    0.35    0.37
   7  -1  19    0.40    0.32
  -7  -1 -19    0.63    0.52
   7   1  19    0.17    0.37
  -7   1 -19    1.04    0.51
   7   1  19    0.71    0.35
   9  -1  19    1.70    0.45
   9  -1  19    1.15    0.39
  -9  -1 -19    1.10    0.55
   9   1  19    1.08    0.42
   9   1  19    0.92    0.41
  -9   1 -19    1.22    0.54
  11  -1  19    0.75    0.42
  11  -1  19    0.15    0.41
 -11  -1 -19    1.74    0.56
 -11   1 -19    0.76    0.54
  11   1  19    0.63    0.41
  11   1  19   -0.15    0.42
  13  -1  19    0.67    0.43
  13  -1  19    0.91    0.45
 -13  -1 -19    2.16    0.59
  13   1  19    0.95    0.45
  13   1  19   -0.03    0.49
 -13   1 -19    1.65    0.59
  15  -1  19   -0.13    0.47
 -15  -1 -19    2.03    0.55
  15   1  19    1.03    0.54
 -15   1 -19    2.60    0.67
 -20  -2  19    0.39    0.48
 -20   2  19    0.33    0.47
 -18  -2  19   -0.24    0.44
  18  -2 -19    0.85    0.34
 -18  -2  19    0.06    0.77
 -18   2  19   -0.50    0.42
 -16  -2  19   -0.18    0.64
  16  -2 -19    0.55    0.31
 -16  -2  19    0.11    0.43
 -16   2  19   -0.20    0.43
 -14  -2  19    0.32    0.60
 -14  -2  19    0.20    0.42
  14  -2 -19    0.16    0.27
 -12  -2  19    0.06    0.59
 -12   2  19   -0.28    0.42
 -10  -2  19    0.39    0.53
 -10   2  19    0.47    0.40
  -8  -2  19    0.77    0.50
  -8   2  19    0.88    0.38
  -6  -2  19    0.53    0.16
  -6  -2  19    0.04    0.44
  -6   2  19    0.18    0.35
  -6   2  19    0.14    0.30
  -4  -2  19    0.69    0.43
  -4  -2  19    0.16    0.32
  -4   2  19    0.47    0.34
  -4   2  19    0.03    0.50
  -4   2  19    0.79    0.34
  -2  -2  19    3.88    0.45
  -2  -2  19    2.92    0.42
  -2  -2  19    3.37    0.50
  -2   2  19    2.70    0.42
  -2   2  19    3.41    0.42
   0  -2  19    1.50    0.41
   0  -2 -19    0.54    0.37
   0  -2  19    1.19    0.29
   0  -2  19    1.40    0.36
   0   2  19    1.35    0.34
   0   2  19    1.81    0.36
  -2  -2 -19    1.15    0.43
   2  -2  19    1.50    0.29
   2  -2  19    1.03    0.35
   2   2  19    1.46    0.35
   2   2  19    1.18    0.36
   4  -2  19    1.16    0.37
  -4  -2 -19    1.22    0.44
   4  -2  19    1.58    0.31
   4   2  19    1.15    0.38
  -4   2 -19    1.08    0.46
   4   2  19    1.15    0.35
  -6  -2 -19    1.37    0.51
   6  -2  19    0.83    0.39
   6  -2  19    0.49    0.18
   6   2  19    1.08    0.40
  -6   2 -19    1.00    0.48
   6   2  19    1.20    0.38
  -8  -2 -19    1.93    0.56
   8  -2  19    1.23    0.41
   8  -2  19    0.99    0.34
  -8   2 -19    1.42    0.53
   8   2  19    1.08    0.42
   8   2  19    1.15    0.41
  10  -2  19    1.58    0.46
 -10  -2 -19    2.60    0.58
  10  -2  19    1.43    0.41
  10   2  19    1.42    0.44
 -10   2 -19    1.77    0.59
  10   2  19    1.49    0.46
  12  -2  19    0.17    0.39
 -12  -2 -19    2.11    0.56
  12  -2  19    0.72    0.42
 -12   2 -19    1.15    0.58
  12   2  19    0.89    0.44
  12   2  19    0.68    0.50
  14  -2  19    1.22    0.44
  14  -2  19    0.91    0.49
 -14  -2 -19    2.28    0.55
 -14   2 -19    1.40    0.59
  14   2  19    0.20    0.51
  14   2  19    0.38    0.44
  16  -2  19   -0.02    0.51
 -19  -3  19    0.48    0.48
 -19   3  19   -0.14    0.46
 -17  -3  19    0.17    0.46
 -17  -3  19   -0.09    0.65
  17  -3 -19    0.59    0.33
 -17   3  19    0.16    0.44
 -15  -3  19    0.11    0.44
  15  -3 -19    0.70    0.30
 -15  -3  19   -0.57    0.62
 -13  -3  19   -0.10    0.60
 -11  -3  19    0.82    0.64
 -11   3  19    0.84    0.44
  -9  -3  19    0.83    0.55
  -9   3  19    0.77    0.41
  -7  -3  19    1.76    0.37
  -7  -3  19    1.54    0.52
  -7   3  19    1.42    0.41
  -5  -3  19    0.96    0.47
  -5  -3  19    1.47    0.37
  -5   3  19    1.21    0.39
  -5   3  19    1.42    0.38
  -3  -3  19    1.65    0.46
  -3  -3  19    1.59    0.39
  -3   3  19    2.10    0.41
  -3   3  19    2.10    0.39
  -1  -3  19    2.91    0.50
  -1  -3  19    4.18    0.52
  -1   3  19    3.24    0.44
  -1   3  19    3.96    0.45
   1  -3  19    1.49    0.43
  -1  -3 -19    0.82    0.40
   1  -3  19    2.12    0.43
   1   3  19    1.65    0.38
   1   3  19    1.94    0.37
   3  -3  19    1.42    0.40
  -3  -3 -19    1.58    0.43
   3   3  19    1.97    0.40
  -3   3 -19    1.33    0.46
   3   3  19    2.06    0.38
   5  -3  19    3.41    0.50
  -5  -3 -19    3.92    0.59
   5   3  19    3.44    0.47
  -5   3 -19    4.89    0.65
   5   3  19    3.54    0.49
   7  -3  19    2.59    0.50
   7  -3  19    2.50    0.48
  -7  -3 -19    2.93    0.58
  -7   3 -19    2.91    0.59
   7   3  19    2.50    0.44
   7   3  19    2.26    0.46
   9  -3  19    1.46    0.45
  -9  -3 -19    2.34    0.57
   9   3  19    1.16    0.45
  -9   3 -19    2.05    0.58
   9   3  19    1.63    0.45
  11  -3  19    2.09    0.49
  11  -3  19    1.93    0.44
 -11  -3 -19    2.77    0.58
  11   3  19    1.84    0.48
 -11   3 -19    2.70    0.62
  11   3  19    2.00    0.51
  13  -3  19    2.26    0.49
 -13  -3 -19    2.65    0.56
  13  -3  19    2.42    0.50
  13   3  19    1.76    0.50
 -13   3 -19    2.41    0.64
  13   3  19    2.16    0.55
 -15  -3 -19    2.23    0.57
  15  -3  19    0.11    0.46
  15  -3  19    0.79    0.58
 -20  -4  19   -0.10    0.48
 -20   4  19    0.13    0.51
 -18   4  19   -0.19    0.47
 -16  -4  19    0.04    0.67
  16  -4 -19    0.63    0.30
 -14  -4  19    0.23    0.69
 -14  -4  19    0.53    0.43
 -14   4  19   -0.09    0.42
 -12  -4  19    0.11    0.42
 -12  -4  19    0.35    0.63
 -12   4  19    0.66    0.46
 -12   4  19    0.43    0.40
 -10  -4  19    0.38    0.58
 -10   4  19   -0.17    0.42
  -8  -4  19    2.01    0.58
  -8   4  19    2.61    0.46
  -6  -4  19    1.22    0.50
  -6  -4  19    1.06    0.26
  -6   4  19    1.66    0.42
  -4  -4  19    1.16    0.47
  -4  -4  19    1.46    0.43
  -4   4  19    1.22    0.40
  -4   4  19    0.86    0.38
  -2  -4  19    2.72    0.47
  -2  -4  19    1.50    0.44
  -2   4  19    2.23    0.41
  -2   4  19    1.91    0.40
   0  -4  19    1.90    0.45
   0  -4  19    1.09    0.41
   0   4  19    2.17    0.40
   0   4  19    1.14    0.37
   2  -4  19    2.82    0.48
   2   4  19    2.77    0.45
   2   4  19    3.21    0.44
   4  -4  19    1.99    0.44
   4   4  19    1.74    0.41
   4   4  19    1.91    0.43
  -4   4 -19    2.48    0.51
  -6  -4 -19    1.30    0.49
   6  -4  19    1.28    0.42
   6   4  19    1.25    0.42
  -6   4 -19    0.66    0.50
   6   4  19    1.09    0.40
   8  -4  19    1.98    0.46
  -8  -4 -19    2.42    0.54
   8   4  19    1.73    0.43
  -8   4 -19    1.90    0.57
   8   4  19    2.10    0.47
 -10  -4 -19    2.79    0.57
  10  -4  19    2.04    0.49
  10   4  19    1.97    0.49
  10   4  19    1.64    0.49
 -10   4 -19    2.86    0.62
  12  -4  19    2.17    0.49
 -12  -4 -19    2.13    0.53
 -12   4 -19    2.28    0.61
  12   4  19    1.59    0.50
  12   4  19    1.78    0.51
 -14  -4 -19    1.89    0.57
  14  -4  19    1.03    0.45
  14   4  19    1.22    0.58
 -14   4 -19    2.38    0.67
  14   4  19    0.35    0.50
 -19  -5  19    0.04    0.48
 -19   5  19   -0.08    0.55
 -17  -5  19    0.21    0.46
 -15  -5  19    0.03    0.46
 -15  -5  19    0.04    0.73
 -13  -5  19    0.15    0.66
 -13   5  19    0.05    0.46
 -13   5  19   -0.26    0.42
 -11  -5  19   -0.05    0.62
 -11   5  19    0.29    0.44
  -9  -5  19    0.20    0.55
  -9   5  19    0.31    0.42
  -7  -5  19    1.07    0.52
   7  -5 -19    1.89    0.42
  -7  -5  19    2.36    0.47
  -7   5  19    1.50    0.44
  -5  -5  19    1.49    0.44
  -5  -5  19    1.51    0.49
  -5   5  19    1.09    0.41
  -3  -5  19    1.74    0.49
  -3  -5  19    2.93    0.50
  -3   5  19    2.84    0.45
  -1  -5  19    4.60    0.59
  -1  -5  19    3.62    0.54
  -1   5  19    4.42    0.49
  -1   5  19    3.12    0.46
   1  -5  19    0.75    0.43
   1  -5  19    0.54    0.38
   1   5  19    0.72    0.37
   1   5  19    1.13    0.37
   3  -5  19    1.92    0.46
   3   5  19    1.94    0.40
   3   5  19    1.22    0.39
   5  -5  19    2.91    0.48
   5   5  19    2.78    0.46
  -5   5 -19    2.42    0.57
   5   5  19    2.46    0.45
   7  -5  19    2.61    0.50
   7   5  19    2.81    0.49
  -7   5 -19    2.28    0.62
   7   5  19    3.63    0.49
   9  -5  19    2.99    0.50
  -9  -5 -19    3.04    0.86
  -9   5 -19    3.02    0.64
   9   5  19    2.67    0.51
   9   5  19    2.71    0.52
  11  -5  19    1.24    0.44
 -11  -5 -19    2.64    0.58
  11   5  19    0.78    0.50
  11   5  19    0.50    0.46
 -11   5 -19    1.40    0.59
 -13  -5 -19    2.64    0.61
  13  -5  19    1.64    0.49
 -13   5 -19    2.51    0.69
  13   5  19    0.09    0.51
  13   5  19    1.44    0.56
  15  -5  19    1.01    0.55
 -15  -5 -19    1.67    0.63
 -18  -6  19    0.02    0.47
 -18   6  19   -0.29    0.56
 -16  -6  19    0.13    0.45
 -16   6  19   -0.06    0.48
 -14  -6  19   -0.57    0.71
 -12  -6  19    0.42    0.63
 -12   6  19    0.49    0.48
 -10  -6  19    0.85    0.60
 -10   6  19    0.34    0.44
   8  -6 -19    1.77    0.41
  -8  -6  19    1.12    0.56
  -8   6  19    0.67    0.43
   6  -6 -19    1.94    0.44
  -6  -6  19    2.98    0.50
  -6  -6  19    1.43    0.50
  -6   6  19    1.48    0.44
   4  -6 -19    1.69    0.46
  -4  -6  19    1.83    0.49
  -4  -6  19    2.46    0.50
  -4   6  19    2.38    0.45
  -2  -6  19    1.42    0.45
  -2  -6  19    2.98    0.52
  -2   6  19    2.28    0.43
   0  -6  19    4.44    0.58
   0   6  19    3.69    0.49
   2  -6  19    1.08    0.45
   2  -6  19    0.67    0.41
   2   6  19    0.30    0.35
   2   6  19    0.71    0.38
   4  -6  19    2.42    0.50
   4   6  19    1.39    0.43
  -4   6 -19    2.51    0.55
   4   6  19    2.35    0.43
   6  -6  19    1.77    0.48
  -6   6 -19    2.14    0.59
   6   6  19    1.28    0.45
   6   6  19    2.17    0.45
   8  -6  19    0.93    0.43
   8   6  19    1.04    0.44
  -8   6 -19    1.38    0.56
   8   6  19   -0.03    0.43
  10  -6  19    2.56    0.51
  10   6  19    1.82    0.49
 -10   6 -19    1.56    0.60
  12  -6  19    1.25    0.45
  12   6  19    0.44    0.48
 -12   6 -19    0.93    0.58
  14  -6  19    1.37    0.48
 -17  -7  19    0.09    0.48
 -17   7  19    0.22    0.57
 -13  -7  19    0.00    0.66
 -13  -7  19    0.25    0.45
 -13   7  19    0.43    0.51
 -13   7  19    0.84    0.46
 -11  -7  19    0.26    0.61
 -11   7  19   -0.15    0.46
  -9  -7  19    0.72    0.56
  -9   7  19    0.78    0.44
   7  -7 -19    1.92    0.45
  -7  -7  19    0.72    0.51
  -7   7  19    0.61    0.43
  -5  -7  19    1.08    0.49
  -5  -7  19    0.72    0.46
   5  -7 -19    1.05    0.43
  -5   7  19    0.62    0.41
   3  -7 -19    2.19    0.49
  -3  -7  19    1.71    0.49
  -3  -7  19    2.86    0.53
  -3   7  19    2.08    0.45
  -1  -7  19    1.18    0.43
   1  -7 -19    1.26    0.48
  -1  -7  19    1.30    0.50
  -1   7  19    1.56    0.41
   1  -7  19    1.13    0.49
   1  -7  19    1.11    0.42
  -1  -7 -19    1.16    0.46
   1   7  19    1.63    0.40
   3  -7  19    1.58    0.48
   3   7  19    1.61    0.42
   5  -7  19    1.11    0.45
   5   7  19    0.77    0.40
  -5   7 -19    1.81    0.55
   7  -7  19    2.52    0.52
   7   7  19    1.87    0.49
  -7   7 -19    2.31    0.65
   9  -7  19    2.49    0.52
   9   7  19    1.74    0.50
  -9   7 -19    2.05    0.62
  11  -7  19    0.40    0.43
 -11  -7 -19    0.69    0.53
 -11   7 -19    0.98    0.59
  11   7  19    0.29    0.46
 -13  -7 -19    0.98    0.54
  13  -7  19    0.32    0.43
 -16  -8  19    0.12    0.49
 -16   8  19    0.05    0.59
 -14   8  19    0.58    0.52
 -12  -8  19    0.04    0.65
 -12   8  19   -0.11    0.49
 -10  -8  19    0.55    0.59
 -10   8  19    0.40    0.47
   8  -8 -19    1.13    0.43
  -8  -8  19    0.58    0.55
  -8   8  19    1.10    0.46
  -6  -8  19    0.65    0.49
  -6  -8  19    1.55    0.52
   6  -8 -19    1.22    0.47
  -6   8  19    0.95    0.44
  -4  -8  19    0.80    0.52
  -4  -8  19    0.86    0.47
   4  -8 -19    1.47    0.46
  -4   8  19    0.44    0.41
  -2  -8  19    1.59    0.55
  -2  -8  19    1.14    0.45
   2  -8 -19    1.04    0.47
  -2   8  19    0.60    0.40
   0  -8  19    0.39    0.42
   0  -8  19    0.54    0.52
   0  -8 -19    0.67    0.48
   0   8  19    0.15    0.37
  -2  -8 -19    0.77    0.49
   2  -8  19    1.05    0.45
   2  -8  19    1.23    0.51
   2   8  19    1.41    0.40
   4  -8  19    0.44    0.45
  -4  -8 -19    0.57    0.50
   4   8  19    0.32    0.39
  -6  -8 -19    0.80    0.52
   6  -8  19    0.57    0.45
  -6   8 -19    0.84    0.54
   6   8  19    0.88    0.42
   8  -8  19    0.44    0.47
  -8  -8 -19    0.54    0.53
  -8   8 -19    0.71    0.57
   8   8  19    0.57    0.45
 -10  -8 -19    2.34    0.60
  10  -8  19    1.75    0.52
 -10   8 -19    2.79    0.66
  10   8  19    2.09    0.55
  12  -8  19    0.19    0.45
 -12  -8 -19    0.88    0.54
 -17   9  19    0.07    0.64
 -15   9  19    0.00    0.57
 -13   9  19   -0.47    0.49
 -11  -9  19    0.12    0.62
 -11   9  19    0.05    0.50
  -9  -9  19    0.02    0.58
  -9   9  19    0.15    0.47
  -7  -9  19    0.31    0.54
   7  -9 -19    2.34    0.51
  -7   9  19    1.27    0.47
   5  -9 -19    0.96    0.47
  -5  -9  19    0.78    0.51
  -5  -9  19    0.99    0.54
  -5   9  19    0.47    0.41
  -3  -9  19    0.45    0.47
   3  -9 -19    0.69    0.49
  -3  -9  19    0.40    0.55
  -3   9  19    0.59    0.40
  -1  -9  19    0.35    0.44
   1  -9 -19    0.42    0.48
  -1  -9  19   -0.09    0.53
  -1   9  19    0.10    0.39
  -1  -9 -19    1.04    0.53
   1  -9  19    1.10    0.55
   1  -9  19    0.53    0.43
   1   9  19    0.49    0.39
  -3  -9 -19    0.66    0.53
   3  -9  19   -0.23    0.47
   3   9  19    0.28    0.39
   5  -9  19    0.01    0.45
  -5  -9 -19    0.15    0.53
   5   9  19    0.13    0.41
  -5   9 -19    0.24    0.50
   7  -9  19    0.80    0.47
  -7  -9 -19    1.43    0.57
   7   9  19    0.97    0.45
  -7   9 -19    0.61    0.56
  -9  -9 -19    1.26    0.58
   9  -9  19    0.14    0.47
   9   9  19    0.44    0.47
  -9   9 -19    1.37    0.56
  11  -9  19    0.13    0.47
 -11  -9 -19    1.83    0.62
 -16  10  19    0.38    0.63
 -14  10  19    0.26    0.57
  14  10 -19    0.43    0.31
 -12  10  19    0.11    0.48
 -10 -10  19    0.06    0.62
 -10  10  19    0.29    0.49
   8 -10 -19    1.55    0.51
  -8 -10  19    0.77    0.59
  -8  10  19    0.54    0.47
  -6 -10  19    0.34    0.53
  -6 -10  19    0.44    0.56
   6 -10 -19    1.79    0.50
  -6  10  19    0.62    0.44
  -4 -10  19    0.93    0.52
   4 -10 -19    1.34    0.52
  -4 -10  19    1.57    0.65
  -4  10  19    1.26    0.44
  -2 -10  19   -0.04    0.60
  -2 -10  19   -0.01    0.46
   2 -10 -19    1.31    0.53
  -2  10  19    0.55    0.40
   0 -10  19    0.42    0.46
   0 -10  19    0.31    0.55
   0 -10 -19    1.46    0.57
   0  10  19    0.64    0.39
   2 -10  19    0.57    0.47
   2 -10  19    1.01    0.53
  -2 -10 -19    2.34    0.59
   2  10  19    0.73    0.41
  -4 -10 -19    1.71    0.61
   4 -10  19   -0.13    0.50
   4  10  19    0.86    0.42
   6 -10  19    0.12    0.49
  -6 -10 -19    1.59    0.60
  -6  10 -19    0.20    0.50
   6  10  19    0.50    0.44
   8 -10  19    0.62    0.53
  -8 -10 -19    1.87    0.60
   8  10  19    0.44    0.47
  -8  10 -19    0.99    0.58
 -10 -10 -19    1.73    0.64
 -13  11  19    0.00    0.52
  13  11 -19    0.13    0.30
  -7 -11  19    0.06    0.57
   7 -11 -19    1.47    0.53
  -7  11  19   -0.67    0.45
  -5 -11  19   -0.20    0.63
  -5 -11  19    0.40    0.55
   5 -11 -19    0.85    0.51
  -5  11  19    0.38    0.44
  -3 -11  19    0.31    0.51
  -3 -11  19   -0.19    0.69
   3 -11 -19    0.80    0.53
  -3  11  19   -0.11    0.41
   1 -11 -19    1.48    0.58
  -1 -11  19    0.18    0.50
  -1 -11  19    0.37    0.66
  -1  11  19    0.74    0.42
   1 -11  19    0.74    0.57
  -1 -11 -19    2.55    0.62
   1 -11  19    1.03    0.48
   1  11  19    1.25    0.44
  -3 -11 -19    2.02    0.63
   3 -11  19    0.44    0.55
   3  11  19    0.37    0.42
   5 -11  19    0.33    0.50
  -5 -11 -19    1.56    0.64
  -5  11 -19    0.51    0.55
   5  11  19    0.30    0.43
   7 -11  19    0.49    0.64
  -7 -11 -19    1.73    0.67
   7  11  19    0.33    0.49
  -7  11 -19    0.94    0.59
 -12  12  19    0.02    0.50
   8 -12 -19    1.87    0.59
  -6 -12  19    0.29    0.76
   6 -12 -19    1.60    0.58
  -6  12  19   -0.21    0.50
   4 -12 -19    0.01    0.52
  -4 -12  19   -0.22    0.65
  -4 -12  19    0.02    0.55
  -4  12  19   -0.21    0.43
  -2 -12  19   -0.51    0.69
  -2 -12  19    0.48    0.54
   2 -12 -19    1.60    0.62
  -2  12  19    0.34    0.42
   0 -12  19    0.14    0.49
   0 -12 -19    0.86    0.61
   0 -12  19   -0.18    0.59
   0  12  19    0.51    0.41
  -2 -12 -19    0.66    0.62
   2 -12  19    0.02    0.48
   2 -12  19   -0.24    0.57
   2  12  19    0.56    0.43
  -4 -12 -19    0.54    0.83
  -4  12 -19    0.43    0.55
   4  12  19    0.23    0.43
  -6  12 -19    0.37    0.73
  11  13 -19    0.46    0.34
   9  13 -19    0.83    0.40
  -5 -13  19   -0.41    0.78
  -3 -13  19   -0.30    0.73
  -1 -13  19   -0.07    0.74
  -1 -13  19   -0.62    0.63
   1 -13  19   -0.17    0.76
 -20   0  20   -0.01    0.47
 -18   0  20   -0.51    0.45
 -16   0  20    0.07    0.44
  14   0 -20    1.55    0.32
 -14   0  20    1.20    0.44
 -10   0  20    1.33    0.42
  -8   0  20    0.55    0.33
  -8   0  20    0.76    0.33
  -6   0  20    1.45    0.38
  -6   0  20    1.71    0.32
  -6   0  20    1.29    0.30
  -4   0  20    1.14    0.42
  -4   0  20    0.75    0.26
  -4   0  20    1.32    0.36
  -2   0  20    2.38    0.41
  -2   0  20    2.82    0.47
  -2   0  20    2.04    0.33
   0   0  20    3.54    0.40
   0   0  20    2.89    0.44
   2   0  20    3.45    0.40
  -2   0 -20    2.89    0.53
   2   0  20    2.88    0.45
   4   0  20    8.48    0.68
   4   0  20    8.35    0.75
  -4   0 -20    9.36    0.88
  -6   0 -20    4.30    0.66
   6   0  20    5.01    0.57
   6   0  20    5.13    0.51
   8   0  20    2.43    0.43
   8   0  20    1.69    0.45
  -8   0 -20    1.60    0.57
  10   0  20    0.85    0.42
 -10   0 -20    0.90    0.55
  10   0  20    0.43    0.41
  12   0  20    2.28    0.50
  12   0  20    1.75    0.52
 -12   0 -20    2.30    0.62
 -14   0 -20    3.57    0.68
  14   0  20    2.36    0.61
  14   0  20    2.92    0.55
 -19   1  20   -0.44    0.46
 -17  -1  20   -0.01    0.46
  17  -1 -20    0.93    0.32
 -17   1  20    0.02    0.45
 -15  -1  20    0.08    0.43
  15  -1 -20    0.34    0.29
 -15   1  20   -0.45    0.41
 -13  -1  20    0.84    0.43
 -13  -1  20    0.41    0.62
 -11  -1  20    0.33    0.55
 -11   1  20   -0.17    0.40
  -9  -1  20    0.78    0.51
  -9   1  20    1.62    0.42
  -7  -1  20    1.47    0.48
  -7  -1  20    2.24    0.48
  -7  -1  20    1.62    0.37
  -7   1  20    1.93    0.38
  -7   1  20    1.44    0.74
  -7   1  20    0.87    0.40
  -5  -1  20    2.22    0.40
  -5  -1  20    2.11    0.50
  -5  -1  20    2.06    0.38
  -5   1  20    1.63    0.38
  -5   1  20    1.77    0.45
  -5   1  20    1.93    0.39
  -3  -1  20    4.87    0.54
  -3  -1  20    4.61    0.49
  -3  -1  20    3.93    0.55
  -3   1  20    3.27    0.50
  -3   1  20    4.28    0.53
  -3   1  20    4.52    0.47
  -1  -1  20    3.32    0.39
  -1  -1  20    2.65    0.48
  -1  -1  20    2.88    0.43
  -1   1  20    2.53    0.42
  -1   1  20    3.89    0.42
   1  -1  20    2.85    0.36
   1  -1  20    3.02    0.44
  -1  -1 -20    2.59    0.50
   1   1  20    3.97    0.42
   1   1  20    2.92    0.43
  -3  -1 -20    1.31    0.47
   3  -1  20    0.88    0.36
   3   1  20    0.61    0.34
   3   1  20    1.13    0.36
  -3   1 -20    0.87    0.47
   5  -1  20    0.72    0.38
   5  -1  20    0.71    0.31
  -5  -1 -20    1.81    0.48
  -5   1 -20    0.51    0.49
   5   1  20    0.30    0.36
   5   1  20    0.54    0.35
  -7  -1 -20    2.76    0.62
   7  -1  20    4.08    0.54
   7  -1  20    3.82    0.45
  -7   1 -20    3.95    0.63
   7   1  20    3.47    0.47
   7   1  20    3.40    0.52
  -9  -1 -20    2.56    0.61
   9  -1  20    2.41    0.46
   9  -1  20    3.03    0.51
   9   1  20    2.43    0.49
   9   1  20    2.76    0.48
  -9   1 -20    3.24    0.64
 -11  -1 -20    1.87    0.58
  11  -1  20    0.87    0.44
  11  -1  20    1.43    0.47
  11   1  20    1.02    0.47
 -11   1 -20    1.90    0.60
  11   1  20    1.09    0.46
  13  -1  20    0.57    0.53
 -13  -1 -20    2.65    0.60
  13  -1  20    1.47    0.47
  13   1  20    1.28    0.52
 -13   1 -20    2.32    0.63
  13   1  20    1.19    0.47
  15  -1  20    0.37    0.51
  15  -1  20    1.42    0.64
 -15  -1 -20    2.41    0.64
  15   1  20    0.69    0.73
 -20  -2  20    0.00    0.50
 -20   2  20   -0.46    0.49
 -18  -2  20    0.44    0.47
 -16  -2  20   -0.20    0.66
 -16   2  20   -0.42    0.42
 -14  -2  20    0.06    0.62
 -12  -2  20    0.79    0.63
 -12   2  20    0.97    0.46
 -10  -2  20    0.24    0.54
 -10   2  20    0.82    0.43
  -8  -2  20    1.57    0.53
  -8   2  20    1.42    0.41
  -6  -2  20    1.52    0.49
  -6  -2  20    1.03    0.27
  -6   2  20    1.39    0.37
  -6   2  20    1.33    0.40
  -4  -2  20    3.28    0.54
  -4  -2  20    3.02    0.45
  -4   2  20    3.03    0.44
  -4   2  20    3.56    0.45
  -2  -2  20    2.18    0.48
  -2  -2  20    2.00    0.41
  -2   2  20    2.98    0.42
  -2   2  20    2.19    0.41
   0  -2  20    0.28    0.41
   0  -2 -20   -0.10    0.36
   0  -2  20    0.58    0.35
   0   2  20    0.69    0.34
   0   2  20    0.69    0.35
  -2  -2 -20    1.36    0.46
   2  -2  20    2.21    0.41
   2  -2  20    1.91    0.40
   2   2  20    2.29    0.39
   2   2  20    1.99    0.42
  -4  -2 -20    0.16    0.43
   4  -2  20    0.43    0.37
   4  -2  20    0.52    0.29
   4   2  20    0.24    0.36
  -4   2 -20    0.19    0.46
   4   2  20    0.03    0.36
   6  -2  20    3.17    0.51
  -6  -2 -20    4.11    0.62
   6   2  20    3.72    0.52
  -6   2 -20    4.23    0.65
   6   2  20    3.78    0.50
   8  -2  20    3.20    0.52
  -8  -2 -20    3.33    0.64
   8  -2  20    3.08    0.44
   8   2  20    3.07    0.51
   8   2  20    2.77    0.48
  -8   2 -20    4.07    0.65
  10  -2  20    2.56    0.47
  10  -2  20    2.95    0.53
 -10  -2 -20    3.54    0.62
 -10   2 -20    3.47    0.66
  10   2  20    2.61    0.52
  10   2  20    2.67    0.52
 -12  -2 -20    2.56    0.57
  12  -2  20    0.53    0.45
  12  -2  20    1.30    0.47
  12   2  20    1.09    0.46
 -12   2 -20    1.67    0.60
  12   2  20    0.99    0.50
 -14  -2 -20    2.06    0.52
  14  -2  20    0.71    0.43
  14  -2  20   -0.15    0.45
  14   2  20    0.12    0.44
 -14   2 -20    1.73    0.60
  14   2  20    0.10    0.53
 -19  -3  20    0.06    0.48
 -19   3  20   -0.98    0.46
  17  -3 -20    0.56    0.42
 -17  -3  20   -0.03    0.47
 -17  -3  20    0.15    0.69
 -17   3  20    0.18    0.46
 -15  -3  20   -0.18    0.44
  15  -3 -20    0.61    0.29
 -15  -3  20   -0.38    0.74
 -15   3  20    0.17    0.43
 -13  -3  20    1.00    0.45
 -13  -3  20    0.07    0.67
 -11  -3  20    0.45    0.63
 -11   3  20    0.62    0.45
  -9  -3  20    0.34    0.54
  -9   3  20    0.44    0.41
  -7  -3  20    1.26    0.42
  -7  -3  20    1.09    0.52
  -7   3  20    1.64    0.42
  -5  -3  20    0.70    0.47
  -5  -3  20    0.46    0.36
  -5   3  20    0.86    0.39
  -5   3  20    0.62    0.37
  -3  -3  20    1.26    0.40
  -3  -3  20    0.87    0.46
  -3   3  20    1.81    0.40
  -3   3  20    1.32    0.39
  -1  -3  20    0.69    0.36
  -1  -3  20    0.64    0.41
  -1   3  20    1.51    0.38
  -1   3  20    1.13    0.37
   1  -3  20    1.03    0.38
   1  -3  20    0.97    0.44
   1   3  20    1.62    0.39
   1   3  20    1.43    0.38
  -3  -3 -20    0.97    0.42
   3  -3  20    0.27    0.36
   3   3  20    0.12    0.36
   3   3  20    0.11    0.35
  -3   3 -20    0.66    0.45
   5  -3  20    2.12    0.44
  -5  -3 -20    1.96    0.52
   5   3  20    1.83    0.44
  -5   3 -20    2.11    0.57
   5   3  20    2.19    0.43
  -7  -3 -20    1.71    0.55
   7  -3  20    1.00    0.44
   7   3  20    1.08    0.43
  -7   3 -20    1.20    0.53
   7   3  20    0.77    0.42
  -9  -3 -20    2.50    0.54
   9  -3  20    1.82    0.48
   9   3  20    1.71    0.46
   9   3  20    1.10    0.45
  -9   3 -20    2.33    0.60
  11  -3  20    2.25    0.50
 -11  -3 -20    2.56    0.57
  11   3  20    1.51    0.50
  11   3  20    1.57    0.49
 -11   3 -20    2.36    0.60
  13  -3  20    0.71    0.44
 -13   3 -20    1.35    0.60
  13   3  20    0.55    0.49
  13   3  20    0.87    0.48
  15  -3  20    1.02    0.54
 -15  -3 -20    2.12    0.58
 -18  -4  20    0.36    0.50
 -18   4  20    0.60    0.50
 -16  -4  20   -0.17    0.75
 -16  -4  20   -0.19    0.48
  16  -4 -20    0.41    0.31
 -16   4  20   -0.19    0.47
 -14  -4  20   -0.43    0.72
 -12  -4  20   -0.39    0.62
 -12   4  20    0.07    0.46
 -10  -4  20   -0.26    0.58
 -10   4  20    0.49    0.44
  -8  -4  20    0.13    0.52
  -8   4  20    0.40    0.42
  -6  -4  20    0.73    0.34
  -6  -4  20    0.84    0.51
  -6   4  20    0.38    0.40
  -4  -4  20    0.94    0.43
  -4  -4  20    0.79    0.46
  -4   4  20    0.50    0.39
  -4   4  20    0.35    0.37
  -2  -4  20    1.43    0.46
  -2  -4  20    0.67    0.43
  -2   4  20    1.15    0.40
  -2   4  20    0.70    0.38
   0  -4  20    2.12    0.47
   0  -4  20    1.70    0.45
   0   4  20    1.27    0.41
   0   4  20    1.87    0.41
   2  -4  20    0.26    0.40
   2   4  20    0.41    0.37
   2   4  20   -0.29    0.35
   4  -4  20    0.77    0.43
   4   4  20    0.54    0.38
  -4   4 -20    0.26    0.46
   4   4  20    0.47    0.39
   6  -4  20    1.26    0.44
   6   4  20    0.87    0.41
   6   4  20    1.00    0.43
  -6   4 -20    0.98    0.53
  -8  -4 -20    2.02    0.53
   8  -4  20    0.60    0.43
   8   4  20    1.39    0.45
   8   4  20    1.34    0.46
  -8   4 -20    1.52    0.56
  10  -4  20    0.56    0.45
 -10  -4 -20    2.32    0.55
 -10   4 -20    1.31    0.55
  10   4  20   -0.23    0.43
  10   4  20    0.71    0.46
  12  -4  20   -0.25    0.42
 -12  -4 -20    2.52    0.54
  12   4  20   -0.30    0.46
 -12   4 -20    1.39    0.56
  12   4  20   -0.25    0.46
 -14  -4 -20    2.34    0.58
  14  -4  20    1.61    0.49
  14   4  20    0.02    0.50
 -19  -5  20   -0.60    0.49
 -19   5  20    0.48    0.59
 -17  -5  20    0.02    0.49
 -17   5  20    0.01    0.53
 -15  -5  20   -0.52    0.74
 -15  -5  20   -0.56    0.46
 -15   5  20   -0.54    0.47
 -13  -5  20   -0.44    0.71
 -13   5  20    0.07    0.48
 -13   5  20   -0.01    0.44
 -11  -5  20   -0.30    0.62
 -11   5  20   -0.05    0.45
  -9  -5  20    0.21    0.56
  -9   5  20    0.08    0.42
  -7  -5  20   -0.32    0.49
   7  -5 -20    0.80    0.37
  -7   5  20   -0.32    0.41
  -5  -5  20    1.09    0.44
  -5  -5  20    0.70    0.48
  -5   5  20    0.93    0.42
  -3  -5  20    0.42    0.44
  -3  -5  20    0.06    0.43
  -3   5  20   -0.02    0.38
  -3   5  20    0.67    0.40
  -1  -5  20    0.07    0.44
  -1  -5  20    0.37    0.40
  -1   5  20   -0.18    0.38
  -1   5  20    0.08    0.36
   1  -5  20    1.06    0.41
   1  -5  20    1.92    0.47
   1   5  20    1.60    0.40
   1   5  20    0.67    0.37
   3  -5  20    2.39    0.49
   3   5  20    1.70    0.42
   3   5  20    2.15    0.43
   5  -5  20    0.91    0.42
   5   5  20    0.35    0.39
  -5   5 -20    0.41    0.50
   5   5  20    0.90    0.41
   7  -5  20    0.48    0.41
  -7   5 -20    0.48    0.52
   7   5  20   -0.57    0.38
   7   5  20    0.32    0.42
   9  -5  20    0.89    0.45
   9   5  20    1.28    0.46
   9   5  20    0.63    0.45
  -9   5 -20    1.65    0.56
  11  -5  20    0.63    0.44
 -11   5 -20    0.94    0.56
  11   5  20   -0.60    0.44
  11   5  20    0.01    0.45
  13  -5  20    0.65    0.46
 -13  -5 -20    1.57    0.69
  13   5  20   -0.64    0.51
 -13   5 -20    1.40    0.72
  13   5  20    0.54    0.57
 -15  -5 -20    1.15    0.69
  15  -5  20    0.59    0.61
 -18  -6  20   -0.14    0.47
 -16  -6  20   -0.08    0.46
 -16   6  20   -0.22    0.55
 -14  -6  20   -0.10    0.73
 -12  -6  20   -0.60    0.62
 -12   6  20   -0.17    0.47
 -10  -6  20    0.43    0.59
 -10   6  20   -0.09    0.44
  -8  -6  20   -0.06    0.52
   8  -6 -20    0.54    0.38
  -8   6  20    0.32    0.43
  -6  -6  20    0.86    0.49
  -6  -6  20    0.49    0.43
   6  -6 -20    0.46    0.40
  -6   6  20   -0.05    0.42
  -4  -6  20   -0.23    0.44
  -4  -6  20   -0.19    0.42
   4  -6 -20    0.46    0.40
  -4   6  20   -0.15    0.40
  -2  -6  20   -0.29    0.41
  -2  -6  20   -0.05    0.46
  -2   6  20   -0.14    0.40
   0  -6  20    0.45    0.40
   0  -6  20    0.45    0.46
   0   6  20   -0.05    0.38
   2  -6  20    0.87    0.40
   2  -6  20    1.03    0.47
   2   6  20    0.28    0.37
   2   6  20    1.81    0.41
   4  -6  20    1.27    0.46
   4   6  20    0.26    0.39
   4   6  20    1.07    0.40
  -4   6 -20    1.01    0.51
   6  -6  20    0.05    0.41
   6   6  20   -0.31    0.40
   6   6  20   -0.43    0.40
  -6   6 -20    0.59    0.52
   8  -6  20   -0.01    0.42
   8   6  20   -0.38    0.41
   8   6  20   -0.75    0.43
  -8   6 -20    0.41    0.53
  10  -6  20    0.08    0.40
 -10   6 -20    0.95    0.56
  10   6  20    0.82    0.49
  12  -6  20    0.81    0.44
  12   6  20    0.22    0.51
 -12   6 -20    1.28    0.59
  14  -6  20    0.67    0.52
 -17  -7  20    0.07    0.50
 -15   7  20   -0.03    0.54
 -13  -7  20    0.09    0.47
 -13  -7  20    0.14    0.70
 -13   7  20   -0.01    0.51
 -13   7  20    0.27    0.47
 -11  -7  20   -0.30    0.60
 -11   7  20   -1.16    0.46
  -9  -7  20    0.00    0.55
  -9   7  20    0.37    0.45
   7  -7 -20    0.87    0.40
  -7  -7  20   -0.34    0.48
  -7   7  20    0.12    0.43
   5  -7 -20    0.55    0.42
  -5  -7  20    0.57    0.47
  -5  -7  20    0.23    0.46
  -5   7  20    0.15    0.42
   3  -7 -20    0.47    0.43
  -3  -7  20    0.51    0.45
  -3  -7  20    0.86    0.50
  -3   7  20    0.12    0.40
  -1  -7  20   -0.07    0.40
  -1  -7  20   -0.60    0.48
   1  -7 -20    0.00    0.42
  -1   7  20    0.46    0.40
   1  -7  20   -0.18    0.37
   1  -7  20    0.01    0.47
  -1  -7 -20    0.51    0.44
   1   7  20    0.56    0.39
   3  -7  20    0.61    0.46
   3   7  20    0.04    0.39
   5  -7  20    0.82    0.46
  -5   7 -20    0.98    0.52
   5   7  20    0.76    0.42
   7  -7  20    0.96    0.46
  -7   7 -20    1.13    0.59
   7   7  20    0.25    0.46
   9  -7  20    0.70    0.46
  -9   7 -20    0.85    0.57
   9   7  20    1.00    0.51
  11  -7  20    0.10    0.41
 -11  -7 -20    0.67    0.52
  11   7  20    0.23    0.47
 -11   7 -20    1.09    0.59
 -13  -7 -20    1.25    0.54
 -16  -8  20   -0.37    0.50
 -14   8  20   -0.17    0.51
 -12  -8  20    0.07    0.66
 -12   8  20   -0.12    0.51
 -10  -8  20    0.14    0.60
 -10   8  20   -0.14    0.49
  -8  -8  20    1.25    0.61
   8  -8 -20    1.26    0.44
  -8   8  20    0.25    0.47
  -6  -8  20    0.42    0.50
   6  -8 -20    1.21    0.45
  -6  -8  20    0.34    0.48
  -6   8  20    0.39    0.44
  -4  -8  20    1.31    0.55
  -4  -8  20    0.67    0.48
   4  -8 -20    1.04    0.46
  -4   8  20    0.64    0.44
  -2  -8  20    1.86    0.51
   2  -8 -20    1.83    0.51
  -2  -8  20    2.20    0.59
  -2   8  20    2.05    0.46
   0  -8 -20    0.76    0.48
   0  -8  20    0.09    0.42
   0  -8  20   -0.20    0.50
   0   8  20    0.03    0.39
   2  -8  20    0.51    0.49
   2  -8  20   -0.12    0.41
  -2  -8 -20    1.17    0.50
   2   8  20    0.34    0.40
   4  -8  20    0.89    0.48
  -4  -8 -20    1.05    0.52
   4   8  20    0.79    0.43
  -4   8 -20    1.02    0.54
   6  -8  20    1.46    0.51
  -6  -8 -20    2.50    0.60
   6   8  20    2.03    0.48
  -6   8 -20    1.98    0.64
   8  -8  20    0.99    0.49
  -8  -8 -20    0.98    0.54
   8   8  20    0.46    0.47
  -8   8 -20    0.85    0.59
 -10  -8 -20    1.49    0.58
  10  -8  20    0.32    0.46
  10   8  20    0.50    0.49
 -10   8 -20    1.64    0.62
 -12  -8 -20    1.47    0.57
 -13   9  20   -0.33    0.48
 -11  -9  20   -0.30    0.79
 -11   9  20   -0.22    0.62
  -9  -9  20   -0.09    0.59
  -9   9  20    0.23    0.49
  -7  -9  20    0.31    0.54
   7  -9 -20    1.42    0.48
  -7   9  20    0.68    0.47
   5  -9 -20    1.00    0.47
  -5  -9  20    0.14    0.51
  -5  -9  20    0.37    0.56
  -5   9  20    0.10    0.44
  -3  -9  20    2.19    0.61
  -3  -9  20    0.96    0.51
   3  -9 -20    2.24    0.52
  -3   9  20    1.51    0.46
  -1  -9  20    1.03    0.49
  -1  -9  20    1.64    0.65
   1  -9 -20    1.80    0.52
  -1   9  20    1.45    0.45
   1  -9  20   -0.02    0.42
  -1  -9 -20    1.03    0.53
   1  -9  20   -0.13    0.50
   1   9  20    0.32    0.40
   3  -9  20    0.32    0.53
  -3  -9 -20    1.17    0.56
   3   9  20    0.51    0.41
   5  -9  20   -0.01    0.47
  -5  -9 -20    0.94    0.55
  -5   9 -20    0.47    0.54
   5   9  20    0.44    0.44
  -7  -9 -20    2.04    0.59
   7  -9  20    0.94    0.49
  -7   9 -20    1.20    0.62
   7   9  20    1.14    0.46
   9  -9  20    0.27    0.47
  -9  -9 -20    1.39    0.61
   9   9  20   -0.05    0.54
  -9   9 -20    0.61    0.57
 -14  10  20    0.65    0.56
   8 -10 -20    1.05    0.51
  -8 -10  20    0.48    0.59
  -8  10  20    0.78    0.50
   6 -10 -20    1.24    0.49
  -6 -10  20    0.65    0.56
  -6  10  20    0.53    0.48
  -4 -10  20    1.19    0.67
  -4 -10  20    0.78    0.54
   4 -10 -20    1.77    0.52
  -4  10  20    0.77    0.45
  -2 -10  20    1.37    0.69
   2 -10 -20    2.48    0.58
  -2 -10  20    1.69    0.55
  -2  10  20    1.03    0.45
   0 -10 -20    1.76    0.57
   0 -10  20    0.42    0.47
   0 -10  20    0.60    0.60
   0  10  20    0.79    0.43
   2 -10  20    0.12    0.54
  -2 -10 -20    1.59    0.56
   2 -10  20   -0.08    0.45
   2  10  20    0.15    0.40
  -4 -10 -20    2.95    0.67
  -4  10 -20    2.40    0.64
  -6 -10 -20    0.74    0.58
   6 -10  20    0.46    0.51
  -6  10 -20    0.57    0.57
   6  10  20    0.62    0.45
  -8 -10 -20    1.17    0.62
  -8  10 -20    0.44    0.73
 -13  11  20   -0.32    0.50
  11  11 -20    1.08    0.34
   7 -11 -20    1.85    0.55
  -7 -11  20    0.43    0.76
  -7  11  20    0.49    0.60
  -5 -11  20    0.33    0.56
  -5 -11  20   -0.34    0.66
   5 -11 -20    1.81    0.54
  -5  11  20    0.21    0.47
  -3 -11  20    0.94    0.71
   3 -11 -20    2.16    0.61
  -3 -11  20    0.98    0.55
  -3  11  20    1.11    0.48
   1 -11 -20    1.71    0.58
  -1 -11  20    0.52    0.60
  -1 -11  20    0.77    0.51
  -1  11  20    0.82    0.45
  -1 -11 -20    1.52    0.60
   1 -11  20   -0.19    0.56
   1 -11  20    0.16    0.47
   1  11  20    0.18    0.42
  -3 -11 -20    2.27    0.67
   3 -11  20    0.48    0.55
   3  11  20    0.68    0.45
  -5 -11 -20    1.82    0.72
   5 -11  20    0.91    0.68
  -5  11 -20    0.57    0.56
   5  11  20    0.53    0.47
  12  12 -20    1.01    0.37
   8 -12 -20    1.28    0.73
   6 -12 -20    1.94    0.58
   4 -12 -20    1.34    0.58
  -4 -12  20    0.19    0.73
  -2 -12  20    0.98    0.67
   2 -12 -20    1.34    0.62
  -2 -12  20    0.44    0.56
  -2  12  20    1.17    0.58
   0 -12  20    0.72    0.53
   0 -12  20    0.56    0.68
   0 -12 -20    1.40    0.82
   0  12  20    0.80    0.52
   2 -12  20    0.21    0.67
 -16   0  21    0.11    0.46
 -14   0  21    0.17    0.42
 -10   0  21   -0.64    0.50
  -8   0  21   -0.04    0.42
  -6   0  21   -0.04    0.32
  -6   0  21    0.27    0.33
  -6   0  21    0.15    0.25
  -4   0  21   -0.29    0.23
  -4   0  21    0.04    0.34
  -4   0  21    0.44    0.41
  -2   0  21   -0.01    0.39
  -2   0  21    0.08    0.34
  -2   0  21    0.19    0.27
   0   0  21   -0.02    0.31
   0   0  21    0.19    0.35
  -2   0 -21    0.22    0.44
   2   0  21    0.03    0.36
   2   0  21   -0.12    0.31
   4   0  21   -0.15    0.33
  -4   0 -21   -0.10    0.45
   4   0  21   -0.11    0.37
   6   0  21    0.33    0.39
  -6   0 -21    0.95    0.49
   6   0  21    0.05    0.35
   8   0  21    0.20    0.40
   8   0  21   -0.06    0.37
  -8   0 -21    0.46    0.51
  10   0  21    0.07    0.42
  10   0  21    0.53    0.43
 -10   0 -21    0.88    0.54
  12   0  21   -0.13    0.47
 -12   0 -21    2.18    0.60
  12   0  21    0.48    0.44
  14   0  21    0.66    0.46
 -14   0 -21    1.64    0.61
  14   0  21   -0.29    0.52
 -19  -1  21   -0.16    0.49
 -19   1  21   -0.03    0.51
  17  -1 -21    0.58    0.40
 -17   1  21   -0.03    0.47
  15  -1 -21    0.47    0.29
 -15  -1  21   -0.56    0.44
 -15   1  21   -0.19    0.44
 -13  -1  21   -0.21    0.41
 -11  -1  21    0.22    0.55
 -11   1  21    0.13    0.42
  -9  -1  21    0.60    0.51
  -9   1  21    0.66    0.41
  -7  -1  21    0.52    0.47
  -7  -1  21    0.24    0.41
  -7   1  21    0.43    0.38
  -7   1  21    0.39    0.32
  -5  -1  21    0.53    0.44
  -5  -1  21    0.94    0.36
  -5   1  21    0.65    0.61
  -5   1  21    0.70    0.36
  -5   1  21    0.32    0.36
  -3  -1  21    0.00    0.41
  -3  -1  21    0.13    0.35
  -3  -1  21    0.39    0.40
  -3   1  21    0.06    0.34
  -3   1  21   -0.28    0.36
  -3   1  21    0.16    0.35
  -1  -1  21    0.38    0.35
  -1  -1  21    0.69    0.33
  -1  -1  21    0.64    0.42
  -1   1  21    0.50    0.36
  -1   1  21    0.85    0.34
   1  -1  21    0.20    0.28
  -1  -1 -21    0.06    0.41
   1  -1  21    0.48    0.36
   1   1  21    0.18    0.35
   1   1  21    0.42    0.33
  -3  -1 -21    1.00    0.48
   3  -1  21    0.43    0.36
   3  -1  21    0.51    0.20
   3   1  21    0.58    0.37
  -3   1 -21    0.13    0.46
   3   1  21    0.78    0.35
  -5  -1 -21    2.04    0.52
   5  -1  21    1.25    0.41
   5  -1  21    1.18    0.35
   5   1  21    1.20    0.41
  -5   1 -21    1.55    0.52
   5   1  21    1.05    0.38
   7  -1  21   -0.43    0.33
   7  -1  21    0.28    0.40
  -7  -1 -21    0.38    0.50
  -7   1 -21    0.48    0.49
   7   1  21    0.41    0.40
   7   1  21    0.00    0.39
   9  -1  21    0.58    0.39
   9  -1  21    0.99    0.44
  -9  -1 -21    1.39    0.55
   9   1  21    1.13    0.45
   9   1  21   -0.13    0.41
  -9   1 -21    0.56    0.53
  11  -1  21    0.61    0.44
 -11  -1 -21    1.59    0.56
  11  -1  21   -0.15    0.43
  11   1  21    0.20    0.44
  11   1  21   -0.03    0.46
 -11   1 -21    1.03    0.57
  13  -1  21   -0.16    0.49
 -13  -1 -21    2.12    0.55
  13  -1  21    0.75    0.43
  13   1  21    0.73    0.45
  13   1  21    0.32    0.51
 -13   1 -21    1.74    0.62
  15  -1  21    1.10    0.66
 -18  -2  21    0.03    0.50
 -16  -2  21   -0.76    0.46
  16  -2 -21    0.92    0.32
 -16   2  21   -0.07    0.44
 -14  -2  21   -0.22    0.65
 -12  -2  21   -0.14    0.59
 -12   2  21    0.40    0.46
 -10  -2  21    0.33    0.56
 -10   2  21   -0.20    0.42
  -8  -2  21    0.69    0.52
  -8   2  21    0.58    0.40
  -6  -2  21    0.73    0.35
  -6  -2  21    0.35    0.47
  -6   2  21    0.36    0.35
  -6   2  21    0.09    0.39
  -4  -2  21    0.91    0.37
  -4  -2  21    0.90    0.46
  -4   2  21    0.40    0.38
  -4   2  21    0.74    0.37
  -2  -2  21    1.50    0.47
  -2  -2  21    2.15    0.43
  -2   2  21    1.90    0.41
  -2   2  21    1.89    0.41
   0  -2  21    0.10    0.36
   0  -2  21    0.02    0.42
   0  -2 -21    0.09    0.38
   0   2  21   -0.04    0.35
   0   2  21    0.03    0.35
  -2  -2 -21    0.47    0.42
   2  -2  21    0.25    0.37
   2   2  21    0.50    0.37
  -2   2 -21    0.20    0.46
   2   2  21    0.28    0.36
   4  -2  21    2.96    0.49
  -4  -2 -21    2.73    0.53
   4   2  21    3.00    0.49
  -4   2 -21    2.68    0.59
   4   2  21    3.38    0.46
  -6  -2 -21    1.44    0.53
   6  -2  21    1.62    0.45
   6   2  21    1.65    0.43
   6   2  21    1.24    0.44
  -6   2 -21    1.28    0.52
   8  -2  21    0.65    0.41
   8  -2  21    0.82    0.43
  -8  -2 -21    1.21    0.54
   8   2  21    0.91    0.43
   8   2  21    0.48    0.41
  -8   2 -21    1.36    0.54
  10  -2  21    0.44    0.44
  10  -2  21    1.20    0.45
 -10  -2 -21    2.20    0.56
  10   2  21    0.14    0.42
  10   2  21    0.39    0.45
 -10   2 -21    1.51    0.57
 -12  -2 -21    1.92    0.54
  12  -2  21    0.90    0.47
  12  -2  21    0.23    0.46
 -12   2 -21    0.95    0.57
  12   2  21    0.54    0.44
  12   2  21   -0.24    0.49
  14  -2  21   -0.08    0.53
  14  -2  21    0.73    0.45
  14   2  21    0.63    0.48
 -19  -3  21    0.21    0.51
 -19   3  21   -0.28    0.50
 -17  -3  21   -0.33    0.49
 -17   3  21    0.47    0.50
 -15  -3  21   -0.05    0.47
 -15  -3  21   -0.03    0.76
  15  -3 -21    0.64    0.30
 -13  -3  21    0.38    0.44
 -13  -3  21   -0.44    0.63
 -13   3  21   -0.22    0.48
 -11  -3  21    0.19    0.63
 -11   3  21    0.63    0.46
  -9  -3  21    0.76    0.56
  -9   3  21    0.71    0.44
  -7  -3  21    1.21    0.52
  -7   3  21    1.15    0.42
  -5  -3  21    0.90    0.38
  -5  -3  21    0.85    0.51
  -5   3  21    0.50    0.40
  -5   3  21    0.24    0.36
  -3  -3  21    2.08    0.43
  -3  -3  21    1.95    0.50
  -3   3  21    1.59    0.42
  -3   3  21    2.61    0.44
  -1  -3  21    1.83    0.42
  -1  -3  21    0.90    0.44
  -1   3  21    2.38    0.43
  -1   3  21    1.67    0.41
   1  -3  21    0.81    0.39
   1   3  21    0.44    0.37
   1   3  21    1.07    0.38
   3  -3  21    2.46    0.47
  -3   3 -21    2.63    0.56
   3   3  21    1.94    0.45
   3   3  21    2.38    0.43
   5  -3  21    1.55    0.45
  -5  -3 -21    1.88    0.52
  -5   3 -21    1.73    0.56
   5   3  21    1.97    0.44
   5   3  21    2.01    0.46
  -7  -3 -21    2.18    0.55
   7  -3  21    1.52    0.46
  -7   3 -21    1.83    0.56
   7   3  21    1.07    0.45
   7   3  21    1.13    0.45
   9  -3  21    0.73    0.46
  -9  -3 -21    2.43    0.54
   9   3  21    0.92    0.46
  -9   3 -21    1.37    0.57
   9   3  21    1.07    0.44
  11  -3  21    1.40    0.49
 -11   3 -21    1.44    0.57
  11   3  21    0.99    0.46
  11   3  21    0.75    0.49
 -13  -3 -21    2.18    0.53
  13  -3  21    1.01    0.47
 -13   3 -21    0.91    0.64
  13   3  21    0.12    0.52
  13   3  21    0.11    0.47
  15  -3  21    1.18    0.61
 -18  -4  21   -0.08    0.52
 -16  -4  21    0.75    0.51
 -14  -4  21    0.00    0.47
 -14  -4  21    0.15    0.76
 -12  -4  21    0.39    0.71
 -12   4  21    0.40    0.48
 -10  -4  21    0.30    0.59
 -10   4  21    0.47    0.45
  -8  -4  21    0.14    0.54
  -8   4  21    0.52    0.44
  -6  -4  21    1.09    0.40
  -6  -4  21    0.49    0.50
  -6   4  21    0.80    0.43
  -4  -4  21    6.22    0.63
  -4  -4  21    4.08    0.63
  -4   4  21    4.34    0.59
  -4   4  21    5.52    0.62
  -2  -4  21    1.50    0.48
  -2  -4  21    1.88    0.50
  -2   4  21    2.19    0.45
  -2   4  21    1.53    0.42
   0  -4  21    0.85    0.45
   0  -4  21    0.62    0.41
   0   4  21    0.57    0.39
   0   4  21    0.00    0.38
   2  -4  21    2.37    0.50
   2   4  21    2.07    0.45
   2   4  21    2.21    0.44
   4  -4  21    1.10    0.45
   4   4  21    0.82    0.41
  -4   4 -21    0.43    0.49
   4   4  21    1.07    0.42
   6  -4  21    1.32    0.45
   6   4  21    1.13    0.45
   6   4  21    1.22    0.45
  -6   4 -21    1.03    0.56
   8  -4  21    2.35    0.50
   8   4  21    1.84    0.48
  -8   4 -21    2.13    0.59
   8   4  21    1.81    0.50
  10  -4  21    1.59    0.49
 -10  -4 -21    3.07    0.61
  10   4  21    0.98    0.49
  10   4  21    0.60    0.48
 -10   4 -21    2.02    0.59
 -12  -4 -21    2.45    0.54
  12  -4  21    1.31    0.48
  12   4  21    0.97    0.54
  12   4  21    0.60    0.50
 -12   4 -21    2.08    0.60
  14  -4  21    1.35    0.49
 -14  -4 -21    2.65    0.59
  14   4  21    0.10    0.51
 -17  -5  21    0.05    0.51
 -17   5  21    0.59    0.56
 -15  -5  21   -0.05    0.98
 -15  -5  21   -0.60    0.48
 -13  -5  21    0.06    0.46
 -13  -5  21    0.14    0.73
 -13   5  21   -0.23    0.50
 -11  -5  21    0.21    0.65
 -11   5  21    0.39    0.48
  -9  -5  21    0.51    0.59
  -9   5  21    1.27    0.47
   7  -5 -21    0.83    0.38
  -7  -5  21    0.40    0.52
  -7   5  21    0.61    0.44
  -5  -5  21    2.51    0.58
  -5  -5  21    3.30    0.55
  -5   5  21    2.60    0.48
  -3  -5  21    1.41    0.50
  -3  -5  21    3.09    0.52
  -3   5  21    2.38    0.46
  -3   5  21    0.70    0.43
  -1  -5  21    1.31    0.45
  -1  -5  21    1.84    0.51
  -1   5  21    1.25    0.42
  -1   5  21    1.94    0.44
   1  -5  21    0.90    0.43
   1  -5  21    1.30    0.49
   1   5  21    1.29    0.41
   1   5  21    1.18    0.40
   3  -5  21    0.69    0.45
   3   5  21    0.89    0.40
   3   5  21    0.98    0.42
   5  -5  21    3.16    0.53
   5   5  21    2.30    0.48
   5   5  21    2.70    0.48
  -5   5 -21    2.08    0.59
   7  -5  21    1.37    0.47
  -7   5 -21    1.56    0.58
   7   5  21    1.86    0.47
   7   5  21    0.66    0.44
   9  -5  21    1.28    0.48
   9   5  21    0.59    0.48
   9   5  21    0.76    0.47
  -9   5 -21    1.88    0.59
  11  -5  21    1.57    0.49
  11   5  21    0.30    0.50
  11   5  21    0.25    0.50
 -11   5 -21    2.52    0.62
  13  -5  21    1.38    0.50
  13   5  21   -0.22    0.53
 -16  -6  21    0.46    0.51
 -16   6  21    0.31    0.56
 -14  -6  21    0.60    0.50
 -14  -6  21    0.35    0.98
 -12  -6  21    0.22    0.70
 -12   6  21    0.31    0.50
 -10  -6  21   -0.19    0.59
 -10   6  21    0.24    0.47
  -8  -6  21    0.77    0.57
  -8   6  21    0.31    0.45
  -6  -6  21    0.80    0.52
  -6  -6  21    1.13    0.48
   6  -6 -21    1.38    0.42
  -6   6  21    0.88    0.45
  -4  -6  21    0.39    0.48
  -4  -6  21    1.32    0.51
   4  -6 -21    1.13    0.43
  -4   6  21    1.13    0.45
  -2  -6  21    1.83    0.52
  -2  -6  21    1.42    0.48
  -2   6  21    1.47    0.45
   0  -6  21    1.40    0.46
   0  -6  21    3.37    0.58
   0   6  21    2.05    0.44
   2  -6  21    2.31    0.52
   2   6  21    2.10    0.44
   2   6  21    0.81    0.40
   4  -6  21    2.97    0.53
   4   6  21    1.29    0.45
  -4   6 -21    2.44    0.58
   4   6  21    1.84    0.46
   6  -6  21    1.03    0.47
  -6   6 -21    0.92    0.55
   6   6  21    0.53    0.44
   6   6  21   -0.02    0.43
   8  -6  21    0.54    0.45
  -8   6 -21    1.19    0.56
   8   6  21    0.93    0.48
   8   6  21    0.11    0.47
  10  -6  21    1.06    0.48
 -10   6 -21    1.51    0.60
  10   6  21    0.83    0.52
  12  -6  21    2.00    0.52
 -17  -7  21    0.30    0.53
 -17   7  21   -0.35    0.62
 -15   7  21    0.27    0.55
 -13  -7  21    0.74    0.50
 -11  -7  21    0.37    0.65
 -11   7  21    0.01    0.50
  -9  -7  21    0.27    0.57
  -9   7  21    0.98    0.48
   7  -7 -21    1.23    0.42
  -7  -7  21    0.29    0.51
  -7   7  21    0.65    0.46
  -5  -7  21    0.35    0.51
  -5  -7  21   -0.10    0.47
   5  -7 -21    1.01    0.43
  -5   7  21    0.74    0.44
   3  -7 -21    1.04    0.45
  -3  -7  21    0.82    0.52
  -3  -7  21    0.96    0.48
  -3   7  21    1.33    0.45
   1  -7 -21    0.95    0.46
  -1  -7  21    1.71    0.56
  -1  -7  21    0.79    0.46
  -1   7  21    1.08    0.44
   1  -7  21    2.25    0.55
   1  -7  21    1.77    0.49
   1   7  21    2.06    0.46
   3  -7  21    1.24    0.51
   3   7  21    1.43    0.44
   5  -7  21    0.95    0.49
  -5   7 -21    1.04    0.57
   5   7  21    0.43    0.44
   7  -7  21    0.81    0.47
  -7   7 -21    1.86    0.63
   7   7  21    0.97    0.48
   9  -7  21    0.90    0.47
  -9   7 -21    0.71    0.56
   9   7  21    0.69    0.50
  11  -7  21    1.19    0.48
 -11  -7 -21    1.23    0.55
 -16   8  21   -0.77    0.62
 -14   8  21    0.31    0.53
 -10  -8  21   -0.43    0.62
 -10   8  21    1.04    0.51
  -8  -8  21    0.51    0.57
  -8   8  21    0.93    0.49
  -6  -8  21    0.35    0.53
   6  -8 -21    1.84    0.46
  -6  -8  21    1.12    0.64
  -6   8  21    0.15    0.47
   4  -8 -21    0.78    0.46
  -4  -8  21    0.33    0.55
  -4  -8  21    0.26    0.51
  -4   8  21    0.79    0.46
  -2  -8  21    0.36    0.55
  -2  -8  21    0.21    0.46
   2  -8 -21    0.37    0.45
  -2   8  21    0.41    0.43
   0  -8  21    1.97    0.61
   0  -8  21    0.63    0.45
   0  -8 -21    1.69    0.51
   0   8  21    1.43    0.46
   2  -8  21    0.92    0.52
   2  -8  21    0.34    0.43
  -2  -8 -21    0.36    0.48
   2   8  21    0.42    0.42
   4  -8  21    0.38    0.49
  -4  -8 -21    1.61    0.55
  -4   8 -21    0.55    0.56
   4   8  21    0.70    0.43
  -6  -8 -21    0.78    0.53
   6  -8  21    0.29    0.49
  -6   8 -21    0.18    0.56
   6   8  21    0.23    0.45
   8  -8  21    0.89    0.49
  -8  -8 -21    0.95    0.56
   8   8  21    0.69    0.51
  -8   8 -21    0.73    0.58
 -10  -8 -21    1.24    0.58
  -9  -9  21    0.22    0.61
  -9   9  21    0.65    0.51
  -7  -9  21    0.80    0.57
   7  -9 -21    1.89    0.47
  -7   9  21   -0.02    0.48
   5  -9 -21    1.34    0.46
  -5  -9  21    0.42    0.53
  -5  -9  21    0.01    0.58
  -5   9  21    0.81    0.48
  -3  -9  21    0.47    0.61
   3  -9 -21    1.61    0.49
  -3  -9  21    0.02    0.48
  -3   9  21   -0.18    0.44
  -1  -9  21    0.21    0.45
   1  -9 -21    1.12    0.51
  -1  -9  21    0.13    0.56
  -1   9  21    0.46    0.45
   1  -9  21    0.63    0.54
   1  -9  21    0.24    0.44
  -1  -9 -21    0.53    0.50
   1   9  21    0.75    0.44
   3  -9  21    0.61    0.54
  -3  -9 -21    0.32    0.53
   3   9  21    0.48    0.43
  -5  -9 -21    1.41    0.58
   5  -9  21    0.57    0.51
   5   9  21    0.58    0.46
  -5   9 -21    0.21    0.56
  -7  -9 -21    0.97    0.57
   7  -9  21    0.28    0.48
   7   9  21    0.71    0.47
  -7   9 -21    0.71    0.63
  14  10 -21    1.12    0.35
  12  10 -21    0.16    0.33
   6 -10 -21    1.40    0.51
  -6 -10  21   -0.14    0.54
  -6  10  21    0.38    0.48
   4 -10 -21    0.99    0.49
  -4 -10  21    0.11    0.66
  -4 -10  21    0.11    0.50
  -4  10  21    0.72    0.46
   2 -10 -21    1.39    0.53
  -2 -10  21    0.26    0.50
  -2 -10  21   -0.28    0.59
  -2  10  21    0.78    0.46
   0 -10  21    0.49    0.59
   0 -10  21    0.48    0.47
   0 -10 -21    1.33    0.54
   0  10  21    0.69    0.45
   2 -10  21   -0.04    0.47
  -2 -10 -21    1.79    0.57
   2 -10  21    0.89    0.59
   2  10  21    0.80    0.44
   4 -10  21    0.14    0.53
  -4 -10 -21    1.79    0.61
  -4  10 -21    0.32    0.57
   4  10  21   -0.31    0.43
  -6 -10 -21    1.35    0.73
  -6  10 -21    0.29    0.80
   5 -11 -21    1.22    0.53
  -5 -11  21   -0.14    0.72
   3 -11 -21    1.38    0.57
  -3 -11  21    0.36    0.54
  -3 -11  21    0.53    0.67
  -3  11  21    0.31    0.49
  -1 -11  21    0.38    0.51
  -1 -11  21    0.68    0.72
   1 -11 -21    1.86    0.61
  -1  11  21    0.80    0.47
   1 -11  21   -0.32    0.56
   1 -11  21    0.16    0.50
  -1 -11 -21    1.88    0.62
   1  11  21    1.14    0.49
  -4 -12  21   -0.67    0.77
 -16   0  22    0.95    0.50
  -6   0  22    1.35    0.39
  -4   0  22    1.02    0.38
  -4   0  22    0.58    0.42
  -4   0  22    0.64    0.25
  -2   0  22    2.19    0.48
  -2   0  22    1.40    0.31
  -2   0  22    2.13    0.43
   0   0  22    2.92    0.46
   0   0  22    2.62    0.40
   2   0  22    2.80    0.48
   2   0  22    3.47    0.44
  -2   0 -22    3.72    0.58
   4   0  22   -0.08    0.35
  -4   0 -22    0.25    0.46
   4   0  22    0.46    0.39
   6   0  22    5.65    0.62
  -6   0 -22    5.85    0.80
   6   0  22    5.73    0.67
  -8   0 -22    1.18    0.54
   8   0  22    1.02    0.41
   8   0  22    0.79    0.43
 -10   0 -22    2.50    0.61
  10   0  22    2.61    0.52
  10   0  22    2.29    0.51
 -12   0 -22    2.18    0.58
  12   0  22    0.66    0.51
  12   0  22    1.26    0.48
  14   0  22    1.08    0.50
 -17   1  22    0.20    0.49
  15  -1 -22    1.01    0.40
 -15  -1  22    0.36    0.48
 -11   1  22   -0.33    0.44
  -9  -1  22    1.18    0.54
  -9   1  22    1.87    0.45
  -7  -1  22    1.24    0.50
  -7   1  22    0.69    0.41
  -5  -1  22    1.18    0.48
  -5  -1  22    1.79    0.40
  -5   1  22    0.93    0.39
  -5   1  22    1.95    0.40
  -3  -1  22    1.72    0.42
  -3  -1  22    1.34    0.46
  -3   1  22    1.48    0.41
  -3   1  22    1.51    0.39
  -3   1  22    0.57    0.51
  -1  -1  22    2.27    0.45
  -1  -1  22    2.27    0.50
  -1   1  22    2.36    0.42
  -1   1  22    2.30    0.44
   1  -1  22    3.52    0.50
   1  -1  22    3.96    0.55
  -1  -1 -22    3.31    0.57
   1   1  22    4.79    0.53
   1   1  22    4.51    0.58
  -1   1 -22    3.58    0.59
   3  -1  22    1.35    0.42
  -3  -1 -22    1.90    0.52
   3  -1  22    0.77    0.35
   3   1  22    1.48    0.42
  -3   1 -22    2.38    0.55
   3   1  22    2.08    0.41
  -5  -1 -22    3.02    0.57
   5  -1  22    3.41    0.52
   5  -1  22    3.59    0.51
   5   1  22    3.24    0.48
  -5   1 -22    2.91    0.60
   5   1  22    2.56    0.49
  -7  -1 -22    0.73    0.52
   7  -1  22    0.46    0.38
   7  -1  22    0.80    0.44
   7   1  22    0.43    0.41
   7   1  22    0.91    0.43
  -7   1 -22    1.48    0.56
  -9  -1 -22    2.23    0.59
   9  -1  22    1.72    0.50
   9  -1  22    1.19    0.43
   9   1  22    1.61    0.49
   9   1  22    1.55    0.47
  -9   1 -22    2.12    0.58
 -11  -1 -22    1.87    0.57
  11  -1  22    0.91    0.49
  11  -1  22    1.45    0.48
 -11   1 -22    2.07    0.60
  11   1  22    1.38    0.48
  11   1  22    0.51    0.48
  13  -1  22    0.84    0.46
  13  -1  22   -0.02    0.50
 -13  -1 -22    1.88    0.56
  13   1  22   -0.01    0.51
 -13   1 -22    2.07    0.91
  13   1  22    1.33    0.49
 -18   2  22   -0.56    0.52
  16  -2 -22    0.68    0.31
 -16  -2  22   -0.59    0.48
 -14  -2  22    0.35    0.94
 -12  -2  22    0.44    0.64
 -12   2  22    0.97    0.48
 -10  -2  22    0.41    0.57
 -10   2  22    0.91    0.46
  -8  -2  22    1.43    0.55
  -8   2  22    0.90    0.43
  -6  -2  22    0.95    0.38
  -6  -2  22    0.41    0.49
  -6   2  22    0.58    0.41
  -6   2  22    0.47    0.37
  -4  -2  22    0.31    0.46
  -4  -2  22    0.62    0.38
  -4   2  22    0.53    0.37
  -4   2  22    0.35    0.38
  -2  -2  22    0.68    0.41
  -2  -2  22    0.67    0.44
  -2   2  22    0.98    0.40
  -2   2  22    1.22    0.41
   0  -2  22    4.54    0.59
   0   2  22    4.04    0.49
   0   2  22    3.72    0.52
  -2  -2 -22    0.96    0.46
   2  -2  22    1.02    0.42
  -2   2 -22    0.28    0.46
   2   2  22    1.26    0.39
   2   2  22    1.34    0.42
   4  -2  22    1.39    0.43
  -4  -2 -22    1.71    0.49
   4   2  22    1.22    0.41
   4   2  22    1.51    0.43
  -4   2 -22    1.46    0.54
   6  -2  22    0.93    0.43
  -6  -2 -22    1.01    0.51
   6   2  22    0.68    0.41
  -6   2 -22    0.13    0.49
   6   2  22    0.07    0.40
  -8  -2 -22    5.27    0.77
   8  -2  22    3.81    0.58
   8   2  22    2.99    0.54
   8   2  22    3.21    0.56
  -8   2 -22    4.21    0.68
 -10  -2 -22    2.53    0.57
  10  -2  22    0.97    0.48
  10   2  22    0.14    0.47
  10   2  22    1.56    0.48
 -10   2 -22    1.72    0.58
  12  -2  22    0.80    0.45
  12   2  22    0.07    0.50
 -12   2 -22    1.30    0.60
  12   2  22    0.19    0.45
  14   2  22    1.27    0.60
 -17  -3  22   -0.36    0.51
 -17   3  22   -0.10    0.50
  15  -3 -22    0.59    0.30
 -15  -3  22   -0.38    0.76
 -15   3  22    0.16    0.48
 -13  -3  22   -0.24    0.64
 -13   3  22    0.11    0.49
 -11  -3  22    0.80    0.65
 -11   3  22    0.09    0.46
  -9  -3  22    0.07    0.56
  -9   3  22   -0.13    0.43
  -7  -3  22    0.49    0.53
  -7   3  22    0.78    0.43
  -5  -3  22    0.84    0.51
  -5  -3  22    0.75    0.40
  -5   3  22    0.85    0.42
  -5   3  22    0.40    0.38
  -3  -3  22    1.11    0.41
  -3  -3  22    0.16    0.45
  -3   3  22    0.56    0.40
  -3   3  22    0.98    0.41
  -1  -3  22    0.16    0.42
  -1  -3  22    0.43    0.40
  -1   3  22    0.82    0.40
  -1   3  22    0.74    0.40
   1  -3  22    0.74    0.42
   1   3  22    1.24    0.42
   1   3  22    1.16    0.40
   3  -3  22    0.76    0.42
   3   3  22    0.69    0.39
   3   3  22    0.38    0.40
  -3   3 -22    0.31    0.48
   5  -3  22    1.17    0.45
   5   3  22    0.75    0.43
  -5   3 -22    1.98    0.59
   5   3  22    1.48    0.45
  -7  -3 -22    1.90    0.56
   7  -3  22    0.39    0.44
   7   3  22    0.94    0.44
  -7   3 -22    0.76    0.53
   7   3  22    0.87    0.45
   9  -3  22    2.13    0.52
  -9  -3 -22    2.68    0.55
   9   3  22    1.96    0.52
  -9   3 -22    2.22    0.62
   9   3  22    1.45    0.49
 -11  -3 -22    2.21    0.54
  11  -3  22    0.67    0.46
 -11   3 -22    1.65    0.56
  11   3  22    0.34    0.46
  11   3  22    0.34    0.48
  13  -3  22    0.61    0.47
  13   3  22    0.36    0.50
 -18   4  22   -0.68    0.54
 -16   4  22   -0.26    0.48
 -14  -4  22   -0.43    0.73
 -12  -4  22   -0.20    0.71
 -12   4  22   -0.17    0.50
 -10  -4  22    0.31    0.60
 -10   4  22    0.20    0.46
  -8  -4  22    0.20    0.56
  -8   4  22    0.32    0.45
  -6  -4  22    0.21    0.52
  -6  -4  22    0.48    0.39
  -6   4  22    0.58    0.44
  -4  -4  22    0.97    0.42
  -4  -4  22    0.86    0.49
  -4   4  22    0.21    0.39
  -4   4  22    1.14    0.43
  -2  -4  22    0.20    0.45
  -2  -4  22    0.42    0.41
  -2   4  22    0.32    0.41
  -2   4  22    0.76    0.42
   0  -4  22    0.42    0.43
   0  -4  22    0.13    0.40
   0   4  22    0.58    0.40
   0   4  22    0.27    0.40
   2  -4  22    0.79    0.42
   2   4  22    0.17    0.40
   2   4  22    0.57    0.40
   4  -4  22    0.52    0.42
  -4   4 -22    0.57    0.51
   4   4  22    0.70    0.41
   4   4  22    0.39    0.42
   6  -4  22    1.11    0.46
   6   4  22    0.61    0.44
   6   4  22    0.07    0.42
  -6   4 -22    1.06    0.55
   8  -4  22    0.69    0.47
   8   4  22    0.77    0.46
   8   4  22    0.30    0.45
  -8   4 -22    1.33    0.55
  10  -4  22    0.99    0.48
  10   4  22    0.31    0.47
  10   4  22   -0.48    0.45
 -10   4 -22    0.47    0.53
  12  -4  22    1.19    0.49
 -12  -4 -22    2.56    0.77
  12   4  22    0.04    0.50
 -13  -5  22    0.17    0.79
 -13   5  22    0.04    0.52
 -11  -5  22   -0.01    0.64
 -11   5  22    0.47    0.51
  -9  -5  22    0.36    0.61
  -9   5  22    0.09    0.47
   7  -5 -22    1.44    0.40
  -7  -5  22    0.01    0.54
  -7   5  22    0.06    0.45
  -5  -5  22   -0.07    0.48
  -5  -5  22    0.37    0.48
  -5   5  22    0.42    0.43
  -3  -5  22   -0.01    0.46
  -3  -5  22    0.32    0.47
  -3   5  22    0.54    0.42
  -1  -5  22    0.52    0.49
  -1  -5  22    0.49    0.43
  -1   5  22   -0.26    0.38
  -1   5  22    0.66    0.42
   1  -5  22    1.58    0.48
   1  -5  22    2.27    0.54
   1   5  22    1.72    0.45
   1   5  22    1.98    0.44
   3  -5  22    1.26    0.49
   3   5  22    0.56    0.41
  -3   5 -22    1.03    0.53
   3   5  22    1.42    0.43
   5  -5  22    0.72    0.46
   5   5  22    0.23    0.41
   5   5  22    0.26    0.42
  -5   5 -22    0.27    0.53
   7  -5  22    0.16    0.45
  -7   5 -22    0.73    0.54
   7   5  22   -0.02    0.43
   7   5  22   -0.21    0.45
   9  -5  22    0.33    0.46
   9   5  22   -0.59    0.45
   9   5  22   -0.33    0.45
  -9   5 -22    0.09    0.50
  11  -5  22    1.06    0.49
  11   5  22   -0.12    0.51
 -14  -6  22   -0.51    0.48
 -12  -6  22   -0.13    0.71
 -12   6  22   -0.03    0.51
 -10  -6  22   -0.14    0.62
 -10   6  22   -0.14    0.48
  -8  -6  22    0.39    0.57
  -8   6  22    0.34    0.46
   6  -6 -22    0.58    0.40
  -6  -6  22    0.49    0.49
  -6  -6  22   -0.07    0.51
  -6   6  22    0.32    0.45
  -4  -6  22    0.17    0.47
   4  -6 -22    0.28    0.38
  -4  -6  22    0.25    0.48
  -4   6  22    0.47    0.44
  -2  -6  22    0.22    0.44
  -2  -6  22    0.76    0.50
  -2   6  22    0.63    0.44
   0  -6  22    0.80    0.52
   0  -6  22   -0.14    0.41
   0   6  22    0.47    0.41
   2  -6  22    1.07    0.50
   2   6  22    0.09    0.40
   2   6  22    0.60    0.42
   4  -6  22    0.73    0.48
   4   6  22    0.80    0.43
  -4   6 -22    0.53    0.51
   4   6  22   -0.10    0.42
   6  -6  22    0.61    0.45
   6   6  22   -0.32    0.44
  -6   6 -22    0.51    0.54
   6   6  22    0.44    0.45
   8  -6  22    0.32    0.45
   8   6  22   -0.24    0.49
  -8   6 -22    1.01    0.56
   8   6  22   -0.88    0.45
  10  -6  22    0.17    0.47
 -10   6 -22    0.32    0.62
  10   6  22   -0.16    0.56
 -15   7  22    0.63    0.57
 -11  -7  22    0.09    0.67
 -11   7  22    0.32    0.52
  -9  -7  22   -0.34    0.58
  -9   7  22    0.25    0.47
  -7  -7  22   -0.06    0.53
   7  -7 -22    1.13    0.42
  -7   7  22    0.10    0.46
  -5  -7  22    0.63    0.53
  -5  -7  22    0.04    0.49
   5  -7 -22    0.76    0.41
  -5   7  22    0.77    0.45
  -3  -7  22   -0.15    0.47
  -3  -7  22    0.28    0.53
   3  -7 -22    0.56    0.42
  -3   7  22    0.33    0.44
  -1  -7  22    0.17    0.44
   1  -7 -22    0.31    0.44
  -1  -7  22    0.20    0.51
  -1   7  22    0.18    0.43
   1  -7  22   -0.09    0.42
   1  -7  22    0.74    0.51
   1   7  22    0.88    0.45
   3  -7  22    0.02    0.49
   3   7  22    0.64    0.43
   5  -7  22    0.73    0.50
  -5   7 -22    1.28    0.58
   5   7  22    0.41    0.45
   7  -7  22    0.05    0.45
  -7   7 -22    0.24    0.57
   7   7  22    0.37    0.49
   9  -7  22    0.07    0.45
  -9   7 -22    1.51    0.90
 -10  -8  22    0.20    0.76
 -10   8  22   -0.17    0.67
  -8  -8  22    0.07    0.58
  -8   8  22    0.53    0.50
  -6  -8  22    0.30    0.54
   6  -8 -22    1.62    0.45
  -6   8  22    0.36    0.48
  -4  -8  22    1.62    0.60
  -4  -8  22    0.69    0.53
   4  -8 -22    1.34    0.47
  -4   8  22    1.01    0.48
  -2  -8  22    0.42    0.49
  -2  -8  22    0.81    0.56
   2  -8 -22    1.15    0.46
  -2   8  22    0.78    0.47
   0  -8  22    0.99    0.57
   0  -8 -22    0.79    0.50
   0  -8  22    0.27    0.44
   0   8  22    1.05    0.48
  -2  -8 -22    1.77    0.53
   2  -8  22    0.15    0.54
   2   8  22    0.95    0.45
  -4  -8 -22    2.03    0.57
   4  -8  22    1.55    0.55
   4   8  22    1.06    0.48
  -4   8 -22    2.08    0.63
  -6  -8 -22    1.43    0.56
   6  -8  22    0.99    0.51
  -6   8 -22    0.65    0.59
   6   8  22    0.78    0.47
  -8  -8 -22    0.93    0.55
  -7  -9  22   -0.29    0.57
   7  -9 -22    1.13    0.46
  -7   9  22    0.73    0.51
  -5  -9  22    0.91    0.66
  -5  -9  22    0.08    0.55
   5  -9 -22    1.73    0.49
  -5   9  22    0.32    0.49
   3  -9 -22    1.54    0.49
  -3  -9  22    1.04    0.57
  -3  -9  22    0.89    0.55
  -3   9  22    0.91    0.49
  -1  -9  22    1.23    0.65
  -1  -9  22    1.11    0.51
   1  -9 -22    1.71    0.54
  -1   9  22    0.90    0.48
   1  -9  22    1.20    0.61
  -1  -9 -22    0.80    0.52
   1  -9  22    0.14    0.46
   1   9  22    0.36    0.47
   3  -9  22    0.84    0.55
  -3  -9 -22    0.76    0.53
   3   9  22   -0.04    0.46
   5  -9  22    0.81    0.52
  -5  -9 -22    0.85    0.56
  -5   9 -22    0.50    0.58
   5   9  22    0.51    0.47
  12  10 -22    0.52    0.35
   6 -10 -22    1.22    0.51
   4 -10 -22    2.14    0.52
  -4 -10  22    1.91    0.72
  -4 -10  22    1.02    0.56
  -4  10  22    1.08    0.51
   2 -10 -22    1.99    0.58
  -2 -10  22    0.93    0.72
  -2 -10  22    0.87    0.54
  -2  10  22    1.02    0.49
   0 -10 -22    2.13    0.59
   0 -10  22    0.15    0.47
   0 -10  22    0.74    0.67
   0  10  22    0.60    0.48
   2 -10  22    1.19    0.60
  -2 -10 -22    2.43    0.61
   2  10  22    0.72    0.48
   7 -11 -22    2.14    0.60
  -5 -11  22    0.40    0.82
   5 -11 -22    1.79    0.67
  -3 -11  22    1.06    0.79
  -1 -11  22    0.43    0.70
  -6   0  23    0.48    0.36
  -4   0  23    0.03    0.59
  -4   0  23    0.31    0.39
  -2   0  23   -0.20    0.43
  -2   0  23    0.12    0.38
   0   0 -23    0.37    0.46
   0   0  23    0.30    0.43
   0   0  23    0.07    0.37
   2   0  23    0.46    0.39
  -2   0 -23    0.78    0.46
   2   0  23    0.75    0.36
   4   0  23    0.47    0.40
  -4   0 -23    0.26    0.47
   4   0  23    0.38    0.36
   6   0  23    0.47    0.41
  -6   0 -23    1.09    0.51
   6   0  23    0.65    0.41
  -8   0 -23    0.86    0.52
   8   0  23   -0.24    0.42
   8   0  23    0.39    0.44
  10   0  23    0.66    0.46
 -10   0 -23    1.25    0.55
  10   0  23    0.38    0.45
 -12   0 -23    1.48    0.58
  12   0  23    0.69    0.48
  12   0  23   -0.45    0.49
 -17   1  23   -0.42    0.51
 -15  -1  23    0.11    0.48
  -9  -1  23    0.40    0.71
  -9   1  23    0.21    0.46
  -7  -1  23    0.14    0.51
  -7   1  23   -0.15    0.40
  -5  -1  23    0.39    0.38
  -5  -1  23    0.49    0.47
  -5   1  23    0.44    0.37
  -5   1  23   -0.22    0.38
  -3  -1  23    0.06    0.38
  -3  -1  23    0.08    0.44
  -3   1  23    0.39    0.38
  -3   1  23    0.42    0.39
   1  -1 -23   -0.06    0.43
  -1  -1  23    0.48    0.40
  -1   1  23    0.50    0.41
  -1   1  23    0.74    0.39
   1  -1  23    0.33    0.41
  -1  -1 -23    0.44    0.44
   1   1  23   -0.32    0.38
   1   1  23    0.42    0.37
  -1   1 -23   -0.26    0.45
   3  -1  23    1.82    0.46
  -3  -1 -23    1.80    0.51
   3   1  23    1.94    0.46
  -3   1 -23    2.47    0.57
   3   1  23    2.10    0.43
   5  -1  23    0.63    0.43
  -5  -1 -23    0.79    0.49
   5   1  23    0.54    0.40
  -5   1 -23    0.64    0.50
   5   1  23    0.41    0.41
   7  -1  23    1.39    0.47
  -7  -1 -23    1.69    0.56
   7  -1  23    0.93    0.63
   7   1  23    1.32    0.47
   7   1  23    1.52    0.45
  -7   1 -23    2.27    0.57
   9  -1  23    0.82    0.46
   9  -1  23    0.58    0.49
  -9  -1 -23    1.13    0.54
   9   1  23    0.62    0.51
   9   1  23    0.84    0.47
  -9   1 -23    1.71    0.56
  11  -1  23   -0.40    0.49
 -11  -1 -23    1.88    0.55
  11  -1  23    0.55    0.45
  11   1  23    0.12    0.44
  11   1  23    0.18    0.52
  13  -1  23    0.21    0.57
 -16  -2  23    0.48    0.53
 -16   2  23   -0.64    0.50
 -12  -2  23   -0.46    0.73
 -12   2  23    0.33    0.50
 -10  -2  23    0.22    0.56
 -10   2  23   -0.22    0.46
  -8  -2  23   -0.17    0.51
  -8   2  23    0.23    0.43
  -6  -2  23    0.10    0.38
  -6  -2  23   -0.01    0.50
  -6   2  23    0.25    0.42
  -6   2  23    0.02    0.37
  -4  -2  23    1.51    0.51
  -4  -2  23    1.60    0.44
  -4   2  23    2.05    0.44
  -4   2  23    1.36    0.42
  -2  -2  23    0.58    0.45
  -2  -2  23    0.61    0.40
  -2   2  23    0.66    0.41
  -2   2  23    0.60    0.40
   0  -2  23    0.61    0.41
   0   2  23    0.29    0.38
   0   2  23    0.10    0.38
   2  -2  23    0.54    0.42
   2   2  23    0.90    0.41
   2   2  23    1.26    0.41
  -2   2 -23    0.85    0.51
  -4  -2 -23    1.32    0.51
   4  -2  23    1.20    0.44
   4   2  23    1.20    0.42
   4   2  23    1.38    0.45
  -4   2 -23    1.16    0.54
   6  -2  23    0.09    0.42
  -6  -2 -23    0.77    0.51
   6   2  23    0.36    0.43
   6   2  23   -0.04    0.41
  -6   2 -23    0.59    0.49
  -8  -2 -23    2.51    0.58
   8  -2  23    0.91    0.47
   8   2  23    1.91    0.50
  -8   2 -23    1.81    0.59
   8   2  23    1.64    0.51
 -10  -2 -23    2.12    0.56
  10  -2  23    0.68    0.48
  10   2  23    1.10    0.49
  10   2  23    0.54    0.48
 -10   2 -23    2.06    0.59
 -12  -2 -23    1.95    0.54
  12  -2  23    0.94    0.50
  12   2  23    1.23    0.52
  12   2  23    0.47    0.60
 -17  -3  23   -0.52    0.54
 -15  -3  23   -0.06    0.95
 -13  -3  23    0.37    0.74
 -13   3  23    0.02    0.51
 -11  -3  23    0.35    0.65
 -11   3  23    0.81    0.50
  -9  -3  23    0.00    0.55
  -9   3  23    0.41    0.46
  -7  -3  23    0.04    0.53
  -7   3  23    0.05    0.43
  -5  -3  23    0.23    0.49
  -5  -3  23    0.95    0.41
  -5   3  23    0.39    0.40
  -5   3  23    0.75    0.43
  -3  -3  23    1.46    0.45
  -3  -3  23    1.34    0.51
  -3   3  23    1.38    0.45
  -3   3  23    1.92    0.45
  -1  -3  23    1.10    0.47
  -1  -3  23    1.45    0.46
  -1   3  23    1.45    0.43
  -1   3  23    1.24    0.43
   1  -3  23    1.30    0.46
   1   3  23    1.16    0.42
   1   3  23    1.45    0.44
   3  -3  23    1.36    0.46
   3   3  23    1.03    0.42
  -3   3 -23    1.13    0.52
   3   3  23    0.82    0.43
   5  -3  23    0.86    0.45
   5   3  23    1.09    0.44
   5   3  23    0.88    0.44
  -5   3 -23    1.18    0.55
   7  -3  23    0.90    0.47
   7   3  23    0.35    0.46
   7   3  23    0.96    0.47
  -7   3 -23    1.86    0.59
  -9  -3 -23    1.98    0.58
   9  -3  23    1.40    0.51
   9   3  23    0.36    0.50
  -9   3 -23    1.36    0.58
   9   3  23    0.56    0.47
  11  -3  23    1.27    0.51
 -11   3 -23    2.67    0.89
  11   3  23    0.96    0.53
  11   3  23    1.06    0.51
 -13  -3 -23    2.77    0.75
 -14  -4  23   -0.42    0.81
 -12  -4  23    0.31    0.66
 -12   4  23    0.15    0.51
 -10  -4  23    0.08    0.62
 -10   4  23    0.01    0.48
  -8  -4  23   -0.33    0.54
  -8   4  23   -0.08    0.45
  -6  -4  23    1.72    0.45
  -6  -4  23    1.59    0.59
  -6   4  23    1.25    0.47
  -4  -4  23    0.70    0.51
  -4  -4  23    1.47    0.44
  -4   4  23    1.17    0.45
  -4   4  23    0.78    0.43
  -2  -4  23    0.42    0.47
  -2  -4  23    0.83    0.44
  -2   4  23    0.83    0.44
  -2   4  23    1.19    0.44
   0  -4  23    1.34    0.49
   0  -4  23    1.15    0.45
   0   4  23    1.29    0.44
   0   4  23    1.04    0.43
   2  -4  23    1.15    0.46
   2   4  23    1.13    0.44
   2   4  23    1.30    0.43
   4  -4  23    1.24    0.47
  -4   4 -23    0.76    0.53
   4   4  23    0.93    0.45
   4   4  23    1.10    0.44
   6  -4  23    1.45    0.48
   6   4  23    1.21    0.47
   6   4  23    1.02    0.48
  -6   4 -23    1.82    0.61
   8  -4  23    1.34    0.50
   8   4  23    1.04    0.50
   8   4  23    1.09    0.50
  -8   4 -23    1.12    0.58
  10  -4  23    1.55    0.52
 -10   4 -23    1.60    0.61
  10   4  23    0.56    0.52
  10   4  23    0.60    0.51
 -15  -5  23   -0.55    0.50
 -13  -5  23    0.15    0.88
 -11  -5  23   -0.24    0.72
 -11   5  23   -0.21    0.50
  -9  -5  23    0.42    0.61
  -9   5  23    0.17    0.47
  -7  -5  23    0.56    0.58
   7  -5 -23    1.32    0.41
  -7   5  23    0.53    0.48
  -5  -5  23    1.71    0.58
  -5  -5  23    2.22    0.49
  -5   5  23    2.33    0.50
  -3  -5  23    0.78    0.50
  -3  -5  23    1.37    0.53
  -3   5  23   -0.47    0.43
  -3   5  23    1.19    0.46
  -1  -5  23    1.11    0.54
  -1  -5  23    0.74    0.46
  -1   5  23    1.45    0.45
  -1   5  23   -0.35    0.40
   1  -5  23    1.42    0.52
   1   5  23    0.76    0.43
   1   5  23    0.31    0.40
   3  -5  23    1.18    0.52
   3   5  23    1.17    0.44
  -3   5 -23    0.79    0.53
   3   5  23    0.65    0.43
   5  -5  23    1.38    0.51
   5   5  23    1.77    0.48
   5   5  23    1.35    0.46
  -5   5 -23    1.76    0.61
   7  -5  23    1.39    0.51
   7   5  23    1.08    0.49
   7   5  23    0.49    0.46
  -7   5 -23    2.21    0.62
   9  -5  23    0.54    0.50
   9   5  23    1.09    0.50
  -9   5 -23    1.29    0.58
   9   5  23    0.47    0.52
 -10  -6  23   -0.47    0.65
 -10   6  23   -0.23    0.49
  -8  -6  23    0.88    0.61
  -8   6  23    0.50    0.48
   6  -6 -23    1.22    0.42
  -6  -6  23    0.59    0.54
  -6   6  23    0.51    0.47
   4  -6 -23    1.35    0.42
  -4  -6  23    0.53    0.50
  -4  -6  23    1.27    0.55
  -4   6  23    0.77    0.46
  -2  -6  23    0.75    0.48
  -2  -6  23    1.63    0.55
  -2   6  23    1.36    0.48
   0  -6  23    1.08    0.47
   0  -6  23    1.52    0.57
   0   6  23    1.68    0.47
   2  -6  23    1.57    0.53
   2   6  23    0.47    0.44
   2   6  23    1.51    0.45
   4  -6  23    0.96    0.50
   4   6  23    1.27    0.46
  -4   6 -23    2.01    0.59
   4   6  23    0.36    0.46
   6  -6  23    0.68    0.48
   6   6  23    0.39    0.46
  -6   6 -23    1.25    0.59
   6   6  23   -0.22    0.46
   8  -6  23    0.65    0.49
   8   6  23   -0.35    0.49
   8   6  23    0.33    0.50
  -8   6 -23    1.54    0.61
 -15  -7  23    1.13    0.57
  -9  -7  23   -0.07    0.60
  -9   7  23    0.52    0.49
  -7  -7  23    0.65    0.58
   7  -7 -23    1.34    0.43
  -7   7  23    0.66    0.49
   5  -7 -23    1.13    0.43
  -5  -7  23    0.15    0.52
  -5  -7  23    0.09    0.54
  -5   7  23    0.56    0.46
  -3  -7  23    1.10    0.56
   3  -7 -23    1.09    0.44
  -3  -7  23    0.27    0.49
  -3   7  23    0.80    0.46
  -1  -7  23    1.19    0.56
   1  -7 -23    1.67    0.49
  -1  -7  23    0.63    0.48
  -1   7  23    1.17    0.47
   1  -7  23    0.66    0.47
   1  -7  23    1.50    0.55
   1   7  23    1.21    0.46
   3  -7  23    1.66    0.55
  -3   7 -23    1.91    0.59
   3   7  23    1.29    0.48
   5  -7  23    0.88    0.53
  -5   7 -23    0.98    0.56
   5   7  23    0.64    0.49
   7  -7  23    0.50    0.48
   7   7  23    0.35    0.50
  -7   7 -23    0.94    0.60
  -8  -8  23    0.28    0.63
  -8   8  23    0.33    0.55
  -6  -8  23   -0.08    0.56
   6  -8 -23    1.83    0.45
  -6   8  23    0.16    0.49
  -4  -8  23    0.23    0.61
   4  -8 -23    0.64    0.43
  -4  -8  23    0.19    0.51
  -4   8  23    0.31    0.48
  -2  -8  23    1.28    0.63
   2  -8 -23    1.24    0.48
  -2  -8  23    0.73    0.52
  -2   8  23    0.70    0.48
   0  -8  23    1.11    0.50
   0  -8 -23    1.87    0.53
   0  -8  23    2.26    0.61
   0   8  23    1.93    0.50
   2  -8  23    0.37    0.56
  -2  -8 -23    1.02    0.50
   2   8  23    0.79    0.48
  -4  -8 -23    1.13    0.55
   4  -8  23    0.52    0.52
   4   8  23    0.45    0.47
  -4   8 -23    0.39    0.54
  -6  -8 -23    0.85    0.65
   7  -9 -23    2.01    0.49
   5  -9 -23    1.38    0.48
  -5  -9  23    0.78    0.66
  -5  -9  23    0.37    0.59
  -5   9  23    0.15    0.55
   3  -9 -23    1.38    0.49
  -3  -9  23   -0.02    0.52
  -3  -9  23    0.83    0.68
  -3   9  23    0.18    0.48
   1  -9 -23    1.52    0.54
  -1  -9  23    0.47    0.51
  -1  -9  23    0.00    0.64
  -1   9  23    0.82    0.50
   1  -9  23    0.75    0.61
   1  -9  23    0.20    0.48
  -1  -9 -23    1.37    0.54
   1   9  23    1.01    0.50
   3  -9  23   -0.01    0.56
  -3  -9 -23    0.96    0.57
   3   9  23    0.61    0.57
   6 -10 -23    1.91    0.54
   4 -10 -23    1.44    0.53
  -4 -10  23    0.98    0.72
   2 -10 -23    1.94    0.61
  -2 -10  23    0.63    0.66
   0 -10  23    0.74    0.71
  -6   0  24    1.12    0.39
  -4   0  24    1.02    0.43
  -2   0  24    1.22    0.44
   0   0  24    2.31    0.46
   0   0 -24    1.99    0.52
  -2   0 -24    1.50    0.51
   2   0  24    1.03    0.45
   2   0  24    1.18    0.43
   4   0  24    3.32    0.53
   4   0  24    4.22    0.52
  -4   0 -24    2.82    0.59
   6   0  24    1.47    0.46
  -6   0 -24    1.79    0.56
   6   0  24    1.23    0.47
   8   0  24    1.04    0.48
  -8   0 -24    1.15    0.53
   8   0  24    0.72    0.45
  10   0  24    1.32    0.51
 -10   0 -24    1.84    0.56
  10   0  24    0.80    0.48
  12   0  24   -0.49    0.55
 -17  -1  24    0.37    0.54
  -7  -1  24    0.37    0.66
  -7   1  24    0.66    0.56
  -5  -1  24    0.58    0.49
  -5  -1  24    1.05    0.41
  -5   1  24    0.81    0.43
  -5   1  24    0.66    0.41
  -3  -1  24    0.45    0.45
  -3  -1  24    0.98    0.42
  -3   1  24    0.61    0.41
  -3   1  24    0.92    0.41
  -1  -1  24    2.19    0.48
  -1   1  24    1.96    0.45
  -1   1  24    2.02    0.47
   1  -1  24    1.00    0.42
  -1  -1 -24    1.27    0.51
  -1   1 -24    0.83    0.49
   1   1  24    1.17    0.43
   1   1  24    0.99    0.41
  -3  -1 -24    1.05    0.49
   3  -1  24    0.65    0.43
   3   1  24    0.92    0.44
  -3   1 -24    0.33    0.50
   3   1  24    0.71    0.39
  -5  -1 -24    2.19    0.57
   5  -1  24    1.44    0.49
   5   1  24    2.52    0.48
  -5   1 -24    2.36    0.57
   5   1  24    2.55    0.51
   7  -1  24    1.12    0.48
  -7  -1 -24    2.43    0.58
   7   1  24    1.61    0.48
  -7   1 -24    2.23    0.59
   7   1  24    1.06    0.48
   9  -1  24    1.25    0.50
  -9  -1 -24    2.32    0.58
   9   1  24    1.35    0.50
   9   1  24    0.56    0.54
  -9   1 -24    2.34    0.57
 -11  -1 -24    1.69    0.56
 -11   1 -24    2.15    0.78
  11   1  24    0.69    0.51
 -12   2  24    1.24    0.63
 -10  -2  24    0.56    0.61
 -10   2  24    1.16    0.50
  -8  -2  24    0.47    0.56
  -8   2  24    1.04    0.46
  -6  -2  24    0.48    0.52
  -6  -2  24    0.85    0.45
  -6   2  24   -0.16    0.39
  -6   2  24    0.28    0.44
  -4  -2  24    0.83    0.42
  -4  -2  24    0.38    0.49
  -4   2  24    1.18    0.43
  -4   2  24    1.01    0.43
  -2  -2  24    1.04    0.43
  -2  -2  24    1.17    0.49
  -2   2  24    1.12    0.44
  -2   2  24    1.64    0.44
   0  -2  24    1.12    0.44
   0   2  24    1.34    0.44
   0   2  24    1.44    0.43
   2  -2  24    0.67    0.43
   2   2  24    0.68    0.43
  -2   2 -24    0.56    0.49
   2   2  24    1.03    0.41
   4  -2  24    0.49    0.44
   4   2  24    0.62    0.44
   4   2  24    0.96    0.42
  -4   2 -24    0.45    0.52
   6  -2  24    1.76    0.50
  -6  -2 -24    2.84    0.67
  -6   2 -24    2.71    0.62
   6   2  24    1.36    0.48
   6   2  24    2.01    0.50
   8  -2  24    1.51    0.50
  -8  -2 -24    2.04    0.56
  -8   2 -24    1.34    0.57
   8   2  24    0.68    0.48
   8   2  24    1.55    0.50
 -10  -2 -24    1.90    0.57
  10  -2  24    1.35    0.50
  10   2  24    0.65    0.53
  10   2  24    0.80    0.50
 -10   2 -24    1.81    0.57
 -12  -2 -24    2.31    0.77
 -13  -3  24    0.35    0.77
 -13   3  24    0.30    0.54
 -11  -3  24    0.27    0.68
 -11   3  24    0.22    0.51
  -9  -3  24    0.17    0.59
  -9   3  24   -0.03    0.47
  -7  -3  24    0.52    0.56
  -7   3  24    0.79    0.47
  -5  -3  24    0.26    0.50
  -5  -3  24    0.57    0.42
  -5   3  24    0.08    0.42
  -5   3  24    0.49    0.44
  -3  -3  24    0.07    0.47
  -3  -3  24    0.57    0.44
  -3   3  24    0.28    0.43
  -3   3  24    0.26    0.42
  -1  -3  24    1.58    0.49
  -1  -3  24    0.81    0.50
  -1   3  24    1.10    0.44
  -1   3  24    1.62    0.46
   1  -3  24    0.54    0.43
   1   3  24    0.08    0.41
   1   3  24    0.49    0.41
   3  -3  24    0.78    0.47
  -3   3 -24    0.13    0.49
   3   3  24    0.32    0.43
   3   3  24    1.08    0.42
   5  -3  24    1.07    0.49
  -5   3 -24    1.62    0.59
   5   3  24    0.60    0.44
   5   3  24    1.68    0.46
   7  -3  24    1.13    0.49
   7   3  24    1.14    0.49
  -7   3 -24    1.69    0.57
   7   3  24    1.23    0.49
   9  -3  24    1.03    0.51
   9   3  24    0.50    0.48
  -9   3 -24    1.51    0.59
   9   3  24    0.84    0.50
 -16  -4  24    0.15    0.57
 -12  -4  24   -0.64    0.74
 -12   4  24    0.29    0.53
 -10  -4  24    0.47    0.68
 -10   4  24    0.54    0.50
  -8  -4  24    0.20    0.58
  -8   4  24    0.35    0.48
  -6  -4  24    0.28    0.55
  -6   4  24    0.72    0.47
  -4  -4  24    0.40    0.51
  -4  -4  24    0.43    0.44
  -4   4  24    0.89    0.46
  -4   4  24   -0.02    0.42
  -2  -4  24    0.39    0.45
  -2  -4  24    0.20    0.48
  -2   4  24    0.54    0.45
  -2   4  24   -0.11    0.41
   0  -4  24    0.18    0.44
   0  -4  24   -0.13    0.46
   0   4  24    0.54    0.44
   0   4  24    0.20    0.43
   2  -4  24    1.39    0.46
   2   4  24    0.86    0.46
   2   4  24    1.13    0.45
  -2   4 -24    0.70    0.52
   4  -4  24    1.24    0.48
   4   4  24    1.40    0.49
   4   4  24    0.65    0.44
  -4   4 -24    1.32    0.60
   6  -4  24    0.01    0.44
   6   4  24   -0.17    0.45
   6   4  24   -0.18    0.45
  -6   4 -24    0.74    0.56
   8  -4  24    0.87    0.49
  -8   4 -24    1.77    0.58
   8   4  24    0.46    0.49
   8   4  24    0.79    0.50
 -11  -5  24    0.38    0.76
 -11   5  24    0.00    0.53
  -9  -5  24    0.66    0.65
  -9   5  24    0.07    0.49
   7  -5 -24    0.85    0.50
  -7  -5  24    0.36    0.59
  -7   5  24    0.14    0.47
  -5  -5  24    0.03    0.53
  -5  -5  24    0.22    0.45
  -5   5  24    0.11    0.46
  -3  -5  24    0.07    0.50
  -3  -5  24    0.18    0.46
  -3   5  24    0.27    0.46
  -3   5  24   -1.04    0.43
  -1  -5  24    1.31    0.49
  -1  -5  24    0.22    0.45
  -1   5  24    0.24    0.44
  -1   5  24   -0.08    0.41
   1  -5  24    0.96    0.45
   1   5  24   -0.31    0.41
   1   5  24    0.92    0.45
   3  -5  24    1.37    0.50
   3   5  24    1.46    0.46
   3   5  24    0.73    0.46
  -3   5 -24    1.60    0.59
   5  -5  24    0.10    0.48
   5   5  24    0.35    0.43
   5   5  24   -0.02    0.44
  -5   5 -24    0.62    0.58
   7  -5  24    0.42    0.49
   7   5  24    0.00    0.45
   7   5  24    0.36    0.47
  -7   5 -24    0.87    0.56
 -10  -6  24   -0.37    0.74
 -10   6  24    0.69    0.54
  -8  -6  24   -0.02    0.61
  -8   6  24   -0.02    0.48
   6  -6 -24    0.96    0.40
  -6  -6  24   -0.15    0.55
  -6   6  24    0.28    0.48
  -4  -6  24    0.93    0.55
  -4  -6  24    0.10    0.52
   4  -6 -24    1.17    0.42
  -4   6  24    0.49    0.46
  -2  -6  24    0.31    0.52
  -2  -6  24   -0.12    0.46
  -2   6  24    0.08    0.45
   0  -6  24    0.54    0.47
   0  -6  24    1.21    0.55
   0   6  24    0.49    0.45
   2  -6  24    1.52    0.55
   2   6  24    0.93    0.45
   4  -6  24    0.51    0.52
  -4   6 -24    0.50    0.53
   4   6  24   -0.15    0.46
   4   6  24    0.42    0.43
   6  -6  24    0.67    0.50
   6   6  24    0.82    0.48
  -6   6 -24    0.25    0.57
   6   6  24   -0.49    0.47
  -7  -7  24   -0.31    0.57
   7  -7 -24    0.95    0.47
  -7   7  24   -0.03    0.49
  -5  -7  24    0.06    0.53
  -5  -7  24    0.62    0.58
   5  -7 -24    0.78    0.41
  -5   7  24    0.22    0.47
   3  -7 -24    0.86    0.43
  -3  -7  24   -0.02    0.50
  -3  -7  24    0.09    0.54
  -3   7  24    0.60    0.47
  -1  -7  24   -0.15    0.53
   1  -7 -24    0.59    0.45
  -1  -7  24    0.25    0.47
  -1   7  24    0.74    0.47
   1  -7  24    0.04    0.52
   1   7  24   -0.07    0.44
   3  -7  24    0.93    0.56
  -3   7 -24    1.12    0.58
   3   7  24    1.13    0.48
   5  -7  24    0.58    0.53
  -5   7 -24    0.58    0.61
   5   7  24    0.71    0.49
  -6  -8  24    0.07    0.75
   6  -8 -24    1.64    0.46
  -4  -8  24   -0.02    0.55
   4  -8 -24    1.27    0.45
  -4  -8  24    1.18    0.62
  -4   8  24    0.46    0.48
  -2  -8  24    1.38    0.66
  -2  -8  24    0.69    0.53
   2  -8 -24    1.06    0.47
  -2   8  24    0.25    0.47
   0  -8  24    0.94    0.58
   0  -8  24   -0.14    0.48
   0  -8 -24    0.67    0.48
   0   8  24    0.32    0.48
  -2  -8 -24    1.60    0.54
   2  -8  24    1.47    0.59
   2   8  24    1.15    0.51
   7  -9 -24    1.84    0.56
   5  -9 -24    2.36    0.52
  -3  -9  24    0.68    0.71
   3  -9 -24    1.97    0.51
  -1  -9  24   -0.04    0.66
   1  -9 -24    0.97    0.55
  -4 -10  24    1.03    0.80
  -6   0  25    0.84    0.63
  -4   0  25   -0.03    0.43
  -2   0  25    0.34    0.43
   0   0  25   -0.15    0.39
   0   0 -25   -0.25    0.45
   2   0  25    0.37    0.41
  -2   0 -25    0.55    0.50
  -4   0 -25    0.79    0.49
   4   0  25    0.85    0.44
  -6   0 -25    0.83    0.52
   6   0  25    0.58    0.46
  -8   0 -25    1.35    0.55
   8   0  25    0.50    0.47
 -10   0 -25    1.30    0.56
  -5  -1  25   -0.02    0.55
  -5  -1  25    0.69    0.42
  -5   1  25    0.37    0.40
  -3  -1  25   -0.17    0.46
  -3  -1  25    1.11    0.44
  -3   1  25    0.19    0.53
  -3   1  25    0.10    0.42
  -1  -1  25    0.77    0.43
  -1   1  25    0.37    0.42
  -1   1  25    0.74    0.45
   1  -1  25    1.02    0.43
  -1   1 -25    0.10    0.49
   1   1  25    0.68    0.42
   1   1  25    1.22    0.43
   3  -1  25    0.92    0.45
  -3  -1 -25    0.92    0.57
  -3   1 -25    0.95    0.53
   3   1  25    0.84    0.46
   3   1  25    0.96    0.42
   5  -1  25    0.79    0.46
  -5  -1 -25    1.20    0.54
   5   1  25    0.37    0.45
   5   1  25    0.62    0.43
  -5   1 -25    0.99    0.51
   7  -1  25    0.37    0.46
  -7  -1 -25    1.37    0.53
  -7   1 -25    1.70    0.56
   7   1  25    0.43    0.50
   7   1  25    1.13    0.50
  -9  -1 -25    1.99    0.56
   9   1  25    0.29    0.55
  -9   1 -25    1.45    0.56
 -10   2  25    0.76    0.73
  -8  -2  25    0.72    0.59
  -8   2  25    0.32    0.49
  -6  -2  25    0.07    0.52
  -6   2  25    0.43    0.46
  -6   2  25   -0.22    0.42
  -4  -2  25    0.41    0.50
  -4  -2  25    0.58    0.44
  -4   2  25    0.36    0.43
  -4   2  25    0.33    0.43
  -2  -2  25   -0.17    0.47
  -2  -2  25    0.32    0.45
  -2   2  25    0.42    0.44
  -2   2  25    0.83    0.44
   0  -2  25    0.30    0.43
   0   2  25    0.20    0.41
   0   2  25    0.30    0.43
   2  -2  25    1.41    0.47
   2   2  25    1.36    0.45
   2   2  25    1.04    0.44
  -2   2 -25    1.33    0.54
   4  -2  25    0.45    0.47
   4   2  25    1.31    0.45
  -4   2 -25    1.42    0.57
   4   2  25    0.59    0.46
   6  -2  25    0.84    0.48
   6   2  25    0.94    0.47
  -6   2 -25    1.09    0.52
   6   2  25    0.28    0.46
   8  -2  25    0.38    0.48
  -8  -2 -25    2.04    0.90
  -8   2 -25    1.55    0.58
   8   2  25    0.07    0.50
   8   2  25    1.22    0.52
 -10  -2 -25    2.05    0.58
 -11  -3  25    0.39    0.64
 -11   3  25    0.64    0.54
  -9  -3  25   -0.14    0.58
  -9   3  25    0.64    0.50
  -7  -3  25    0.43    0.55
  -7   3  25    0.14    0.47
  -5  -3  25    0.34    0.53
  -5  -3  25    0.81    0.45
  -5   3  25    0.17    0.45
  -5   3  25    0.39    0.43
  -3  -3  25    1.23    0.48
  -3  -3  25    0.22    0.49
  -3   3  25    0.61    0.46
  -3   3  25    1.53    0.47
  -1  -3  25    0.16    0.50
  -1  -3  25    1.22    0.48
  -1   3  25    1.06    0.45
  -1   3  25    0.83    0.45
   1  -3  25    0.67    0.45
   1   3  25    0.68    0.45
   1   3  25    0.54    0.44
  -1   3 -25    0.68    0.52
   3  -3  25    1.08    0.49
   3   3  25    1.24    0.44
   3   3  25    1.18    0.47
  -3   3 -25    1.17    0.55
   5  -3  25    0.36    0.48
   5   3  25    0.79    0.46
   5   3  25    0.89    0.47
  -5   3 -25    0.80    0.57
   7  -3  25    0.51    0.48
   7   3  25    0.24    0.48
  -7   3 -25    1.73    0.58
   7   3  25    0.36    0.49
   9   3  25    0.74    0.66
 -10  -4  25    0.35    0.64
 -10   4  25    0.51    0.52
  -8  -4  25    0.42    0.60
  -8   4  25    1.20    0.51
  -6  -4  25    0.23    0.55
  -6   4  25    0.94    0.49
  -4  -4  25    0.33    0.52
  -4  -4  25    0.74    0.48
  -4   4  25    0.85    0.47
  -4   4  25   -0.37    0.42
  -2  -4  25    0.90    0.48
  -2  -4  25    0.49    0.50
  -2   4  25    0.81    0.46
  -2   4  25    0.70    0.44
   0  -4  25    0.51    0.46
   0   4  25    0.41    0.44
   0   4  25    0.59    0.45
   2  -4  25    1.36    0.49
  -2   4 -25    1.04    0.55
   2   4  25    1.34    0.48
   2   4  25    1.76    0.47
   4  -4  25    2.00    0.53
   4   4  25    1.59    0.48
   4   4  25    0.96    0.49
  -4   4 -25    1.52    0.60
   6  -4  25    0.45    0.48
   6   4  25    0.51    0.48
  -6   4 -25    1.47    0.60
   6   4  25    0.37    0.48
   8   4  25    0.23    0.63
  -9  -5  25    0.04    0.67
  -9   5  25    0.30    0.53
  -7  -5  25    0.92    0.67
  -7   5  25    0.81    0.51
  -5  -5  25    1.01    0.58
  -5  -5  25    1.75    0.51
  -5   5  25    0.54    0.49
  -3  -5  25    0.61    0.53
  -3  -5  25    0.66    0.49
  -3   5  25    0.89    0.48
  -1  -5  25    0.81    0.48
  -1  -5  25    0.04    0.48
  -1   5  25   -0.58    0.43
  -1   5  25    0.71    0.47
   1  -5  25    1.56    0.50
   1   5  25    0.82    0.46
   1   5  25    1.17    0.47
   3  -5  25    2.88    0.57
   3   5  25    2.61    0.51
  -3   5 -25    1.45    0.59
   3   5  25    1.02    0.50
   5  -5  25    1.64    0.54
  -5   5 -25    1.43    0.61
   5   5  25    1.14    0.49
   5   5  25    1.63    0.49
  -8  -6  25    0.41    0.66
  -8   6  25    0.99    0.53
  -6  -6  25    0.94    0.64
   6  -6 -25    1.48    0.43
  -6   6  25    1.17    0.52
  -4  -6  25   -0.23    0.52
  -4  -6  25    0.68    0.53
   4  -6 -25    0.70    0.39
  -4   6  25    0.55    0.47
  -2  -6  25    0.64    0.60
  -2  -6  25   -0.22    0.49
  -2   6  25    0.09    0.46
   0  -6  25    0.44    0.49
   0  -6  25    1.70    0.62
   0   6  25    1.48    0.48
   2  -6  25    0.81    0.57
   2   6  25    0.63    0.46
  -2   6 -25    1.35    0.59
   4  -6  25    1.34    0.56
  -4   6 -25    1.86    0.63
   4   6  25    1.73    0.49
   4   6  25   -0.12    0.49
  -5  -7  25    1.46    0.84
   5  -7 -25    1.45    0.44
  -5  -7  25    0.17    0.58
  -5   7  25    1.11    0.51
  -3  -7  25    0.66    0.54
  -3  -7  25    1.28    0.63
   3  -7 -25    1.00    0.44
  -3   7  25    0.54    0.48
  -1  -7  25    0.96    0.61
  -1  -7  25   -0.06    0.49
   1  -7 -25    1.38    0.49
  -1   7  25    1.37    0.50
   1  -7  25    1.02    0.60
   1   7  25    0.30    0.47
   3  -7  25    0.93    0.70
   6  -8 -25    2.14    0.48
   4  -8 -25    1.01    0.47
  -4  -8  25    0.43    0.63
  -2  -8  25    1.57    0.69
   2  -8 -25    0.88    0.47
   0  -8  25    0.76    0.63
  -4   0  26    0.50    0.45
  -2   0  26    1.51    0.49
   0   0  26    0.57    0.44
  -2   0 -26    0.52    0.52
   2   0  26    0.51    0.44
  -4   0 -26    3.05    0.57
   4   0  26    2.42    0.53
  -6   0 -26    1.82    0.58
   6   0  26    0.90    0.49
  -8   0 -26    2.49    0.60
  -5  -1  26    1.07    0.46
  -5   1  26    0.57    0.44
  -3  -1  26   -0.19    0.60
  -3  -1  26    0.96    0.46
  -3   1  26    0.82    0.45
  -1  -1  26    1.25    0.45
  -1   1  26    0.91    0.45
   1  -1  26    0.43    0.42
   1   1  26    0.54    0.43
  -1   1 -26    0.95    0.53
   3  -1  26    1.61    0.48
   3   1  26    1.72    0.49
  -3   1 -26    1.65    0.57
   3   1  26    1.46    0.52
   5  -1  26    1.19    0.48
  -5   1 -26    0.64    0.49
   5   1  26    0.74    0.47
   5   1  26    1.02    0.51
  -7  -1 -26    2.69    0.60
  -7   1 -26    2.08    0.59
   7   1  26    0.55    0.51
  -9  -1 -26    2.42    0.57
   9   1  26    0.97    0.55
  -6  -2  26    0.00    0.54
  -6   2  26    0.23    0.55
  -4  -2  26    1.10    0.48
  -4  -2  26    0.36    0.51
  -4   2  26    1.10    0.48
  -4   2  26    0.39    0.45
  -2  -2  26    0.70    0.47
  -2  -2  26   -0.10    0.50
  -2   2  26    0.34    0.44
  -2   2  26    0.38    0.44
   0  -2  26    0.24    0.42
   0   2  26    0.50    0.43
   0   2 -26    0.53    0.51
   0   2  26    1.04    0.45
   2  -2  26    0.47    0.45
   2   2  26    0.42    0.44
   2   2  26    0.20    0.43
  -2   2 -26    1.13    0.54
   4  -2  26    0.52    0.48
  -4   2 -26    1.45    0.56
   4   2  26    0.95    0.48
   4   2  26    0.82    0.47
   6  -2  26    0.78    0.58
  -6   2 -26    2.23    0.58
   6   2  26    1.74    0.63
   6   2  26    1.16    0.49
   8   2  26    0.97    0.58
 -11   3  26   -0.26    0.62
  -9  -3  26   -0.31    0.63
  -9   3  26   -0.45    0.51
  -7  -3  26    0.09    0.58
  -7   3  26    0.53    0.50
  -5  -3  26    0.48    0.55
  -5  -3  26    0.44    0.47
  -5   3  26   -0.83    0.42
  -5   3  26   -0.12    0.46
  -3  -3  26    0.13    0.50
  -3  -3  26    0.74    0.47
  -3   3  26    0.05    0.48
  -3   3  26    0.44    0.47
  -1  -3  26    0.53    0.47
  -1   3  26    0.76    0.47
  -1   3  26    0.27    0.44
   1  -3  26    0.95    0.47
   1   3  26    0.49    0.45
  -1   3 -26    0.67    0.53
   1   3  26    0.45    0.43
   3  -3  26    0.53    0.48
   3   3  26   -0.13    0.45
   3   3  26    0.74    0.45
  -3   3 -26    0.91    0.54
   5  -3  26    0.83    0.50
   5   3  26    0.29    0.47
   5   3  26    0.79    0.47
  -5   3 -26    1.51    0.59
   7   3  26    1.54    0.54
  -7   3 -26    1.92    0.86
 -10  -4  26    0.01    0.67
 -10   4  26   -0.19    0.63
  -8  -4  26    0.47    0.63
  -8   4  26    0.81    0.52
  -6  -4  26   -0.09    0.57
  -6   4  26    0.59    0.50
  -4  -4  26    0.44    0.50
  -4  -4  26    0.20    0.54
  -4   4  26   -0.65    0.45
  -4   4  26    0.19    0.47
  -2  -4  26    0.08    0.48
  -2  -4  26    0.30    0.52
  -2   4  26    0.32    0.47
  -2   4  26   -0.31    0.44
   0  -4  26    0.36    0.48
   0   4  26    0.73    0.47
   0   4  26   -0.16    0.43
   2  -4  26    1.02    0.50
   2   4  26    1.56    0.48
  -2   4 -26    1.06    0.56
   2   4  26    0.60    0.48
   4  -4  26    0.66    0.50
  -4   4 -26    0.97    0.59
   4   4  26    0.52    0.50
   4   4  26    0.58    0.48
   6   4  26    0.47    0.51
  -7  -5  26   -0.13    0.61
  -7   5  26    0.22    0.51
  -5  -5  26    1.17    0.62
  -5  -5  26    0.06    0.57
  -5   5  26    0.08    0.49
  -3  -5  26    0.33    0.53
  -3  -5  26    0.70    0.50
  -3   5  26    0.13    0.48
  -1  -5  26   -0.06    0.51
  -1  -5  26    0.68    0.49
  -1   5  26    0.83    0.49
  -1   5  26   -0.47    0.45
   1  -5  26    1.00    0.50
   1   5  26    0.52    0.47
   1   5  26   -0.21    0.47
   3  -5  26    0.85    0.54
   3   5  26    0.69    0.48
  -3   5 -26    0.67    0.58
   3   5  26   -0.13    0.48
   6  -6 -26    1.06    0.41
  -6   6  26    0.27    0.75
  -4  -6  26    1.16    0.57
   4  -6 -26    0.93    0.42
  -4  -6  26   -0.30    0.54
  -4   6  26    0.00    0.49
  -2  -6  26    0.04    0.51
  -2  -6  26    0.95    0.53
  -2   6  26    0.34    0.48
   0  -6  26    0.57    0.51
   0   6  26    0.32    0.48
   2  -6  26    0.32    0.61
  -2   6 -26    0.21    0.77
   2   6  26    0.55    0.52
   5  -7 -26    1.39    0.44
  -3  -7  26    0.72    0.62
   3  -7 -26    1.17    0.46
  -1  -7  26    0.69    0.68
  -4  -8  26    1.47    0.76
  -4   0  27    0.83    0.48
  -2   0  27    0.24    0.45
   0   0  27    0.27    0.44
   2   0  27    0.38    0.45
  -4   0 -27    1.45    0.56
   4   0  27    1.34    0.60
  -6   0 -27    1.16    0.54
  -5  -1  27    0.67    0.49
  -5   1  27    0.46    0.47
  -3  -1  27    0.72    0.48
  -3   1  27    0.34    0.46
  -1  -1  27    0.85    0.46
  -1   1  27    0.32    0.44
   1   1 -27    0.62    0.55
   1  -1  27    1.13    0.45
   1   1  27    0.27    0.44
  -1   1 -27    0.61    0.52
   3  -1  27    0.29    0.46
  -3   1 -27    0.95    0.54
   3   1  27    1.20    0.49
  -5   1 -27    1.25    0.52
  -4  -2  27    0.00    0.52
  -4  -2  27    0.98    0.49
  -4   2  27    0.29    0.48
  -2  -2  27    0.66    0.47
  -2   2  27    0.68    0.62
  -2   2  27    0.25    0.46
   0  -2  27    0.70    0.45
   0   2 -27    0.67    0.52
   0   2  27    0.15    0.44
   0   2  27    0.83    0.53
   2  -2  27    1.05    0.48
   2   2  27    0.72    0.48
  -2   2 -27    0.98    0.56
   2   2  27    0.88    0.47
  -4   2 -27    0.94    0.55
   4   2  27    0.42    0.47
  -6   2 -27    1.67    0.77
   6   2  27    0.86    0.49
  -9   3  27    0.17    0.71
  -7  -3  27    0.14    0.62
  -7   3  27    0.29    0.54
  -5  -3  27   -0.09    0.55
  -5   3  27    0.22    0.50
  -5   3  27   -0.42    0.45
  -3  -3  27    0.07    0.53
  -3  -3  27    0.71    0.50
  -3   3  27   -0.01    0.48
  -3   3  27    0.15    0.49
  -1  -3  27    0.16    0.49
  -1   3  27    0.78    0.50
  -1   3  27   -0.11    0.44
   1  -3  27    0.67    0.48
   1   3  27    0.83    0.47
  -1   3 -27    0.66    0.53
   1   3  27    0.31    0.46
   3   3  27    0.68    0.49
  -3   3 -27    0.91    0.57
  -5   3 -27    0.81    0.79
   5   3  27    0.81    0.49
  -8  -4  27    0.66    0.73
  -8   4  27    0.35    0.64
  -6  -4  27    0.75    0.64
  -6   4  27    1.04    0.53
  -4  -4  27    1.58    0.55
  -4  -4  27    0.39    0.56
  -4   4  27    0.53    0.50
  -4   4  27   -0.43    0.49
  -2  -4  27   -0.25    0.55
  -2  -4  27    0.58    0.49
  -2   4  27    0.41    0.48
  -2   4  27   -0.59    0.46
   0  -4  27    0.78    0.50
   0   4  27    0.26    0.48
   0   4  27    0.36    0.49
   2   4  27    0.96    0.50
  -2   4 -27    1.20    0.57
   4   4  27    0.32    0.55
  -5  -5  27    0.02    0.76
  -5   5  27    1.12    0.63
  -3  -5  27    0.00    0.54
  -3  -5  27    0.54    0.54
  -3   5  27    0.08    0.50
  -1  -5  27    0.40    0.51
  -1   5  27    0.80    0.52
  -1   5  27   -0.99    0.49
   1   5  27    1.62    0.55
   6  -6 -27    1.24    0.49
  -4  -6  27    0.63    0.55
   4  -6 -27    0.83    0.52
  -2  -6  27    1.09    0.58
  -4   0  28    0.74    0.51
  -2   0  28    1.13    0.49
   0   0  28    0.75    0.46
  -5   1  28    0.89    0.59
  -3  -1  28    1.83    0.54
  -3   1  28    0.54    0.50
  -1  -1  28    0.61    0.46
  -1   1  28    0.56    0.47
  -1   1 -28    0.83    0.64
  -3   1 -28    1.57    0.56
  -5   1 -28    1.53    0.61
  -4  -2  28    1.13    0.53
  -4   2  28    0.09    0.51
  -2  -2  28    0.66    0.48
  -2   2  28    0.54    0.47
   0  -2  28    0.41    0.53
   0   2 -28    1.06    0.57
   0   2  28    0.22    0.57
  -2   2 -28    0.61    0.54
  -4   2 -28    0.45    0.76
   4   2  28    0.92    0.65
  -5  -3  28   -0.22    0.56
  -5   3  28    0.86    0.67
  -5   3  28   -0.53    0.49
  -3  -3  28   -0.43    0.55
  -3  -3  28    1.05    0.53
  -3   3  28    0.28    0.52
  -3   3  28    0.12    0.51
  -1  -3  28    0.27    0.48
  -1   3  28    0.93    0.51
  -1   3  28   -0.43    0.58
   1   3  28    0.60    0.50
  -1   3 -28    0.37    0.55
   3   3  28    1.09    0.53
  -4  -4  28    0.29    0.72
  -4  -4  28    0.78    0.53
  -4   4  28   -0.51    0.55
  -4   4  28    1.09    0.58
  -2  -4  28    0.75    0.64
  -2   4  28    0.71    0.51
   0   4  28    0.63    0.53
  -4   0  29    0.17    0.56
   0   2 -29    0.77    0.58
   0   0   0    0.00    0.00
;
_shelx_hkl_checksum              74140
loop_
_space_group_symop_operation_xyz
'x, y, z'
'x, -y, z+1/2'
'x+1/2, y+1/2, z'
'x+1/2, -y+1/2, z+1/2'
loop_
_atom_site_label
_atom_site_type_symbol
_atom_site_fract_x
_atom_site_fract_y
_atom_site_fract_z
_atom_site_U_iso_or_equiv
_atom_site_adp_type
_atom_site_occupancy
_atom_site_site_symmetry_order
_atom_site_calc_flag
_atom_site_refinement_flags_posn
_atom_site_refinement_flags_adp
C2 C 0.1913(8) 0.5465(12) 0.8281(6) 0.117(5) Uani 1 1 d . .
H2 H 0.1757 0.5568 0.8676 0.141 Uiso 1 1 calc R U
C3 C 0.1632(7) 0.6055(10) 0.7813(7) 0.101(4) Uani 1 1 d . .
H3 H 0.1283 0.6554 0.7887 0.121 Uiso 1 1 calc R U
C62 C 0.5698(9) 0.4963(16) 0.6609(9) 0.116(5) Uani 1 1 d . .
C63 C 0.5931(12) 0.4975(17) 0.5997(9) 0.205(9) Uani 1 1 d . .
H63A H 0.5748 0.5568 0.5796 0.307 Uiso 1 1 calc R U
H63B H 0.5721 0.4410 0.5781 0.307 Uiso 1 1 calc R U
H63C H 0.6480 0.4955 0.6000 0.307 Uiso 1 1 calc R U
C64 C 0.5914(14) 0.4111(16) 0.6976(9) 0.199(10) Uani 1 1 d . .
H64A H 0.5702 0.4167 0.7370 0.299 Uiso 1 1 calc R U
H64B H 0.6462 0.4074 0.7028 0.299 Uiso 1 1 calc R U
H64C H 0.5721 0.3523 0.6774 0.299 Uiso 1 1 calc R U
O2 O 0.5366(9) 0.5669(11) 0.6807(7) 0.193(6) Uani 1 1 d . .
C1 C 0.2426(7) 0.4716(10) 0.8174(5) 0.094(4) Uani 1 1 d . .
H1 H 0.2610 0.4324 0.8500 0.113 Uiso 1 1 calc R U
C4 C 0.1865(5) 0.5909(8) 0.7244(5) 0.075(3) Uani 1 1 d . .
H4 H 0.1686 0.6319 0.6925 0.090 Uiso 1 1 calc R U
C5 C 0.2368(5) 0.5156(7) 0.7129(4) 0.062(2) Uani 1 1 d . .
H5 H 0.2510 0.5055 0.6730 0.074 Uiso 1 1 calc R U
C6 C 0.2673(5) 0.4536(7) 0.7599(4) 0.060(2) Uani 1 1 d . .
C7 C 0.3245(5) 0.3758(7) 0.7467(4) 0.066(2) Uani 1 1 d . .
H7A H 0.3742 0.4066 0.7429 0.079 Uiso 1 1 calc R U
H7B H 0.3291 0.3300 0.7808 0.079 Uiso 1 1 calc R U
C8 C 0.2319(4) 0.2649(6) 0.6914(4) 0.055(2) Uani 1 1 d . .
H8A H 0.2206 0.2356 0.6514 0.066 Uiso 1 1 calc R U
H8B H 0.1910 0.3110 0.6988 0.066 Uiso 1 1 calc R U
C9 C 0.2311(4) 0.1843(7) 0.7388(4) 0.052(2) Uani 1 1 d . .
C10 C 0.1974(6) 0.1998(9) 0.7935(5) 0.082(3) Uani 1 1 d . .
H10 H 0.1728 0.2593 0.8005 0.098 Uiso 1 1 calc R U
C11 C 0.2000(7) 0.1256(10) 0.8386(5) 0.092(4) Uani 1 1 d . .
H11 H 0.1772 0.1368 0.8754 0.111 Uiso 1 1 calc R U
C12 C 0.2348(7) 0.0393(11) 0.8295(6) 0.091(4) Uani 1 1 d . .
H12 H 0.2367 -0.0089 0.8599 0.110 Uiso 1 1 calc R U
C13 C 0.2675(6) 0.0222(8) 0.7756(5) 0.074(3) Uani 1 1 d . .
H13 H 0.2914 -0.0378 0.7687 0.088 Uiso 1 1 calc R U
C14 C 0.2650(5) 0.0947(7) 0.7310(4) 0.063(2) Uani 1 1 d . .
H14 H 0.2872 0.0820 0.6941 0.076 Uiso 1 1 calc R U
C15 C 0.3626(4) 0.2723(6) 0.6608(3) 0.0460(19) Uani 1 1 d . .
C16 C 0.4251(5) 0.2285(7) 0.6934(4) 0.062(2) Uani 1 1 d . .
H16 H 0.4279 0.2295 0.7360 0.075 Uiso 1 1 calc R U
C17 C 0.4817(5) 0.1845(7) 0.6632(5) 0.076(3) Uani 1 1 d . .
H17 H 0.5224 0.1556 0.6859 0.091 Uiso 1 1 calc R U
C18 C 0.4808(5) 0.1812(6) 0.6005(5) 0.065(2) Uani 1 1 d . .
H18 H 0.5198 0.1500 0.5807 0.078 Uiso 1 1 calc R U
C19 C 0.4197(4) 0.2259(6) 0.5675(4) 0.050(2) Uani 1 1 d . .
H19 H 0.4180 0.2250 0.5249 0.061 Uiso 1 1 calc R U
C20 C 0.3618(4) 0.2713(5) 0.5970(3) 0.0389(17) Uani 1 1 d . .
C21 C 0.2996(4) 0.3258(5) 0.5602(3) 0.0347(17) Uani 1 1 d . .
C22 C 0.2424(4) 0.2717(5) 0.5273(3) 0.0369(17) Uani 1 1 d . .
C23 C 0.2391(5) 0.1671(5) 0.5215(4) 0.050(2) Uani 1 1 d . .
H23 H 0.2743 0.1224 0.5393 0.060 Uiso 1 1 calc R U
C24 C 0.1768(4) 0.1442(5) 0.4862(3) 0.0420(18) Uani 1 1 d . .
H24 H 0.1609 0.0809 0.4748 0.050 Uiso 1 1 calc R U
C25 C 0.1390(4) 0.2344(5) 0.4691(3) 0.0361(17) Uani 1 1 d . .
C26 C 0.0687(4) 0.2421(5) 0.4349(3) 0.0364(17) Uani 1 1 d . .
C27 C 0.0276(4) 0.1492(5) 0.4173(3) 0.0419(18) Uani 1 1 d . .
C28 C 0.0493(6) 0.0893(7) 0.3706(5) 0.076(3) Uani 1 1 d . .
H28 H 0.0916 0.1064 0.3491 0.091 Uiso 1 1 calc R U
C29 C 0.0089(7) 0.0035(8) 0.3551(6) 0.087(3) Uani 1 1 d . .
H29 H 0.0251 -0.0361 0.3236 0.104 Uiso 1 1 calc R U
C30 C -0.0522(7) -0.0229(7) 0.3843(6) 0.075(3) Uani 1 1 d . .
H30 H -0.0786 -0.0806 0.3735 0.090 Uiso 1 1 calc R U
C31 C -0.0757(6) 0.0355(8) 0.4304(5) 0.080(3) Uani 1 1 d . .
H31 H -0.1186 0.0178 0.4511 0.096 Uiso 1 1 calc R U
C32 C -0.0362(5) 0.1206(7) 0.4465(4) 0.068(3) Uani 1 1 d . .
H32 H -0.0532 0.1597 0.4779 0.081 Uiso 1 1 calc R U
C33 C 0.0317(4) 0.3320(6) 0.4191(3) 0.0397(18) Uani 1 1 d . .
C34 C -0.0351(4) 0.3397(6) 0.3776(3) 0.051(2) Uani 1 1 d . .
H34 H -0.0619 0.2873 0.3591 0.061 Uiso 1 1 calc R U
C35 C -0.0518(5) 0.4354(6) 0.3704(4) 0.057(2) Uani 1 1 d . .
H35 H -0.0920 0.4620 0.3460 0.069 Uiso 1 1 calc R U
C36 C 0.0046(4) 0.4895(6) 0.4078(3) 0.0404(18) Uani 1 1 d . .
C37 C 0.0090(4) 0.5928(6) 0.4123(4) 0.0418(19) Uani 1 1 d . .
C38 C -0.0502(4) 0.6517(5) 0.3751(3) 0.0427(19) Uani 1 1 d . .
C39 C -0.0280(5) 0.6991(6) 0.3226(4) 0.060(2) Uani 1 1 d . .
H39 H 0.0225 0.6956 0.3114 0.072 Uiso 1 1 calc R U
C40 C -0.0829(7) 0.7522(7) 0.2868(4) 0.076(3) Uani 1 1 d . .
H40 H -0.0694 0.7804 0.2502 0.091 Uiso 1 1 calc R U
C41 C -0.1550(7) 0.7631(7) 0.3044(5) 0.074(3) Uani 1 1 d . .
H41 H -0.1900 0.8012 0.2810 0.088 Uiso 1 1 calc R U
C42 C -0.1764(5) 0.7188(7) 0.3562(5) 0.074(3) Uani 1 1 d . .
H42 H -0.2261 0.7264 0.3683 0.089 Uiso 1 1 calc R U
C43 C -0.1244(5) 0.6620(6) 0.3911(4) 0.059(2) Uani 1 1 d . .
H43 H -0.1401 0.6303 0.4260 0.071 Uiso 1 1 calc R U
C44 C 0.0659(4) 0.6456(6) 0.4472(3) 0.0374(19) Uani 1 1 d . .
C45 C 0.0680(5) 0.7522(6) 0.4519(4) 0.048(2) Uani 1 1 d . .
H45 H 0.0318 0.7965 0.4353 0.057 Uiso 1 1 calc R U
C46 C 0.1322(5) 0.7738(6) 0.4848(3) 0.048(2) Uani 1 1 d . .
H46 H 0.1492 0.8372 0.4951 0.058 Uiso 1 1 calc R U
C47 C 0.1713(4) 0.6835(5) 0.5018(3) 0.0361(18) Uani 1 1 d . .
C48 C 0.2422(4) 0.6776(5) 0.5345(3) 0.0365(19) Uani 1 1 d . .
C49 C 0.2818(4) 0.7707(5) 0.5521(4) 0.0432(19) Uani 1 1 d . .
C50 C 0.3127(5) 0.8294(6) 0.5083(4) 0.060(2) Uani 1 1 d . .
H50 H 0.3083 0.8105 0.4673 0.072 Uiso 1 1 calc R U
C51 C 0.3505(5) 0.9166(7) 0.5249(5) 0.073(3) Uani 1 1 d . .
H51 H 0.3720 0.9553 0.4953 0.088 Uiso 1 1 calc R U
C52 C 0.3557(6) 0.9453(7) 0.5855(6) 0.077(4) Uani 1 1 d . .
H52 H 0.3786 1.0051 0.5967 0.093 Uiso 1 1 calc R U
C53 C 0.3272(5) 0.8857(7) 0.6287(5) 0.068(3) Uani 1 1 d . .
H53 H 0.3333 0.9039 0.6698 0.082 Uiso 1 1 calc R U
C54 C 0.2899(5) 0.8002(6) 0.6133(4) 0.059(2) Uani 1 1 d . .
H54 H 0.2698 0.7614 0.6436 0.071 Uiso 1 1 calc R U
C55 C 0.2791(4) 0.5873(6) 0.5512(3) 0.0348(17) Uani 1 1 d . .
C56 C 0.3524(4) 0.5785(6) 0.5835(3) 0.0433(19) Uani 1 1 d . .
H56 H 0.3838 0.6305 0.5971 0.052 Uiso 1 1 calc R U
C57 C 0.3675(4) 0.4835(6) 0.5905(4) 0.044(2) Uani 1 1 d . .
H57 H 0.4116 0.4568 0.6098 0.053 Uiso 1 1 calc R U
C58 C 0.3042(4) 0.4286(5) 0.5632(3) 0.0344(17) Uani 1 1 d . .
C59 C 0.0553(4) 0.3945(6) 0.6172(3) 0.0448(18) Uani 1 1 d . .
C60 C 0.0363(5) 0.4166(7) 0.6810(4) 0.068(3) Uani 1 1 d . .
H60A H 0.0549 0.4812 0.6923 0.102 Uiso 1 1 calc R U
H60B H 0.0600 0.3683 0.7082 0.102 Uiso 1 1 calc R U
H60C H -0.0182 0.4144 0.6839 0.102 Uiso 1 1 calc R U
C61 C 0.0312(6) 0.2975(7) 0.5918(5) 0.074(3) Uani 1 1 d . .
H61A H 0.0464 0.2920 0.5505 0.111 Uiso 1 1 calc R U
H61B H -0.0235 0.2915 0.5922 0.111 Uiso 1 1 calc R U
H61C H 0.0551 0.2459 0.6163 0.111 Uiso 1 1 calc R U
Zn1 Zn 0.14557(4) 0.45809(6) 0.49797(4) 0.0351(2) Uani 1 1 d . .
O1 O 0.0891(3) 0.4549(4) 0.5874(2) 0.0514(13) Uani 1 1 d . .
N1 N 0.3032(3) 0.3202(5) 0.6896(3) 0.0489(16) Uani 1 1 d . .
N2 N 0.1797(3) 0.3126(4) 0.4935(2) 0.0379(15) Uani 1 1 d . .
N3 N 0.0545(3) 0.4242(4) 0.4369(3) 0.0369(15) Uani 1 1 d . .
N4 N 0.1275(3) 0.6048(5) 0.4775(2) 0.0359(14) Uani 1 1 d . .
N5 N 0.2507(3) 0.4944(4) 0.5384(3) 0.0372(14) Uani 1 1 d . .
loop_
_atom_site_aniso_label
_atom_site_aniso_U_11
_atom_site_aniso_U_22
_atom_site_aniso_U_33
_atom_site_aniso_U_23
_atom_site_aniso_U_13
_atom_site_aniso_U_12
C2 0.099(10) 0.177(15) 0.079(9) -0.065(10) 0.028(8) 0.006(10)
C3 0.064(7) 0.127(11) 0.113(10) -0.056(9) 0.013(7) 0.000(7)
C62 0.090(11) 0.136(14) 0.119(14) -0.029(12) -0.023(9) -0.016(10)
C63 0.21(2) 0.30(2) 0.114(14) 0.004(16) 0.064(15) -0.018(18)
C64 0.25(3) 0.21(2) 0.128(15) 0.055(16) -0.043(16) -0.088(19)
O2 0.198(14) 0.199(13) 0.178(14) -0.046(11) -0.028(10) 0.041(11)
C1 0.099(8) 0.133(11) 0.051(6) -0.019(7) 0.010(6) -0.016(8)
C4 0.046(6) 0.087(7) 0.093(8) -0.036(6) 0.004(5) 0.003(5)
C5 0.054(5) 0.076(6) 0.056(5) -0.015(5) 0.004(4) -0.007(5)
C6 0.056(5) 0.075(6) 0.048(5) -0.025(5) 0.008(4) -0.010(5)
C7 0.066(6) 0.086(7) 0.043(5) -0.008(5) -0.012(4) -0.005(5)
C8 0.038(5) 0.076(6) 0.049(5) -0.007(4) -0.008(4) 0.006(4)
C9 0.039(4) 0.069(6) 0.047(5) 0.000(4) -0.005(4) -0.003(4)
C10 0.079(7) 0.091(8) 0.077(7) 0.000(6) 0.025(6) 0.007(6)
C11 0.111(9) 0.117(10) 0.052(7) 0.004(7) 0.026(6) -0.005(8)
C12 0.077(8) 0.131(12) 0.066(8) 0.025(8) 0.001(6) -0.011(8)
C13 0.072(7) 0.069(7) 0.080(8) 0.010(6) -0.001(5) 0.002(5)
C14 0.065(6) 0.070(6) 0.054(6) -0.005(5) 0.001(4) 0.001(5)
C15 0.038(4) 0.053(5) 0.046(5) 0.004(4) -0.010(4) 0.003(4)
C16 0.052(5) 0.074(6) 0.058(5) 0.006(5) -0.023(4) 0.011(5)
C17 0.044(6) 0.079(7) 0.101(8) 0.005(6) -0.030(5) 0.016(5)
C18 0.043(5) 0.057(5) 0.093(7) -0.004(5) -0.008(5) 0.015(4)
C19 0.045(5) 0.050(5) 0.057(5) 0.000(4) -0.001(4) 0.004(4)
C20 0.034(4) 0.040(4) 0.042(4) 0.001(4) -0.007(3) 0.000(3)
C21 0.033(4) 0.035(4) 0.035(4) 0.001(3) -0.006(3) 0.001(3)
C22 0.033(4) 0.041(4) 0.035(4) -0.002(3) -0.008(3) 0.005(3)
C23 0.049(5) 0.039(5) 0.061(5) 0.003(4) -0.016(4) 0.011(4)
C24 0.046(5) 0.032(4) 0.046(5) -0.006(3) -0.008(4) 0.003(3)
C25 0.042(4) 0.036(4) 0.030(3) -0.007(3) 0.001(3) 0.000(3)
C26 0.037(4) 0.045(5) 0.027(4) -0.005(3) -0.003(3) -0.002(3)
C27 0.040(4) 0.041(4) 0.042(4) -0.009(4) -0.014(4) 0.001(4)
C28 0.072(6) 0.075(6) 0.081(7) -0.037(6) 0.007(5) -0.009(5)
C29 0.078(7) 0.076(7) 0.107(9) -0.053(6) 0.007(7) -0.011(6)
C30 0.077(8) 0.056(7) 0.088(8) -0.014(6) -0.026(6) -0.015(6)
C31 0.084(7) 0.079(7) 0.077(7) -0.015(6) -0.002(6) -0.035(6)
C32 0.078(7) 0.077(6) 0.049(5) -0.021(5) 0.006(5) -0.015(6)
C33 0.043(5) 0.038(4) 0.037(4) 0.002(4) -0.007(3) 0.004(4)
C34 0.052(5) 0.054(5) 0.044(5) -0.013(4) -0.025(4) -0.003(4)
C35 0.059(5) 0.056(6) 0.052(5) -0.005(4) -0.030(4) 0.006(4)
C36 0.044(5) 0.041(5) 0.035(4) 0.001(4) -0.012(3) -0.003(4)
C37 0.039(5) 0.047(5) 0.037(5) 0.006(4) -0.008(4) 0.000(4)
C38 0.042(5) 0.039(4) 0.045(5) -0.001(4) -0.018(4) 0.005(4)
C39 0.066(6) 0.070(6) 0.043(5) 0.008(4) -0.006(4) 0.020(5)
C40 0.113(9) 0.069(6) 0.041(5) 0.001(5) -0.027(5) 0.032(6)
C41 0.083(8) 0.062(6) 0.070(7) -0.008(5) -0.045(6) 0.028(5)
C42 0.050(6) 0.060(6) 0.108(9) -0.005(6) -0.034(6) 0.010(5)
C43 0.051(5) 0.056(5) 0.067(6) -0.002(4) -0.013(4) -0.001(4)
C44 0.047(5) 0.038(5) 0.027(4) 0.004(4) -0.002(3) 0.005(4)
C45 0.058(5) 0.035(5) 0.048(5) 0.007(4) -0.010(4) 0.005(4)
C46 0.051(6) 0.044(5) 0.048(6) 0.002(4) -0.010(4) 0.008(4)
C47 0.045(5) 0.026(4) 0.035(4) -0.003(3) -0.012(4) -0.006(3)
C48 0.039(5) 0.031(4) 0.039(4) 0.005(4) -0.004(3) -0.005(3)
C49 0.036(4) 0.037(4) 0.056(5) 0.007(4) -0.009(4) 0.001(3)
C50 0.065(6) 0.054(5) 0.059(5) 0.010(4) -0.012(4) -0.008(4)
C51 0.064(6) 0.055(6) 0.099(8) 0.024(6) -0.012(5) -0.015(5)
C52 0.070(7) 0.045(6) 0.113(10) -0.011(7) -0.028(7) -0.001(5)
C53 0.075(7) 0.055(6) 0.072(7) -0.014(5) -0.012(5) -0.007(5)
C54 0.070(6) 0.054(5) 0.054(5) -0.006(4) -0.004(4) -0.008(4)
C55 0.037(4) 0.032(4) 0.035(4) -0.003(4) -0.003(3) -0.009(3)
C56 0.041(5) 0.039(4) 0.049(5) -0.004(4) -0.008(4) -0.010(3)
C57 0.038(4) 0.045(5) 0.049(5) 0.007(4) -0.015(4) 0.003(4)
C58 0.031(4) 0.040(4) 0.031(4) 0.003(3) -0.008(3) 0.001(3)
C59 0.035(4) 0.056(5) 0.043(4) 0.006(4) -0.006(3) 0.002(4)
C60 0.059(6) 0.093(7) 0.052(5) 0.001(5) 0.004(4) -0.013(5)
C61 0.083(7) 0.063(6) 0.079(7) -0.015(5) 0.021(5) -0.012(5)
Zn1 0.0355(4) 0.0390(4) 0.0291(4) -0.0001(6) -0.0123(3) 0.0007(5)
O1 0.053(3) 0.059(3) 0.043(3) 0.003(3) 0.000(2) -0.005(3)
N1 0.042(4) 0.067(4) 0.036(3) -0.002(3) -0.009(3) 0.003(3)
N2 0.035(3) 0.048(4) 0.029(3) -0.005(3) -0.008(3) 0.002(3)
N3 0.039(4) 0.033(4) 0.037(3) 0.000(3) -0.016(3) 0.002(3)
N4 0.031(3) 0.049(4) 0.025(3) 0.005(3) -0.014(2) -0.001(3)
N5 0.039(3) 0.035(3) 0.036(3) 0.003(3) -0.012(3) 0.002(3)
loop_
_atom_type_symbol
_atom_type_description
_atom_type_scat_dispersion_real
_atom_type_scat_dispersion_imag
_atom_type_scat_source
C C 0.0033 0.0016 'International Tables Vol C Tables 4.2.6.8 and 6.1.1.4'
Zn Zn 0.2839 1.4301 'International Tables Vol C Tables 4.2.6.8 and 6.1.1.4'
O O 0.0106 0.0060 'International Tables Vol C Tables 4.2.6.8 and 6.1.1.4'
N N 0.0061 0.0033 'International Tables Vol C Tables 4.2.6.8 and 6.1.1.4'
H H 0.0000 0.0000 'International Tables Vol C Tables 4.2.6.8 and 6.1.1.4'
loop_
_geom_angle_atom_site_label_1
_geom_angle_atom_site_label_2
_geom_angle_atom_site_label_3
_geom_angle
C3 C2 C1 120.6(12)
C4 C3 C2 119.4(12)
O2 C62 C63 120(2)
O2 C62 C64 123(2)
C63 C62 C64 117(2)
C6 C1 C2 121.8(12)
C3 C4 C5 120.5(11)
C4 C5 C6 121.8(9)
C1 C6 C5 115.8(9)
C1 C6 C7 123.5(9)
C5 C6 C7 120.6(8)
N1 C7 C6 112.4(7)
N1 C8 C9 115.7(6)
C14 C9 C10 117.1(8)
C14 C9 C8 122.3(8)
C10 C9 C8 120.6(8)
C9 C10 C11 120.1(10)
C12 C11 C10 121.0(11)
C11 C12 C13 119.7(12)
C12 C13 C14 119.6(10)
C9 C14 C13 122.5(9)
C20 C15 C16 117.9(7)
C20 C15 N1 119.3(6)
C16 C15 N1 122.8(7)
C17 C16 C15 120.4(8)
C16 C17 C18 122.3(8)
C17 C18 C19 117.9(8)
C20 C19 C18 121.0(8)
C19 C20 C15 120.5(7)
C19 C20 C21 119.9(7)
C15 C20 C21 119.6(6)
C58 C21 C22 125.5(6)
C58 C21 C20 115.2(6)
C22 C21 C20 119.2(6)
N2 C22 C21 125.2(6)
N2 C22 C23 108.7(6)
C21 C22 C23 126.1(6)
C24 C23 C22 108.1(7)
C23 C24 C25 107.6(7)
N2 C25 C26 124.7(6)
N2 C25 C24 109.7(6)
C26 C25 C24 125.5(7)
C25 C26 C33 124.8(7)
C25 C26 C27 117.9(6)
C33 C26 C27 117.2(6)
C28 C27 C32 116.5(7)
C28 C27 C26 122.7(8)
C32 C27 C26 120.8(7)
C27 C28 C29 121.0(9)
C30 C29 C28 121.3(10)
C29 C30 C31 119.1(9)
C30 C31 C32 120.4(10)
C27 C32 C31 121.7(9)
N3 C33 C26 126.7(6)
N3 C33 C34 109.1(6)
C26 C33 C34 124.1(7)
C35 C34 C33 108.0(7)
C34 C35 C36 106.8(7)
N3 C36 C37 125.4(7)
N3 C36 C35 109.3(7)
C37 C36 C35 125.3(7)
C36 C37 C44 125.1(7)
C36 C37 C38 117.2(7)
C44 C37 C38 117.7(6)
C43 C38 C39 118.6(7)
C43 C38 C37 123.2(7)
C39 C38 C37 118.2(7)
C38 C39 C40 118.8(9)
C41 C40 C39 121.3(9)
C42 C41 C40 120.0(8)
C41 C42 C43 120.2(10)
C38 C43 C42 121.1(9)
N4 C44 C37 125.1(7)
N4 C44 C45 110.9(7)
C37 C44 C45 123.8(7)
C46 C45 C44 106.0(7)
C45 C46 C47 109.0(7)
N4 C47 C48 126.9(6)
N4 C47 C46 108.0(6)
C48 C47 C46 125.1(6)
C47 C48 C55 123.9(6)
C47 C48 C49 118.2(7)
C55 C48 C49 117.9(6)
C50 C49 C54 118.6(8)
C50 C49 C48 120.5(7)
C54 C49 C48 120.9(7)
C49 C50 C51 120.5(9)
C52 C51 C50 119.6(10)
C53 C52 C51 119.7(9)
C52 C53 C54 121.5(9)
C53 C54 C49 120.0(9)
N5 C55 C48 125.6(6)
N5 C55 C56 109.1(6)
C48 C55 C56 125.3(7)
C57 C56 C55 107.8(7)
C56 C57 C58 108.2(6)
N5 C58 C21 126.2(7)
N5 C58 C57 108.6(6)
C21 C58 C57 125.2(7)
O1 C59 C61 122.1(7)
O1 C59 C60 120.6(7)
C61 C59 C60 117.2(8)
N5 Zn1 N4 89.1(2)
N5 Zn1 N3 165.3(2)
N4 Zn1 N3 88.3(2)
N5 Zn1 N2 89.7(2)
N4 Zn1 N2 162.5(2)
N3 Zn1 N2 88.4(2)
N5 Zn1 O1 93.3(2)
N4 Zn1 O1 97.9(2)
N3 Zn1 O1 101.4(2)
N2 Zn1 O1 99.6(2)
C59 O1 Zn1 137.0(5)
C15 N1 C8 115.6(6)
C15 N1 C7 117.0(6)
C8 N1 C7 114.2(6)
C25 N2 C22 105.9(6)
C25 N2 Zn1 127.8(5)
C22 N2 Zn1 125.0(4)
C33 N3 C36 106.9(6)
C33 N3 Zn1 126.2(5)
C36 N3 Zn1 126.9(5)
C44 N4 C47 106.2(6)
C44 N4 Zn1 127.6(5)
C47 N4 Zn1 125.4(4)
C55 N5 C58 106.4(6)
C55 N5 Zn1 127.6(4)
C58 N5 Zn1 125.8(5)
loop_
_geom_bond_atom_site_label_1
_geom_bond_atom_site_label_2
_geom_bond_distance
C2 C3 1.366(18)
C2 C1 1.383(17)
C3 C4 1.346(15)
C62 O2 1.211(18)
C62 C63 1.42(2)
C62 C64 1.44(2)
C1 C6 1.374(13)
C4 C5 1.378(12)
C5 C6 1.405(12)
C6 C7 1.491(12)
C7 N1 1.486(9)
C8 N1 1.456(10)
C8 C9 1.505(11)
C9 C14 1.364(12)
C9 C10 1.379(12)
C10 C11 1.405(15)
C11 C12 1.338(15)
C12 C13 1.359(15)
C13 C14 1.381(13)
C15 C20 1.394(10)
C15 C16 1.401(10)
C15 N1 1.404(9)
C16 C17 1.358(13)
C17 C18 1.370(13)
C18 C19 1.391(11)
C19 C20 1.377(10)
C20 C21 1.505(10)
C21 C58 1.395(10)
C21 C22 1.403(9)
C22 N2 1.399(8)
C22 C23 1.422(10)
C23 C24 1.334(10)
C24 C25 1.427(10)
C25 N2 1.367(8)
C25 C26 1.403(9)
C26 C33 1.411(10)
C26 C27 1.488(10)
C27 C28 1.374(11)
C27 C32 1.371(11)
C28 C29 1.390(13)
C29 C30 1.325(15)
C30 C31 1.362(14)
C31 C32 1.378(12)
C33 N3 1.360(9)
C33 C34 1.439(10)
C34 C35 1.334(11)
C35 C36 1.443(10)
C36 N3 1.371(9)
C36 C37 1.404(11)
C37 C44 1.411(10)
C37 C38 1.506(10)
C38 C43 1.369(11)
C38 C39 1.390(11)
C39 C40 1.401(11)
C40 C41 1.347(14)
C41 C42 1.351(14)
C42 C43 1.385(12)
C44 N4 1.348(9)
C44 C45 1.447(11)
C45 C46 1.329(10)
C46 C47 1.438(10)
C47 N4 1.398(8)
C47 C48 1.396(9)
C48 C55 1.419(10)
C48 C49 1.477(10)
C49 C50 1.378(11)
C49 C54 1.396(11)
C50 C51 1.389(12)
C51 C52 1.377(15)
C52 C53 1.358(14)
C53 C54 1.361(11)
C55 N5 1.374(9)
C55 C56 1.431(10)
C56 C57 1.319(10)
C57 C58 1.433(10)
C58 N5 1.378(9)
C59 O1 1.219(9)
C59 C61 1.476(11)
C59 C60 1.483(11)
Zn1 N5 2.051(6)
Zn1 N4 2.055(6)
Zn1 N3 2.067(6)
Zn1 N2 2.061(6)
Zn1 O1 2.241(5)
