#------------------------------------------------------------------------------
#$Date: 2019-11-26 05:26:48 +0200 (Tue, 26 Nov 2019) $
#$Revision: 242710 $
#$URL: file:///home/coder/svn-repositories/cod/cif/4/13/28/4132809.cif $
#------------------------------------------------------------------------------
#
# This file is available in the Crystallography Open Database (COD),
# http://www.crystallography.net/
#
# All data on this site have been placed in the public domain by the
# contributors.
#
data_4132809
loop_
_publ_author_name
'Yamabayashi, Tsutomu'
'Atzori, Matteo'
'Tesi, Lorenzo'
'Cosquer, Goulven'
'Santanni, Fabio'
'Boulon, Marie-Emmanuelle'
'Morra, Elena'
'Benci, Stefano'
'Torre, Renato'
'Chiesa, Mario'
'Sorace, Lorenzo'
'Sessoli, Roberta'
'Yamashita, Masahiro'
_publ_section_title
;
 Scaling Up Electronic Spin Qubits into a Three-Dimensional Metal-Organic
 Framework.
;
_journal_issue                   38
_journal_name_full               'Journal of the American Chemical Society'
_journal_page_first              12090
_journal_page_last               12101
_journal_paper_doi               10.1021/jacs.8b06733
_journal_volume                  140
_journal_year                    2018
_chemical_formula_moiety         'C44 H28 N4 O Ti'
_chemical_formula_sum            'C44 H28 N4 O Ti'
_chemical_formula_weight         676.60
_chemical_name_common            'Titanyl Tetraphenylporphyrin'
_space_group_crystal_system      tetragonal
_space_group_IT_number           79
_space_group_name_Hall           'I 4'
_space_group_name_H-M_alt        'I 4'
_atom_sites_solution_hydrogens   geom
_audit_creation_method           SHELXL-2017/1
_cell_angle_alpha                90
_cell_angle_beta                 90
_cell_angle_gamma                90
_cell_formula_units_Z            2
_cell_length_a                   13.3796(2)
_cell_length_b                   13.3796(2)
_cell_length_c                   9.7766(3)
_cell_measurement_reflns_used    2905
_cell_measurement_temperature    293(2)
_cell_measurement_theta_max      71.9630
_cell_measurement_theta_min      5.5630
_cell_volume                     1750.15(7)
_computing_cell_refinement
;
CrysAlisPro, Agilent Technologies,
Version 1.171.37.35g (release 09-12-2014 CrysAlis171 .NET)
(compiled Dec  9 2014,15:38:47)
;
_computing_data_collection
;
CrysAlisPro, Agilent Technologies,
Version 1.171.37.35g (release 09-12-2014 CrysAlis171 .NET)
(compiled Dec  9 2014,15:38:47)
;
_computing_data_reduction
;
CrysAlisPro, Agilent Technologies,
Version 1.171.37.35g (release 09-12-2014 CrysAlis171 .NET)
(compiled Dec  9 2014,15:38:47)
;
_computing_structure_refinement  'SHELXL-2017/1 (Sheldrick, 2017)'
_computing_structure_solution    'SHELXS-2017/1 (Sheldrick, 2017)'
_diffrn_ambient_temperature      293(2)
_diffrn_detector_area_resol_mean 8.1241
_diffrn_measured_fraction_theta_full 0.994
_diffrn_measured_fraction_theta_max 0.981
_diffrn_measurement_device_type  'Xcalibur, Onyx'
_diffrn_measurement_method       '\w scans'
_diffrn_radiation_type           CuK\a
_diffrn_radiation_wavelength     1.54184
_diffrn_reflns_av_R_equivalents  0.0566
_diffrn_reflns_av_unetI/netI     0.0405
_diffrn_reflns_Laue_measured_fraction_full 0.994
_diffrn_reflns_Laue_measured_fraction_max 0.981
_diffrn_reflns_limit_h_max       16
_diffrn_reflns_limit_h_min       -15
_diffrn_reflns_limit_k_max       16
_diffrn_reflns_limit_k_min       -16
_diffrn_reflns_limit_l_max       11
_diffrn_reflns_limit_l_min       -9
_diffrn_reflns_number            4781
_diffrn_reflns_point_group_measured_fraction_full 0.836
_diffrn_reflns_point_group_measured_fraction_max 0.814
_diffrn_reflns_theta_full        67.684
_diffrn_reflns_theta_max         72.509
_diffrn_reflns_theta_min         5.605
_diffrn_source                   'Enhance (Cu) X-ray Source'
_exptl_absorpt_coefficient_mu    2.385
_exptl_absorpt_correction_T_max  1.00000
_exptl_absorpt_correction_T_min  0.22815
_exptl_absorpt_correction_type   multi-scan
_exptl_absorpt_process_details
;
CrysAlisPro, Agilent Technologies,
Version 1.171.37.35g (release 09-12-2014 CrysAlis171 .NET)
(compiled Dec  9 2014,15:38:47)
Empirical absorption correction using spherical harmonics,
 implemented in SCALE3 ABSPACK scaling algorithm.
;
_exptl_crystal_colour            red-violet
_exptl_crystal_density_diffrn    1.284
_exptl_crystal_density_meas      ?
_exptl_crystal_density_method    'not measured'
_exptl_crystal_description       prism
_exptl_crystal_F_000             700
_exptl_crystal_size_max          0.500
_exptl_crystal_size_mid          0.448
_exptl_crystal_size_min          0.037
_refine_diff_density_max         0.222
_refine_diff_density_min         -0.350
_refine_diff_density_rms         0.048
_refine_ls_abs_structure_details
;
 Classical Flack method preferred over Parsons because s.u. lower.
;
_refine_ls_abs_structure_Flack   0.05(7)
_refine_ls_extinction_method     none
_refine_ls_goodness_of_fit_ref   1.037
_refine_ls_hydrogen_treatment    constr
_refine_ls_matrix_type           full
_refine_ls_number_parameters     122
_refine_ls_number_reflns         1424
_refine_ls_number_restraints     1
_refine_ls_restrained_S_all      1.036
_refine_ls_R_factor_all          0.0579
_refine_ls_R_factor_gt           0.0503
_refine_ls_shift/su_max          0.000
_refine_ls_shift/su_mean         0.000
_refine_ls_structure_factor_coef Fsqd
_refine_ls_weighting_details
'w=1/[\s^2^(Fo^2^)+(0.0944P)^2^+0.1270P] where P=(Fo^2^+2Fc^2^)/3'
_refine_ls_weighting_scheme      calc
_refine_ls_wR_factor_gt          0.1325
_refine_ls_wR_factor_ref         0.1399
_reflns_Friedel_coverage         0.563
_reflns_Friedel_fraction_full    0.656
_reflns_Friedel_fraction_max     0.626
_reflns_number_gt                1223
_reflns_number_total             1424
_reflns_threshold_expression     'I > 2\s(I)'
_cod_data_source_file            ja8b06733_si_003.cif
_cod_data_source_block           shelx
_cod_depositor_comments
;
The following automatic conversions were performed:

data item '_exptl_crystal_density_meas' value 'not measured' was
changed to '?' -- the value is perceived as not measured.

Automatic conversion script
Id: cif_fix_values 6909 2019-04-08 15:41:33Z antanas 
;
_cod_database_code               4132809
_shelx_shelxl_version_number     2017/1
_shelx_space_group_comment
;
The symmetry employed for this shelxl refinement is uniquely defined
by the following loop, which should always be used as a source of
symmetry information in preference to the above space-group names.
They are only intended as comments.
;
_shelx_estimated_absorpt_t_min   0.382
_shelx_estimated_absorpt_t_max   0.917
_shelx_res_file
;
TITL shelxt_b.res in I4
    shelx.res
    created by SHELXL-2017/1 at 12:53:26 on 01-Mar-2018
CELL  1.54184  13.3796  13.3796   9.7766   90.000   90.000   90.000
ZERR     2.00   0.0002   0.0002   0.0003    0.000    0.000    0.000
LATT  -2
SYMM  - X, - Y,   Z
SYMM  - Y,   X,   Z
SYMM    Y, - X,   Z
SFAC  C    H    N    O    TI
UNIT  88 56 8 2 2
MERG   2
OMIT     1   1   0
OMIT    -3   6   1
OMIT     4   4   2
OMIT     1   8  -3
OMIT    -1   5   2
OMIT    -4   5   3
OMIT    -3   6  -1
OMIT     1   4   1
OMIT     1   4  -1
OMIT     4   4  -2
OMIT    -3   6   3
OMIT     3   7   2
FMAP   2
PLAN   20
SIZE     0.037   0.448   0.500
ACTA
BOND   $H
LIST   6
L.S.  10
WGHT    0.094400    0.127000
FVAR       6.67384   0.46911
PART    1
TI    5    0.500000    0.500000    0.437281    20.25000    0.02966    0.02966 =
         0.04517    0.00000    0.00000    0.00000
O1    4    0.500000    0.500000    0.276216    20.25000    0.04488    0.04488 =
         0.03867    0.00000    0.00000    0.00000
PART    2
TI'   5    0.500000    0.500000    0.553481   -20.25000    0.03327    0.03327 =
         0.04803    0.00000    0.00000    0.00000
O1'   4    0.500000    0.500000    0.720153   -20.25000    0.05541    0.05541 =
         0.07015    0.00000    0.00000    0.00000
PART    0
C1    1    0.631336    0.686648    0.496798    11.00000    0.03697    0.03503 =
         0.05178   -0.00062    0.00436   -0.00392
C2    1    0.625062    0.793801    0.496608    11.00000    0.04280    0.03530 =
         0.07040    0.00127   -0.00179   -0.00631
AFIX  43
H2    2    0.678542    0.838198    0.497211    11.00000   -1.20000
AFIX   0
C3    1    0.527203    0.818124    0.495394    11.00000    0.04708    0.03201 =
         0.07396    0.00281   -0.00080   -0.00047
AFIX  43
H3    2    0.500719    0.882377    0.493648    11.00000   -1.20000
AFIX   0
C4    1    0.471588    0.726454    0.497295    11.00000    0.04072    0.03318 =
         0.05186    0.00539    0.00110    0.00184
C5    1    0.367335    0.720865    0.494878    11.00000    0.03923    0.03728 =
         0.04749   -0.00179    0.00120    0.00376
C6    1    0.310014    0.816254    0.496770    11.00000    0.03744    0.03566 =
         0.05560    0.00311   -0.00332    0.00180
C7    1    0.282644    0.861731    0.373263    11.00000    0.08636    0.05654 =
         0.05350    0.00699   -0.00966    0.01901
AFIX  43
H7    2    0.301554    0.833269    0.290427    11.00000   -1.20000
AFIX   0
C8    1    0.227806    0.948464    0.374906    11.00000    0.08659    0.05738 =
         0.08061    0.01257   -0.01113    0.01816
AFIX  43
H8    2    0.209047    0.978405    0.292986    11.00000   -1.20000
AFIX   0
C9    1    0.200098    0.991883    0.499144    11.00000    0.04567    0.03724 =
         0.12010    0.00190   -0.00479    0.00538
AFIX  43
H9    2    0.163421    1.050920    0.500370    11.00000   -1.20000
AFIX   0
C10   1    0.226540    0.948198    0.615241    11.00000    0.08142    0.05604 =
         0.10157   -0.02347    0.02051    0.01630
AFIX  43
H10   2    0.207383    0.976122    0.698314    11.00000   -1.20000
AFIX   0
C11   1    0.282987    0.860504    0.613535    11.00000    0.08322    0.06039 =
         0.06406    0.00027    0.00117    0.02376
AFIX  43
H11   2    0.302369    0.832019    0.696152    11.00000   -1.20000
AFIX   0
N1    3    0.536627    0.647077    0.496312    11.00000    0.03379    0.03216 =
         0.05233    0.00181    0.00002   -0.00143
HKLF    4




REM  shelxt_b.res in I4
REM R1 =  0.0503 for    1223 Fo > 4sig(Fo)  and  0.0579 for all    1424 data
REM    122 parameters refined using      1 restraints

END

WGHT      0.0939      0.1320

REM Highest difference peak  0.222,  deepest hole -0.350,  1-sigma level  0.048
Q1    1   0.4841  0.7627  0.4966  11.00000  0.05    0.17
Q2    1   0.6295  0.7236  0.4987  11.00000  0.05    0.17
Q3    1   0.5771  0.5541  0.4966  11.00000  0.05    0.15
Q4    1   0.5356  0.5949  0.4951  11.00000  0.05    0.15
Q5    1   0.3406  0.7803  0.4954  11.00000  0.05    0.14
Q6    1   0.1636  1.0656  0.4216  11.00000  0.05    0.13
Q7    1   0.4484  0.6010  0.4976  11.00000  0.05    0.12
Q8    1   0.2611  0.9675  0.6346  11.00000  0.05    0.12
Q9    1   0.5816  0.6611  0.4955  11.00000  0.05    0.12
Q10   1   0.1633  1.0658  0.5687  11.00000  0.05    0.12
Q11   1   0.1449  0.9745  0.3202  11.00000  0.05    0.11
Q12   1   0.2603  0.9667  0.3583  11.00000  0.05    0.11
Q13   1   0.3050  0.8361  0.5340  11.00000  0.05    0.11
Q14   1   0.1447  0.9717  0.6721  11.00000  0.05    0.11
Q15   1   0.2164  0.9697  0.5613  11.00000  0.05    0.10
Q16   1   0.0922  1.1180  0.5414  11.00000  0.05    0.10
Q17   1   0.2235  0.9835  0.4366  11.00000  0.05    0.10
Q18   1   0.4260  0.9271  0.4030  11.00000  0.05    0.10
Q19   1   0.4381  0.9225  0.5770  11.00000  0.05    0.10
Q20   1   0.3078  0.8362  0.4647  11.00000  0.05    0.09
;
_shelx_res_checksum              48543
_shelx_hkl_file
;
   0   0   4 742017. 6153.53   3
   0   0   6 370125. 3310.60   8
   0   0   6 368135. 5447.91   7
   0   0   8 191591. 2593.68   8
   0   0   8 68413.8 3745.11   7
   0   0  10 33070.2 1194.36   4
   1   0   1 295170. 2744.23   3
   0  -1   1 297371. 1988.66   3
   1   0   3 610139. 5445.91   3
  -1   0   3 598183. 4431.04   3
   1   0   5 183176. 3569.04   3
   0  -1   5 177494. 3321.65   3
   0  -1   7 1326.13 243.558   8
  -1   0   7 1579.74 702.805   7
   1   0   7 1420.16 255.108   8
  -1   0   7 1189.89 224.455   8
   0  -1   7 508.685 707.478   7
   0  -1   7 1475.59 201.407  10
   0   1   7 991.279 215.699   8
   0   1   7 1380.55 908.960   7
   1   0   7 399.635 835.607   7
   1   0   7 1393.52 209.646  10
  -1   0   9-121.298 1041.72   7
   1   0   9 720.573 238.674   8
  -1   0   9 607.180 236.179   4
   0  -1   9 817.084 271.709   4
  -1   0   9 681.457 217.299   8
   0  -1   9 21.9159 1062.17   7
   0  -1   9 678.261 220.293   8
   0   1   9 738.477 237.484   8
   1   0  11 951.495 208.369   4
  -1   0  11 1085.25 183.364   4
   0  -1  11 942.260 205.479   4
   1  -1   0 11715.9 1499.40   3
   1   1   0 1366.08 2263.56   1
  -1  -1   2 74470.2 1163.93   3
   1  -1   2 76131.0 1655.27   3
  -1  -1   4 37536.9 1325.62   3
   1  -1   4 40522.8 1615.59   3
  -1  -1   6 749.172 255.838   3
   1   1   6 523.838 179.156   8
   1  -1   6 261.408 700.489   7
   1  -1   6 493.085 299.193   3
   1  -1   6 583.313 173.122   8
  -1   1   6 271.981 772.957   7
  -1  -1   6 432.592 152.909   8
   1   1   6 326.943 809.145   7
  -1   1   6 468.511 172.789   6
  -1  -1   6 558.750 175.235   6
  -1  -1   6 743.056 551.944   7
  -1   1   6 565.423 162.972   8
   1  -1   8-60.8499 1126.73   7
  -1  -1   8 1382.85 272.795   8
   1   1   8 1599.43 304.437   8
  -1   1   8 1311.63 254.601   8
  -1   1   8 316.400 1105.50   7
   1  -1   8 1299.70 262.779   8
   1   1   8 1660.42 232.890  10
  -1  -1   8 1113.83 1024.26   7
   1  -1   8 1876.19 254.446  10
  -1  -1  10 453.807 202.714   8
   1   1  10 336.674 155.229   4
  -1   1  10 594.237 175.555   4
  -1  -1  10 496.365 198.715   4
   1  -1  10 472.463 215.405   4
   2  -1   1 41462.8 1223.13   3
   1   2   1 37446.0 1035.23   1
   2  -1   1 38991.1 814.646   1
   1   2  -1 35276.7 1133.70   1
   1   2   1 42252.3 1144.02   2
  -1  -2   3 15766.4 727.043   3
   1   2   3 17466.1 884.829   2
  -1  -2   5 18307.5 1089.19   3
   2  -1   5 20307.4 1302.22   3
   1   2   7 44564.3 1116.68  10
   1   2   7 43508.8 1280.23   8
   2  -1   7 43319.1 1225.43   8
  -1  -2   7 39504.6 1908.81   7
  -1  -2   7 45986.4 1281.04   8
   2  -1   7 41845.6 1080.41  10
  -1  -2   7 41042.2 1841.28   3
  -1  -2   7 45377.7 1372.33   6
  -2   1   7 43487.2 1160.68   8
  -2   1   9 4241.99 1419.79   7
   2  -1   9 14107.1 671.145  10
  -1  -2   9 2700.76 1190.52   7
   2  -1   9 14501.0 794.755   8
  -2   1   9 13927.5 721.534   8
  -1  -2   9 15328.8 924.495   4
  -2   1   9 14412.2 805.551   4
  -1  -2   9 14868.5 770.490   8
  -1  -2  11 3097.50 354.430   4
   2  -1  11 3280.60 365.047   4
   2   0   0 172229. 1582.13   3
   0   2   0 168673. 1622.50   1
   0   2   2 54246.2 1584.54   2
   2   0   2 50319.6 1534.76   3
  -2   0   2 51332.1 839.962   3
   2   0   4 345.325 220.411   3
  -2   0   4 425.194 142.080   3
   0  -2   4 424.054 200.299   3
   0   2   6 39991.2 1104.30   8
   0  -2   6 38106.7 1754.14   3
   2   0   6 39626.4 1005.92  10
   0  -2   6 39589.5 1142.96   8
   0   2   6 49432.1 2426.69   7
   0  -2   6 40655.8 1225.34   6
  -2   0   6 40677.7 1260.56   6
   2   0   6 38713.5 1107.31   8
   0  -2   6 29798.0 1570.48   7
  -2   0   6 40483.9 1103.41   8
  -2   0   8 35714.2 1127.07   8
  -2   0   8 39594.4 1388.91   4
   2   0   8 35982.0 1226.70   8
   0  -2   8 37285.3 1002.85  10
   2   0   8 35196.0 1049.09  10
   0   2   8 34400.4 1170.98   8
  -2   0   8 32020.6 2059.71   7
   0  -2   8 35939.1 1172.68   8
  -2   0  10 8328.08 562.580   8
  -2   0  10 7464.28 563.529   4
   0   2  10 7684.19 539.522   4
   0  -2  10 8379.38 580.097   8
   0  -2  10 7929.37 629.401   4
   2   1   1 213929. 2657.81   1
   1  -2   1 215437. 2179.06   3
   2   1   3 384872. 4794.47   3
   2   1   3 396556. 3416.24   2
   1  -2   3 391124. 4326.50   3
  -2  -1   5 140680. 2577.51   3
   1  -2   5 156370. 3496.64   3
   1  -2   7 1400.94 841.799   7
  -2  -1   7 12489.2 799.834   4
   2   1   7 10943.7 667.390   8
   1  -2   7 10114.1 525.515  10
  -2  -1   7 13956.4 1207.32   7
  -1   2   7 9932.38 575.518   8
  -2  -1   7 11125.2 637.746   8
   1  -2   7 11375.4 636.777   8
   2   1   7 689.808 1158.62   7
  -1   2   7 10744.3 1353.98   7
  -2  -1   7 11478.5 722.149   6
   2   1   7 10177.1 562.327  10
   1  -2   7 11166.2 1092.01   3
  -2  -1   9 382.313 938.655   7
  -2  -1   9 321.323 199.308   4
  -2  -1   9 382.893 187.926   8
   2   1   9 244.827 125.365  10
   1  -2   9 695.122 168.080  10
   1  -2   9 450.880 218.493   8
  -1   2   9 535.913 192.922   4
   1  -2  11 5530.23 461.050   4
   2   1  11 5563.89 425.001   4
  -2  -1  11 4378.88 385.350   4
   2  -2   0 297196. 1811.54   1
   2   2   0 286981. 3613.93   1
   2  -2   0 290558. 2388.91   3
   2  -2   2 118776. 2271.17   3
   2   2   2 114363. 2325.07   1
  -2  -2   2 108884. 1615.22   3
   2   2   2 120194. 2110.12   2
   2   2  -2 111007. 2708.02   1
   2   2   4 2064.72 352.530   2
   2  -2   4 2468.81 476.829   3
  -2  -2   4 2188.52 331.413   3
  -2   2   6 40337.9 1056.60   8
  -2   2   6 44057.7 1252.60   6
   2  -2   6 42117.3 2043.72   3
  -2  -2   6 43852.7 1481.63   4
   2  -2   6 39506.7 999.754  10
  -2  -2   6 37766.5 1551.24   3
  -2  -2   6 42390.4 1363.60   6
   2   2   6 39299.0 1213.32   8
  -2  -2   6 48165.9 1955.42   7
   2   2   6 41351.0 1092.05  10
  -2  -2   6 40849.0 1209.22   8
  -2   2   6 83908.3 2580.23   7
   2  -2   6 42698.9 1169.80   8
  -2  -2   8 30006.0 1094.30   8
  -2   2   8 21560.6 2078.63   7
   2  -2   8 26266.0 1006.81   8
  -2   2   8 30284.0 1121.78   4
  -2  -2   8 29886.9 1298.31   4
   2   2   8 27308.8 942.677  10
  -2  -2   8 24182.7 1722.80   7
   2  -2   8 26886.2 923.128  10
  -2   2   8 26780.5 958.727   8
  -2  -2  10 6282.35 495.303   8
   2  -2  10 5793.95 408.463  10
  -2  -2  10 5563.16 520.734   4
   2  -2  10 6266.76 563.838   4
   3  -2   1 24097.9 1075.22   3
   3  -2  -1 23813.5 687.722   3
   2   3   1 22018.2 1053.54   1
   2   3   3 50441.0 1627.05   2
  -2  -3   3 52232.9 1406.51   3
   2   3  -3 53820.2 2393.27   1
   3  -2   5 11453.5 1063.42   3
  -2  -3   5 9151.43 668.804   4
  -2  -3   5 11345.2 899.179   3
   3  -2   7 19031.7 777.360  10
  -2  -3   7 20205.6 973.046   6
   2   3   7 19771.3 818.783  10
  -2  -3   7 25045.5 1497.05   7
  -2  -3   7 21727.8 1145.42   4
   3  -2   7 20711.2 1617.40   3
   2   3  -7 20341.0 2661.22   1
  -2  -3   7 20859.8 942.733   8
   3  -2   7 19333.7 855.830   8
  -3   2   7 19455.2 768.764   8
   3  -2   9 7417.60 518.886  10
  -2  -3   9 8093.48 584.631   8
  -3   2   9 7065.60 500.452   8
  -2  -3   9 7756.29 690.855   4
  -2  -3  11 615.418 178.447   8
   3  -2  11 742.175 205.693   4
  -2  -3  11 621.552 166.846   4
   3  -1   0 829144. 5161.43   3
   1   3   0 949339. 6024.82   1
   3  -1   0 999999. 5763.08   1
   1   3   0 866491. 6141.76   2
  -1  -3   2 15009.9 695.137   3
   3  -1   2 17890.4 1085.43   3
   1   3   2 16468.5 872.706   2
   1   3  -2 14984.7 953.112   1
   3  -1   4 52891.0 2069.49   3
  -1  -3   4 45348.1 1550.42   3
  -1  -3   6 7679.32 443.852  10
   3  -1   6 8782.21 558.569   8
  -1  -3   6 8612.72 571.980   8
  -3   1   6 8895.09 609.804   4
   1   3   6 8348.99 563.244   8
  -3   1   6 8413.87 607.027   6
  -1  -3   6 8631.69 890.265   3
  -3   1   6 8511.72 503.490   8
  -1  -3   6 8928.37 612.838   6
  -1  -3   6 8912.84 918.776   7
   3  -1   6 8782.17 979.166   3
   3  -1   6 8580.97 491.712  10
   3  -1   8 741.166 245.985   8
  -3   1   8 537.930 193.578   4
  -3   1   8 673.792 844.482   7
  -1  -3   8 277.573 743.404   7
  -1  -3   8 470.719 221.440   8
  -1  -3   8 651.844 270.342   4
  -3   1   8 567.112 190.211   8
   3  -1   8 371.087 164.423  10
  -1  -3  10 1306.25 263.576   8
  -1  -3  10 1114.79 267.832   4
   3  -1  10 1181.44 209.186  10
   3   0  -1 25370.7 1105.23   1
   0   3  -1 21666.8 876.083   2
   3   0   1 25580.8 1000.40   3
   0   3  -1 24715.1 857.638   1
   0  -3   1 23669.4 808.584   3
   3   0   1 25284.3 969.394   1
   0   3   1 27829.1 1160.79   2
   3   0   3 1345.91 348.412   3
   0   3  -3 1393.86 151.929   2
   0  -3   3 1303.62 273.295   3
   3   0   3 1638.50 219.268   2
   0  -3   5 5552.69 703.822   3
   3   0   5 5504.30 732.475   3
  -3   0   5 5718.78 475.037   4
  -3   0   7 19713.4 955.178   6
   3   0   7 18307.6 773.533  10
   0  -3   7 17560.3 686.598  10
   0  -3   7 19324.8 844.800   8
   0   3   7 17660.4 826.500   8
   0  -3   7 10305.8 1098.14   7
   3   0   7 18068.0 862.832   8
  -3   0   7 18996.8 804.587   8
   0  -3   7 19116.9 1420.37   3
  -3   0   7 20456.7 1000.60   4
  -3   0   7 28628.9 1631.89   7
  -3   0   9 4384.59 407.570   8
  -3   0   9 4314.73 470.288   4
   3   0   9 4424.20 401.301  10
   0  -3   9 5018.36 545.157   4
   0  -3   9 4769.92 454.729   8
   3   0  11 2294.75 309.509   4
   0  -3  11 2532.51 316.225   4
  -1   3   0 145812. 2905.99   2
   3   1   0 175860. 2955.13   1
   1  -3   2 16676.3 771.427   3
   3   1   2 16649.1 904.924   1
  -3  -1   2 16043.9 461.312   3
   3   1  -2 15513.3 1080.94   1
   1  -3   4 28394.9 1379.03   3
   3   1   4 29504.5 1049.94   2
  -3  -1   4 26478.8 932.204   3
  -3  -1   6 16963.3 899.363   6
   1  -3   6 16105.9 649.592  10
   1  -3   6 18063.7 771.412   8
  -3  -1   6 18181.6 930.385   4
  -1   3   6 16134.8 699.982   8
   3   1   6 17506.4 730.003  10
   1  -3   6 18618.5 1420.96   3
   3   1   6 16237.9 805.762   8
  -3  -1   6 16809.3 777.026   8
   1  -3   8 28272.4 1037.92   8
   3   1   8 28147.6 977.846  10
  -3  -1   8 30200.7 1285.30   4
   1  -3   8 28722.3 932.011  10
  -3  -1   8 30022.4 1070.49   8
  -3  -1   8 29449.4 1194.01   6
   1  -3   8 28436.5 1914.21   3
  -3  -1   8 31582.4 1987.65   7
   1  -3  10 4374.28 471.854   4
   3   1  10 4600.50 365.573  10
  -3  -1  10 4540.08 414.639   8
  -3  -1  10 4306.02 441.230   4
   1  -3  10 4924.16 446.979   8
   3   2  -1 495860. 5677.50   1
   2  -3   1 508758. 4096.62   3
   2  -3   3 2827.58 423.297   3
  -3  -2   3 2388.53 256.599   3
   3   2  -3 2782.46 602.959   1
   3   2   3 2919.11 369.474   2
  -3  -2   5 19.1378 147.972   4
  -3  -2   5 171.017 121.461   3
  -3  -2   7 1523.11 281.734   8
   2  -3   7 1298.33 244.159   8
  -3  -2   7 1851.04 348.769   6
   2  -3   7 1391.05 470.829   3
  -3  -2   7 2115.16 652.567   7
   3   2   7 1343.39 235.096  10
  -2   3   7 1933.66 932.974   7
   3   2  -7 1820.57 938.918   1
  -3  -2   7 1434.33 331.690   4
  -2   3   7 1185.25 220.743   8
   2  -3   7 1391.92 227.407  10
   2  -3   9 146.867 131.880  10
  -3  -2   9 80.5757 162.921   4
   3   2   9 44.3249 132.189  10
  -3  -2   9 190.481 854.871   7
   2  -3   9 186.189 191.779   8
  -3  -2   9 58.1983 175.490   8
   2  -3  11 810.181 197.674   4
  -3  -2  11 497.449 174.042   4
  -3  -2  11 766.394 173.948   8
   3   3   0 166484. 3434.05   1
   3  -3   0 171763. 2427.53   3
   3   3   2 25240.8 1297.26   1
   3   3   2 23513.2 1179.24   2
  -3  -3   2 25577.5 952.396   3
   3  -3  -2 25266.9 762.030   3
   3   3  -2 23464.7 1451.25   1
   3  -3   2 26772.1 1261.36   3
   3  -3   4 460.075 288.707   3
  -3  -3   4 136.613 139.476   3
  -3  -3   4 206.243 108.279   4
   3   3  -4 345.516 330.227   1
   3  -3   6 22050.4 792.609  10
  -3   3   6 22007.3 909.136   6
   3  -3   6 23121.5 893.354   8
   3  -3   6 21781.6 1587.26   3
  -3  -3   6 22540.5 1075.20   6
   3   3   6 23551.3 902.106  10
  -3  -3   6 20974.4 1117.90   4
   3  -3   8 21763.4 942.285   8
   3  -3   8 23042.2 1853.47   3
  -3   3   8 21547.3 1936.05   7
  -3  -3   8 24236.0 1238.13   4
  -3  -3   8 28635.9 1814.31   7
  -3   3   8 20867.0 835.144   8
   3   3  -8 27711.9 3445.26   1
  -3  -3   8 24335.8 1050.07   8
   3   3   8 22326.1 909.839  10
   3  -3   8 22510.9 880.236  10
  -3  -3   8 23219.6 1088.83   6
  -3  -3  10 4903.66 428.952   8
   3  -3  10 4850.14 387.215  10
   3  -3  10 4568.57 480.379   4
  -3  -3  10 4559.99 468.126   4
   4  -3  -1 65775.5 1672.95   1
   3   4  -1 61403.3 2200.73   1
   4  -3  -1 62912.2 1618.07   3
   3   4   3 13109.9 933.495   2
   4  -3   3 15319.1 1244.97   3
   3   4  -3 11691.0 1254.20   1
  -3  -4   3 14086.9 851.861   3
  -3  -4   5 13412.3 873.804   4
   3   4  -5 17950.6 2232.23   1
   3   4   5 15151.0 1179.71   2
   4  -3   5 11867.8 631.098   8
   4  -3   5 15195.1 665.126  10
   4  -3   5 15512.0 1351.02   3
  -3  -4   5 13235.5 789.653   6
  -3  -4   5 13728.6 999.390   3
   3   4   5 14418.5 725.538  10
  -3  -4   7 5888.49 572.728   8
   4  -3   7 4790.75 844.762   3
   4  -3   7 5256.76 438.869  10
  -3  -4   7 5860.49 657.013   4
  -3  -4   7 5935.49 578.532   6
  -3  -4   7 6313.81 1023.22   7
   4  -3   7 4768.51 453.600   8
   3   4   7 5461.62 472.211  10
   3   4   9 475.792 161.928  10
  -3  -4   9 735.604 277.875   4
  -3  -4   9 742.476 251.797   8
  -3  -4   9 285.510 869.012   7
   4  -3   9 863.929 226.335  10
  -3  -4  11 1976.15 240.610   8
   4  -3  11 1911.04 261.470   4
  -3  -4  11 1514.73 225.559   4
   2   4   0 155520. 3259.25   2
   2   4   0 192880. 3428.88   1
   4  -2   0 169109. 3110.32   3
   4  -2   0 189168. 2536.24   1
   2   4  -2 1833.42 414.027   1
   4  -2   2 2358.28 483.432   3
   2   4   2 2106.88 362.332   2
   2   4   2 1809.80 357.880   1
  -2  -4   2 1814.60 309.311   3
   2   4  -4 4986.95 940.350   1
   2   4   4 5756.23 676.800   2
   4  -2   4 5981.40 797.939   3
  -2  -4   4 5936.96 517.929   4
  -2  -4   4 5043.68 561.768   3
   4  -2   6 7846.03 497.135  10
  -2  -4   6 6090.59 423.773  10
  -2  -4   6 6748.01 845.812   3
   2   4   6 7000.41 503.164  10
   4  -2   6 7082.55 932.734   3
   4  -2   6 7378.54 547.977   8
  -4   2   6 7183.94 566.608   6
  -2  -4   6 7012.71 594.506   6
   2   4  -6 9737.14 1787.51   1
  -2  -4   6 6704.40 649.842   4
  -4   2   6 7103.24 445.958   8
  -2  -4   8 918.945 256.049   8
  -4   2   8 752.947 181.534   8
  -2  -4   8 859.248 301.576   4
  -4   2   8 1947.39 928.594   7
   2   4  -8 1512.85 869.783   1
   2   4   8 432.395 163.236  10
   4  -2   8 868.782 211.391  10
  -2  -4   8 710.874 782.598   7
   4  -2  10 875.922 194.876  10
  -2  -4  10 904.779 245.885   4
  -2  -4  10 869.082 223.299   8
   1   4  -1 6173.91 558.694   1
   4  -1   1 8145.13 561.597   1
   1   4   1 7982.68 594.633   1
   1   4  -1 9350.22 736.487   2
   1   4   1 9562.61 730.232   2
   4  -1  -1 6691.27 614.057   1
   4  -1   1 8500.89 714.063   3
   1   4   3 99764.8 2609.53   2
   1   4  -3 96582.3 3064.50   1
  -1  -4   3 98729.5 2200.81   3
   1   4  -3 105613. 2285.03   2
   4  -1   5 37308.6 1014.47  10
  -1  -4   5 37671.7 1766.34   3
   4  -1   5 39478.2 2036.00   3
  -1  -4   7 6053.19 639.794   4
  -4   1   7 5975.59 546.285   6
   4  -1   7 5796.42 455.346  10
  -1  -4   7 5766.35 511.976   8
  -1  -4   7 6481.35 889.485   7
   1   4  -7 4539.42 1261.82   1
  -4   1   7 5452.12 425.793   8
  -1  -4   7 5440.60 843.170   3
  -1  -4   7 5681.64 409.898  10
  -1  -4   7 5680.21 524.329   6
   4  -1   7 5222.47 497.183   8
  -4   1   7 6061.79 543.713   4
  -4   1   9 706.744 194.079   8
  -1  -4   9 806.449 963.010   7
  -4   1   9 846.362 964.056   7
  -1  -4   9 1083.81 261.598   8
   4  -1   9 945.572 212.872  10
  -1  -4   9 1070.62 324.481   4
   4  -1  11 63.4308 124.121   4
  -1  -4  11 79.3229 130.782   8
  -1  -4  11 76.6853 112.923   4
   0   4   0 365615. 3236.43   1
   0   4   0 366028. 4625.51   2
   0   4  -2 26765.1 1123.81   2
   0   4  -2 26517.1 1158.42   1
   4   0  -2 26908.9 1504.41   1
   4   0   2 28566.8 1187.58   1
   0   4   2 30751.0 1473.52   2
   0  -4   2 28028.3 1090.30   3
   4   0   2 26781.2 1346.51   3
   4   0   4 1910.45 259.436   2
   0  -4   4 1762.37 369.059   3
   4   0   4 1907.18 461.652   3
  -4   0   6 3051.08 345.643   8
   0  -4   6 3062.67 303.804  10
  -4   0   6 3406.20 417.258   4
  -4   0   6 4039.50 772.991   7
   4   0   6 3643.19 411.935   8
   0  -4   6 3642.47 379.837   8
   0  -4   6 3280.82 649.647   3
   4   0   6 3514.22 351.773  10
  -4   0   6 3270.60 435.681   6
   0  -4   6 3452.20 657.302   7
   0  -4   6 3666.83 402.554   6
  -4   0   8 1584.27 307.777   4
   4   0   8 1535.89 262.508  10
   0  -4   8 1529.44 247.347  10
  -4   0   8 1457.62 314.811   6
  -4   0   8 1470.78 257.900   8
   0   4  -8-1019.08 606.040   1
   4   0  -8 2407.30 1144.58   1
   0  -4   8 1459.42 290.367   8
   0  -4   8 1749.61 382.190   4
   0  -4   8-110.408 882.733   7
  -4   0   8 2997.11 897.072   7
   4   0  10 986.089 202.213  10
  -4   0  10 1244.39 219.421   8
   0  -4  10 996.265 229.924   8
   0  -4  10 859.086 243.476   4
   4   1  -1 42077.0 1731.96   1
  -1   4  -1 38461.5 793.087   1
   1  -4   1 41396.6 1236.52   3
  -1   4  -1 38517.8 1567.67   2
   1  -4   3 502.072 218.807   3
  -4  -1   3 33.5900 67.4420   3
   4   1  -3 288.594 301.658   1
  -4  -1   5 1637.34 284.897   4
  -4  -1   5 1472.37 281.773   6
   1  -4   5 1432.74 448.299   3
   1  -4   5 1323.90 203.420  10
   4   1   5 1746.90 251.736  10
   4   1   7 29784.8 1032.29  10
  -4  -1   7 32401.4 1128.09   8
   1  -4   7 30267.1 1962.71   3
   1  -4   7 30861.4 1057.73   8
  -4  -1   7 31495.2 1322.43   4
  -4  -1   7 32125.1 1318.85   6
   1  -4   7 29605.8 960.677  10
   1  -4   9 11878.4 618.000  10
   1  -4   9 11874.8 829.894   4
  -4  -1   9 11880.4 658.106   8
  -4  -1   9 10318.7 1440.25   7
  -4  -1   9 10408.9 739.828   4
   1  -4   9 10495.2 623.561   8
   4   1   9 11321.5 641.888  10
   1  -4  11 1075.87 209.325   4
   4   1  11 1238.65 229.771   4
   4   2   0 280196. 4615.80   1
   2  -4   0 269988. 3068.85   3
   4   2   2 19570.2 1188.69   1
   2  -4   2 18976.3 955.291   3
   4   2  -2 18341.3 1333.61   1
  -4  -2   2 18399.2 692.157   3
  -2   4  -2 15432.4 562.087   1
  -4  -2   4 1910.44 286.510   4
   4   2  -4 2048.70 743.362   1
   4   2   4 1907.82 322.706   2
   2  -4   4 1931.56 421.181   3
   2  -4   6-933.347 585.846   7
   2  -4   6 3335.51 331.513  10
   4   2  -6 5204.21 1504.39   1
  -4  -2   6 2673.65 406.679   6
   2  -4   6 2833.45 641.010   3
   2  -4   6 3276.15 343.825   8
  -4  -2   6 3437.83 450.696   4
  -2   4   6 8077.39 1244.82   7
   4   2   6 3274.51 366.062  10
   2  -4   8 112.933 145.889   8
   2  -4   8 381.761 329.668   3
  -4  -2   8 94.4986 181.185   4
  -4  -2   8 199.552 224.708   6
   4   2   8-16.7671 167.249  10
  -4  -2   8 174.661 845.420   7
  -4  -2   8 114.961 180.924   8
   2  -4   8 113.941 126.660  10
   2  -4  10 738.683 174.956  10
   2  -4  10 615.933 204.802   4
  -4  -2  10 452.713 151.359   4
  -4  -2  10-178.293 1011.01   7
  -4  -2  10 628.058 187.969   8
   4   2  10 588.029 168.947  10
   3  -4  -1 87462.2 1786.88   3
   3  -4   1 87282.1 2028.32   3
   4   3   1 90413.1 2747.11   1
   4   3  -3 3491.41 725.485   1
  -4  -3   3 3212.13 346.351   3
   3  -4   3 3196.92 512.959   3
   4   3   3 3814.43 505.174   2
   4   3   5 206.080 124.114  10
   3  -4   5 621.773 343.364   3
  -4  -3   5 5.97055 146.536   6
   4   3  -5 785.718 613.899   1
   3  -4   5 84.2892 106.008  10
   3  -4   5 213.236 120.094   8
   4   3   5 641.192 275.030   2
  -4  -3   5 392.989 210.164   4
   3  -4   7 6111.25 965.634   3
  -4  -3   7 6409.99 588.947   8
   3  -4   7 5684.14 467.934   8
   4   3  -7 5783.20 1740.33   1
  -4  -3   7 5782.41 650.458   4
  -4  -3   7 7727.68 1125.02   7
   4   3   7 5840.59 498.492  10
   3  -4   7 5928.47 459.860  10
  -4  -3   7 6252.30 637.293   6
  -4  -3   9 397.250 840.357   7
  -4  -3   9 743.454 246.341   8
  -4  -3   9 700.236 247.688   4
   3  -4   9 568.521 200.533  10
   4   3   9 669.909 181.328  10
   3  -4   9 745.854 214.159   8
   3  -4  11 769.000 183.942   4
  -4  -3  11 999.853 176.603   8
   4  -4   0 2068.46 348.042   3
   4   4   0 1277.69 384.879   1
   4   4   2 16492.8 1235.21   1
   4   4  -2 14009.5 1265.74   1
  -4  -4   2 15148.1 861.900   3
   4  -4   2 15891.4 1126.72   3
   4   4   2 14827.6 1117.30   2
   4   4  -4-76.6803 347.242   1
  -4  -4   4 330.167 187.668   4
   4   4   4 413.292 226.265   2
  -4  -4   4 83.7769 105.323   3
   4  -4   4 64.7624 257.869   3
   4  -4   4 360.802 128.133  10
   4  -4   6 19906.8 803.762  10
  -4  -4   6 18247.7 1045.51   6
   4  -4   6 20324.2 1658.79   3
   4  -4   6 18983.6 837.457   8
   4   4   6 20793.6 929.884  10
  -4  -4   6 17117.2 1104.24   4
   4   4  -8 21631.7 3306.71   1
   4  -4   8 21405.7 1865.66   3
   4  -4   8 18376.7 869.244   8
  -4  -4   8 23315.2 1088.41   8
  -4  -4   8 21860.8 1093.43   6
   4  -4   8 19647.9 845.366  10
  -4  -4   8 20411.6 1207.21   4
  -4  -4   8 23985.4 1727.51   7
   4   4   8 19778.3 888.149  10
  -4  -4  10 3832.79 418.937   4
  -4  -4  10 4782.59 407.122   8
   4  -4  10 4872.25 382.461  10
   4  -4  10 4526.21 449.252   4
   4   5   1 37703.2 1966.64   2
   4   5  -1 38763.3 2031.38   1
   4   5   1 43035.2 2108.56   1
   5  -4  -1 36487.0 1629.54   3
   5  -4  -1 39427.5 1289.70   1
   5  -4   3 1570.66 525.162   3
  -4  -5   3 1987.58 313.601   4
   4   5  -3 417.165 353.768   1
  -4  -5   3 966.979 275.364   3
   4   5   3 847.451 309.757   2
  -4  -5   5 1902.44 400.602   4
  -5   4   5 2020.13 282.422   9
   5  -4   5 2331.61 622.493   3
   5  -4   5 2401.10 299.144  10
  -4  -5   5 1783.72 327.321   6
   4   5  -5 2613.54 1034.11   1
   4   5   5 2074.76 330.087  10
   4   5   5 1757.17 485.801   2
  -4  -5   7 2843.37 445.495   6
  -4  -5   7 2687.30 920.233   7
   4   5   7 2766.03 380.773  10
   5  -4   7 2488.26 333.183  10
  -4  -5   7 2362.33 478.312   4
   5  -4   7 2317.73 606.713   3
   4   5  -7 2740.71 1281.20   1
  -4  -5   9 657.698 807.623   7
  -4  -5   9 776.925 246.970   8
   5  -4   9 727.528 203.575  10
   4   5   9 748.272 196.018  10
  -4  -5   9 681.022 250.990   4
  -4  -5  11 526.701 134.114   8
   5  -3   0 336781. 3283.74   1
   3   5   0 329626. 5625.13   2
  -3  -5   2 128023. 2687.09   3
   5  -3  -2 125465. 3226.41   1
   3   5   2 131047. 3121.00   2
   3   5   2 130465. 3328.04   1
   5  -3   4 81211.5 1560.38  10
  -3  -5   4 74801.3 2294.17   3
  -3  -5   4 78359.2 2018.60   4
   3   5  -4 81617.9 3946.96   1
   5  -3   4 82708.2 3184.16   3
   5  -3   6 3395.03 740.180   3
   3   5   6 3528.47 399.141  10
   5  -3   6 3581.54 369.682  10
  -3  -5   6 2803.53 486.756   4
   5  -3   6 3215.38 368.689   8
   3   5  -6 1577.02 914.386   1
  -3  -5   6 3016.50 424.967   6
  -5   3   6 3335.88 384.502   6
   5  -3   8 640.529 214.744  10
  -3  -5   8 838.965 285.038   8
   5  -3  -8 1989.14 1031.84   1
  -3  -5   8 414.512 214.896   6
  -3  -5   8 891.884 790.193   7
  -5   3   8 143.948 924.520   7
   3   5   8 506.876 169.173  10
  -3  -5   8 698.138 305.733   4
   3   5  -8 313.260 976.227   1
  -3  -5  10 419.340 848.334   7
   5  -3  10 196.041 139.467  10
  -3  -5  10 234.446 159.543   8
  -3  -5  10 459.090 182.055   4
   5  -2  -1 55235.6 1847.38   1
   2   5  -1 56240.9 2000.64   1
   2   5   1 57250.7 1917.81   1
   5  -2   1 59664.0 1469.85   1
   5  -2  -1 48509.3 952.998   3
   5  -2   1 55422.2 2175.57   3
   2   5  -1 66355.9 2423.47   2
   2   5   1 64125.2 2117.94   2
   2   5  -3 47780.2 2119.71   2
   2   5   3 47138.4 1946.28   2
   5  -2  -3 45376.5 2471.45   1
   2   5  -3 46308.3 2334.09   1
  -2  -5   3 48683.1 1734.89   3
   2   5   5 10030.7 609.946  10
  -5   2   5 10200.4 573.153   9
  -2  -5   5 9804.28 967.212   3
   2   5  -5 11752.1 1747.79   1
  -2  -5   5 8992.04 657.811   6
  -2  -5   5 7987.59 708.774   4
   5  -2   5 11323.7 608.375  10
  -5   2   5 9455.38 1114.42   7
  -5   2   5 8311.90 619.694   6
   5  -2   5 5230.11 459.690   8
   5  -2   5 10946.2 1187.76   3
  -2  -5   7 2559.29 475.258   4
   2   5   7 2092.34 293.176  10
  -5   2   7 2772.51 394.849   6
   5  -2   7 2313.06 322.207  10
  -2  -5   7 2410.04 384.138   8
  -2  -5   7 2703.98 390.999   6
  -5   2   7 5066.31 841.558   7
   2   5  -7 4700.99 1437.66   1
  -2  -5   7 2483.72 707.995   7
  -2  -5   7 2696.28 297.478  10
  -5   2   9 300.212 843.378   7
   5  -2   9 789.790 219.114  10
  -2  -5   9 985.743 254.200   8
  -2  -5   9 328.472 744.600   7
  -2  -5   9 470.600 215.594   4
   5  -2  11 130.618 102.087   4
  -2  -5  11 45.6255 95.4113   8
  -2  -5  11 65.8620 81.8933   4
   5  -2  11 145.236 58.1052  10
   5  -1   0 147077. 2965.56   1
   5  -1   0 158167. 2407.23   3
   1   5   0 142865. 2638.03   1
   1   5   0 153759. 3281.15   2
   5  -1  -2 55226.9 2252.44   1
   1   5  -2 47281.2 1827.20   2
   1   5  -2 50733.4 1842.28   1
   5  -1   2 56838.8 1691.51   1
  -1  -5   2 56155.6 1705.55   3
   1   5   2 60059.0 2142.44   2
   5  -1   2 53014.4 2147.71   3
   1   5  -4 50904.1 2698.83   1
   5  -1   4 53080.2 2415.32   3
   5  -1  -4 49845.6 3232.23   1
  -1  -5   4 47062.1 1847.12   3
  -1  -5   4 45800.3 1457.82   4
  -5   1   6 198.756 628.536   7
  -1  -5   6 314.102 201.486   3
  -1  -5   6 374.487 146.785  10
  -1  -5   6 156.786 232.172   4
   1   5  -6 540.945 478.596   1
  -1  -5   6 208.733 491.363   7
   5  -1   6 321.083 157.048  10
  -1  -5   6 169.711 163.472   6
  -5   1   6 105.737 160.264   6
  -5   1   6 26.6808 131.506   8
   5  -1   8 3109.22 378.620  10
  -1  -5   8 1951.20 827.531   7
  -1  -5   8 3172.23 328.362  10
  -5   1   8 3226.16 430.394   6
  -5   1   8 2420.47 291.599   8
  -1  -5   8 3331.35 499.472   4
  -1  -5   8 3241.18 394.544   8
  -1  -5  10 544.447 212.455   4
  -1  -5  10 253.291 153.246   8
   5  -1  10 322.121 149.067  10
   5   0   1 23780.1 1240.20   1
   0   5   1 24698.9 1419.95   2
   5   0  -1 20172.8 1240.32   1
   0  -5   1 20835.3 990.672   3
   0   5  -1 19509.4 871.971   1
   0   5  -1 16523.0 1122.78   2
   0   5  -3 3433.21 410.928   2
   5   0  -3 2976.50 707.281   1
   0  -5   3 2917.09 431.750   3
   5   0   3 3609.60 625.569   3
   0   5  -3 2804.11 467.943   1
   0   5  -5 5427.95 1025.54   1
   0  -5   5 4962.67 369.379  10
   5   0   5 5331.18 438.776  10
   5   0  -5 5497.21 1368.75   1
   0  -5   5 5134.04 745.843   3
  -5   0   5 4753.40 461.608   4
  -5   0   5 4644.23 490.682   6
   0  -5   7 3537.10 513.602   4
  -5   0   7 3170.75 454.719   6
   5   0  -7 4134.66 1365.57   1
   0  -5   7 3406.15 391.558   8
  -5   0   7 2848.04 331.942   8
   0  -5   7 2631.23 714.417   3
   5   0   7 3271.91 371.572  10
   0  -5   7 3369.64 357.311  10
   0  -5   7 1902.39 634.032   7
  -5   0   7 3051.70 409.215   4
  -5   0   7 5172.89 884.018   7
  -5   0   9 416.084 156.923   8
   5   0   9 390.182 174.943  10
   0  -5   9 389.151 137.470  10
   0  -5   9-531.122 981.548   7
   0  -5   9 398.256 238.145   4
   0  -5   9 463.345 194.080   8
  -5   0   9 648.008 942.340   7
   0  -5  11 852.650 181.947   4
   5   0  11 710.292 179.139   4
   1  -5   0 93462.6 2036.73   3
   5   1   0 100286. 2853.70   1
   1  -5   2 953.563 258.621   3
   5   1   2 964.040 306.525   1
  -1   5  -2 820.865 166.348   1
  -5  -1   2 311.344 74.0576   3
   5   1  -2 813.946 361.035   1
   5   1  -4 3258.30 897.861   1
  -5  -1   4 3841.82 398.598   4
   5   1   4 3664.67 477.412   2
  -1   5  -4 4050.75 714.940   1
   1  -5   4 3475.19 534.945   3
  -5  -1   6 11823.3 845.965   6
  -5  -1   6 12742.3 847.154   4
   1  -5   6 11597.8 1002.01   7
   1  -5   6 13156.3 701.139   8
   5   1  -6 16004.6 2651.31   1
   5   1   6 13478.6 713.255  10
   1  -5   6 12687.1 641.840  10
   1  -5   6 12232.2 1302.57   3
   1  -5   8 2262.55 727.760   3
   1  -5   8 3763.01 515.209   4
  -5  -1   8 3405.96 379.279   8
   1  -5   8 3395.90 383.657   8
  -5  -1   8 3679.33 465.748   4
   5   1  -8 4766.86 1739.51   1
   5   1   8 3370.51 395.731  10
  -5  -1   8 3985.02 515.464   6
   1  -5   8 3979.30 394.943  10
   5   1  10 1558.35 240.088  10
   1  -5  10 128.874 86.6784  10
  -5  -1  10 1771.77 245.659   8
   1  -5  10 1762.62 315.412   4
   1  -5  10 1564.40 255.587   8
  -5  -1  10 1202.63 1026.08   7
   2  -5   1 14236.8 842.889   3
   5   2   1 13710.7 1130.10   1
   5   2  -1 11847.6 1060.76   1
   2  -5   3 253.361 196.394   3
   5   2  -3 137.065 274.420   1
   5   2   3 167.753 227.231   1
   5   2   5 165.749 122.967  10
   2  -5   5 322.287 150.572  10
   2  -5   5 267.279 283.552   3
  -5  -2   5 118.030 149.016   6
   5   2  -5 534.030 550.000   1
  -5  -2   5 307.182 157.738   4
   2  -5   5 1014.06 178.969   8
   5   2   7 28192.1 1072.28  10
   2  -5   7 27550.1 976.814  10
  -5  -2   7 29975.8 1176.17   8
  -5  -2   7 27777.8 1332.07   4
   2  -5   7 31966.2 2195.02   3
   2  -5   7 28657.0 1009.90   8
  -5  -2   7 29624.2 1384.64   6
  -5  -2   9 10359.3 1315.48   7
  -5  -2   9 7542.40 633.374   4
   2  -5   9 8827.22 702.200   4
   2  -5   9 7424.54 523.746   8
  -5  -2   9 9035.99 585.838   8
   5   2   9 8133.50 564.925  10
   2  -5   9 9087.59 559.050  10
   2  -5  11 1045.89 203.445   4
   5   3   0 166897. 4198.60   1
   3  -5   0 169563. 2920.67   3
   3  -5   2 1451.71 328.952   3
   3  -5  -2 1574.66 286.157   3
   5   3   2 1846.95 462.184   1
   5   3  -2 1313.33 427.160   1
  -5  -3   4 32356.5 1235.01   4
   5   3  -4 32560.3 2818.53   1
   3  -5   4 26193.3 839.629  10
   3  -5   4 27536.6 1654.68   3
   5   3   4 31719.2 1566.73   2
   5   3   4 25878.7 946.239  10
   5   3  -6 21627.0 3186.62   1
  -5  -3   6 17180.7 1080.40   4
   3  -5   6 17224.6 1593.50   3
  -5  -3   6 17977.6 1082.64   6
   5   3   6 18325.3 882.813  10
   3  -5   6 19264.2 830.708   8
   3  -5   6 16831.0 749.375  10
  -5  -3   8 4036.13 531.911   6
  -5  -3   8 4146.38 478.607   8
  -5  -3   8 4708.97 1065.00   7
   3  -5   8 3877.46 396.966  10
  -5  -3   8 3399.95 508.768   4
   3  -5   8 3185.46 375.537   8
   5   3  -8 4594.65 1720.88   1
   5   3   8 3703.53 420.353  10
   3  -5  10 3290.25 312.442  10
  -5  -3  10 3288.51 325.577   8
   5   3  10 3194.05 308.038  10
  -5  -3  10 2597.12 329.205   4
   3  -5  10 3041.21 382.026   4
   4  -5   1 268885. 4333.49   3
   5   4   1 262359. 5394.22   1
   4  -5  -1 254029. 3927.90   3
   5   4  -3 13405.8 1524.81   1
   5   4   3 15745.2 1183.71   2
   4  -5   3 14050.4 1204.97   3
  -5  -4   3 16410.3 844.141   4
  -5  -4   3 13836.7 847.890   3
   5   4   3 16520.6 1460.51   1
   5   4  -5 16059.4 2433.91   1
  -4   5   5 11785.7 656.629   9
  -5  -4   5 13940.9 958.612   4
  -5  -4   5 14244.1 887.916   6
   5   4   5 14796.9 1275.22   2
   4  -5   5 12762.3 1365.13   3
   4  -5   5 12725.7 643.458  10
   5   4   5 13344.7 760.099  10
   5   4   7 61172.9 1641.28  10
   4  -5   7 57635.5 1428.24  10
  -5  -4   7 54500.1 2020.97   4
   4  -5   7 57009.3 1488.89   8
  -5  -4   7 60770.4 1979.61   6
   4  -5   7 59379.0 3013.38   3
   4  -5   9 23831.2 1090.79   4
  -5  -4   9 22267.3 1108.42   4
  -5  -4   9 26543.3 1027.66   8
   4  -5   9 25922.7 925.577  10
   5   4   9 23376.2 890.329  10
  -5  -4   9 25175.7 1825.85   7
  -5  -4  11 2555.50 225.061   8
   5  -5   0 50595.7 2140.94   3
   5   5   0 44525.1 2347.63   1
   5   5  -2 1526.51 486.403   1
  -5  -5   2 1911.88 382.717   3
   5  -5   2 2082.97 495.474   3
  -5  -5   2 2246.76 321.073   4
   5   5   2 1867.78 518.330   2
   5   5   2 2299.98 565.879   1
  -5   5   4 1572.58 251.445   9
   5   5   4 1018.15 216.632  11
   5  -5   4 1270.68 518.914   3
  -5  -5   4 1772.45 359.527   4
   5  -5   4 1835.66 276.118  10
   5   5  -4 2204.75 760.034   1
   5   5   4 1686.24 463.224   2
   5   5   4 1712.28 291.182  10
  -5  -5   4 1535.75 284.579   6
  -5  -5   6 11289.1 879.906   6
   5  -5   6 11647.3 1344.14   3
  -5  -5   6 10165.4 917.510   4
   5  -5   6 11384.8 651.055  10
   5   5   6 12825.7 797.285  10
  -5  -5   8 7739.36 1138.12   7
  -5  -5   8 6576.48 617.900   8
   5  -5   8 5416.33 462.721  10
  -5  -5   8 6273.95 611.278   6
   5   5   8 5747.78 505.739  10
  -5  -5   8 5525.49 642.116   4
   5  -5  10 2343.64 304.515   4
   5  -5  10 2777.20 277.380  10
  -5  -5  10 2039.64 290.441   4
  -5  -5  10 2613.97 284.615   8
   5   6   1 73003.6 1896.23  11
   5   6   1 77032.1 3169.69   2
   5   6   1 73569.6 3089.74   1
   6  -5   1 76981.2 3400.33   3
  -6   5   1 78082.1 1725.80   9
   6  -5   3 2758.53 352.050  10
  -5  -6   3 2764.53 485.074   3
   5   6  -3 2905.22 373.312  11
   5   6   3 2671.70 350.659  11
  -5  -6   3 3275.98 452.395   4
   5   6  -3 2446.42 664.473   1
   5   6   3 2651.04 571.595   2
   6  -5   3 3172.44 735.691   3
   5   6   3 3046.53 368.172  10
  -6   5   3 3003.58 353.560   9
   6  -5  -5 5609.94 1380.39   1
   6  -5   5 6578.97 505.099  10
   6  -5   5 6058.88 1007.86   3
  -6   5   5 5674.19 495.843   9
   5   6  -5 5253.79 1318.78   1
   5   6   5 5974.94 554.865  10
  -5  -6   5 5751.17 693.307   4
   5   6   5 6519.27 1007.42   2
  -5  -6   5 6500.99 617.162   6
   6  -5   7 1235.41 262.737  10
   6  -5   7 1805.64 581.330   3
  -5  -6   7 875.502 333.368   4
   5   6   7 1423.87 294.999  10
  -5  -6   7 1288.24 348.423   6
  -5  -6   9 144.801 178.913   4
   6  -5   9 137.466 134.745  10
  -5  -6   9 641.407 671.898   7
  -5  -6   9 521.054 244.177   8
   4   6   0 11004.7 1114.35   1
   6  -4   0 10364.7 1068.28   3
   4   6   0 11423.2 1249.91   2
   6  -4  -2 33768.4 1735.64   1
  -4  -6   2 35680.6 1598.31   3
  -4  -6   2 43635.8 1339.56   4
   4   6   2 37542.6 2054.45   1
   6  -4   2 44808.1 2506.80   3
   4   6   2 38208.7 1937.60   2
   4   6  -2 33566.8 2084.43   1
  -4  -6   4 64267.4 2297.53   3
   6  -4   4 69637.9 1575.74  10
   4   6  -4 63442.3 3686.41   1
   4   6  -4 74634.6 3344.36   2
   6  -4   4 73970.0 3270.17   3
   6  -4  -4 60113.0 3721.24   1
   4   6   4 61377.0 2703.52   2
  -4  -6   4 67332.3 2040.25   4
  -6   4   4 59537.6 1491.06   9
   4   6   4 62384.0 1603.94  10
  -4  -6   4 59690.5 1598.17   6
   6  -4   6 283.909 173.640  10
   4   6   6 270.676 192.144  10
  -6   4   6 326.538 168.541   9
   6  -4   6 98.4198 253.274   3
  -4  -6   6 297.435 224.092   4
  -4  -6   6 252.788 230.556   6
   6  -4   8 3433.13 389.678  10
  -4  -6   8 3364.69 531.248   4
  -4  -6   8 2905.77 851.271   7
  -4  -6   8 3504.52 476.763   8
  -4  -6   8 3199.35 420.306   6
  -4  -6  10 262.287 131.658   4
   6  -4  10 213.101 124.616  10
   6  -4  10 172.414 138.099   4
  -4  -6  10 435.025 157.082   8
  -4  -6  10 440.643 589.309   7
   3   6   1 234597. 4683.27   2
   3   6   1 217010. 4369.21   1
   3   6  -1 229110. 5150.22   2
   3   6  -1 204397. 4503.25   1
   6  -3  -1 205702. 3581.66   1
   6  -3   1 197179. 4734.06   3
   3   6  -3 85075.4 3394.27   1
  -3  -6   3 91825.9 2658.88   3
  -3  -6   3 104420. 2189.77   4
   3   6  -3 91122.5 3404.74   2
   6  -3  -3 89126.6 3619.15   1
   3   6   3 85582.3 2930.44   2
   6  -3   3 107790. 3765.99   3
   6  -3  -5 24028.6 2867.20   1
   3   6   5 29895.9 1120.06  10
  -3  -6   5 24318.9 1134.13   6
   6  -3   5 31472.8 1059.62  10
  -6   3   5 28301.1 1007.01   9
  -3  -6   5 30642.4 1788.35   3
   6  -3   5 30058.9 2076.94   3
  -3  -6   5 25340.6 1348.16   4
   3   6  -5 32440.0 2957.51   1
   3   6   5 28334.2 1928.83   2
   6  -3  -7 892.099 854.916   1
   6  -3   7 59.6308 160.578  10
   3   6   7 84.3182 143.341  10
  -6   3   7-51.5287 114.738   6
  -3  -6   7 206.071 608.276   7
  -3  -6   7 324.382 270.644   4
  -3  -6   7 249.601 212.739   6
  -3  -6   9 1.18854 735.372   7
   6  -3   9 40.2027 144.141  10
  -3  -6   9 13.4880 169.553   8
  -3  -6   9 46.3695 176.220   4
  -3  -6  11-40.9877 78.8948   8
   2   6   0 104575. 2744.52   1
   6  -2   0 108639. 2622.00   1
   6  -2   0 124162. 2490.26   3
   2   6   0 125772. 3394.67   2
   6  -2  -2 16612.0 1296.64   1
   2   6  -2 15913.8 1182.41   1
   2   6   2 19511.6 1352.80   2
   6  -2   2 17733.5 1419.52   3
   2   6  -2 17242.1 1338.52   2
  -2  -6   2 17262.9 1079.12   3
   6  -2   4 1691.17 521.924   3
  -6   2   4 1362.20 248.280   9
  -2  -6   4 1179.06 368.140   3
  -2  -6   4 1501.29 321.630   4
   6  -2  -4 264.362 349.858   1
   6  -2   4 1497.08 249.771  10
   2   6   4 1203.38 419.480   2
   2   6   4 1300.40 236.662  10
   2   6  -4 1547.77 520.168   1
   2   6  -6 530.166 710.913   1
   6  -2   6 2008.21 305.363  10
  -6   2   6 1091.87 265.091   6
  -2  -6   6 1825.74 332.664   6
   6  -2   6 1918.44 580.715   3
  -2  -6   6 1840.74 418.026   4
  -2  -6   6 3083.21 652.176   3
   6  -2  -6 1376.20 952.266   1
  -2  -6   6 1670.02 274.109  10
  -6   2   6 1771.50 633.088   7
  -6   2   6 1807.43 284.852   9
   2   6   6 1793.49 294.411  10
  -2  -6   8 677.257 702.022   7
   6  -2   8 604.488 210.340  10
  -2  -6   8 572.468 150.646  10
  -2  -6   8 571.737 303.387   4
  -2  -6   8 595.121 232.309   8
  -2  -6  10 578.542 173.883   8
  -2  -6  10 595.966 203.652   4
   6  -2  10 830.350 183.655  10
   1   6  -1 57074.6 1867.50   1
   6  -1   1 64921.6 2139.13   3
  -1  -6   1 58720.1 1860.64   3
   1   6   1 69932.5 2570.63   2
   1   6  -1 54250.0 2282.03   2
   6  -1  -1 54470.5 2095.24   1
   6  -1   1 63742.3 2003.83   1
   1   6   1 61165.4 1894.58   1
  -1  -6   3 5715.08 653.405   3
   6  -1   3 5822.11 841.558   3
   1   6  -3 5228.65 713.306   1
   1   6   3 5387.58 782.305   2
  -1  -6   3 6897.44 540.150   4
   1   6  -3 7557.28 800.678   2
   6  -1  -3 5230.41 926.432   1
  -6   1   5-135.932 146.900   6
   1   6   5 44.2534 127.587  10
   6  -1   5 128.263 136.211  10
   6  -1   5-441.628 374.549   3
  -1  -6   5 14.3508 151.167   4
  -1  -6   5 46.6429 126.241   6
  -6   1   5 32.0815 131.022   9
   6  -1  -5-768.009 768.494   1
   1   6  -5-35.7989 349.747   1
  -1  -6   5 463.884 325.191   3
  -1  -6   7 1845.40 291.507  10
  -6   1   7 3580.28 794.945   7
  -6   1   7 2167.38 394.508   6
   6  -1  -7 3185.38 1323.32   1
  -1  -6   7 1321.08 621.832   3
  -1  -6   7 2086.02 331.994   8
  -1  -6   7 1979.40 731.771   7
   6  -1   7 1899.06 308.785  10
  -1  -6   7 1899.46 413.222   4
  -1  -6   9-310.099 794.191   7
   6  -1   9 439.611 182.258  10
  -1  -6   9 448.466 238.141   4
  -1  -6   9 444.215 197.332   8
   0   6   0 407155. 4096.04   1
   6   0   0 437386. 6197.57   1
   6   0  -2 214151. 4966.83   1
   0   6  -2 216387. 3389.07   1
   0   6  -2 222085. 4443.95   2
   0  -6   2 223820. 3757.98   3
   6   0   2 228478. 4113.09   1
  -6   0   4 182339. 2476.29   9
   0  -6   4 171413. 3809.80   3
   0  -6   4 170699. 2932.30   4
   6   0   4 166563. 2437.33  10
   0   6  -4 183314. 4727.27   1
  -6   0   4 175532. 2538.30   4
  -6   0   4 179718. 2705.25   6
   0  -6   6 14563.2 1192.44   7
  -6   0   6 10650.7 822.224   6
  -6   0   6 12178.6 791.620   4
   0  -6   6 11817.6 912.576   4
   6   0   6 12908.5 726.486  10
  -6   0   6 11175.9 639.881   8
   0  -6   6 11715.0 703.896   8
   6   0  -6 13817.4 2553.53   1
  -6   0   6 13930.3 1258.99   7
   0  -6   6 11961.2 651.272  10
   0  -6   6 13939.7 1449.93   3
   6   0   8 497.457 210.495  10
   0  -6   8 842.079 215.459  10
  -6   0   8 691.278 742.557   7
  -6   0   8 367.323 151.570   8
  -6   0   8 592.704 272.882   6
   0  -6   8-613.842 835.730   7
   0  -6   8 494.195 193.386   8
   0  -6   8 560.789 271.290   4
   0  -6  10 464.116 189.671   4
   0  -6  10 434.296 160.789   8
  -6   0  10 640.045 754.699   7
   6   0  10 364.601 147.486  10
   1  -6   1 126441. 2707.90   3
   6   1  -1 117556. 3411.80   1
   6   1  -3 375.681 319.173   1
  -6  -1   3 199.261 139.642   4
   1  -6   3 454.842 253.404   3
  -6  -1   5 527.349 198.569   4
   6   1   5 493.250 185.362  10
   1  -6   5 581.175 166.667  10
   6   1  -5 1359.53 867.472   1
  -6  -1   5 1783.85 337.486   6
   1  -6   5 810.866 391.285   3
   1  -6   5 669.566 188.998   8
   1  -6   7 995.441 236.593  10
  -6  -1   7 1275.96 685.982   7
   1  -6   7-631.466 857.612   7
   1  -6   7 1029.41 317.811   4
  -6  -1   7 883.680 238.654   4
   6   1  -7 157.748 958.157   1
  -6  -1   7 782.984 299.685   6
  -6  -1   7 816.579 224.051   8
   1  -6   7 639.778 188.147   8
   1  -6   7 1344.58 571.954   3
   6   1   7 1017.58 258.898  10
   6   1   9 95.0702 145.302  10
  -6  -1   9-17.4506 789.919   7
   1  -6   9 278.697 216.353   4
   1  -6   9 123.306 147.776   8
  -6  -1   9 226.912 143.260   8
   1  -6   9 150.521 148.032  10
  -6  -1   9-10.1029 114.881   4
   6   2   0 138272. 3921.01   1
   2  -6   0 136136. 2822.28   3
   2  -6   2 42006.8 1656.46   3
   6   2  -2 40837.7 2305.82   1
  -6  -2   2 47773.6 1215.61   4
   6   2   2 49614.5 2291.78   1
   6   2   4 2056.02 283.596  10
   6   2  -4 4143.73 1126.71   1
  -6  -2   4 2296.54 339.715   4
   6   2   4 2498.29 465.895   2
   2  -6   4 3516.94 604.143   3
  -6  -2   6 30706.3 1383.99   4
  -6  -2   6 33862.2 1513.38   6
   2  -6   6 31185.7 1035.93  10
   2  -6   6 34842.0 1108.28   8
   6   2   6 33416.4 1211.60  10
   2  -6   6 35276.1 2346.93   3
   2  -6   8 38868.9 1174.48  10
   2  -6   8 37354.9 1516.69   4
   2  -6   8 33248.4 1071.02   8
  -6  -2   8 34894.0 1411.39   4
  -6  -2   8 37426.2 1221.06   8
   6   2   8 35803.5 1232.51  10
  -6  -2   8 39558.6 1562.35   6
   2  -6  10 7156.48 555.432   4
  -6  -2  10 7478.06 420.670   8
   6   2  10 8077.74 477.395  10
   3  -6  -1 28021.5 1340.32   3
   6   3  -1 23104.7 1637.84   1
   3  -6   1 26881.4 1326.01   3
   6   3   1 28149.5 1840.72   1
   6   3   3 13626.5 1341.99   1
   3  -6   3 12113.7 1038.59   3
   3  -6  -3 9373.84 863.398   3
   6   3  -3 10235.5 1412.88   1
  -6  -3   3 13509.8 742.886   4
   3  -6   5 12677.5 652.662  10
   3  -6   5 13272.9 1377.70   3
  -6  -3   5 14518.8 957.216   4
  -6  -3   5 16283.8 977.233   6
   6   3   5 13192.3 762.893  10
   6   3   7 29851.3 1179.43  10
   3  -6   7 27491.2 994.846  10
  -6  -3   7 28659.3 1444.39   6
   3  -6   7 28313.7 2159.11   3
  -6  -3   7 27329.0 1373.83   4
   3  -6   7 27264.1 990.027   8
   6   3   9 9439.89 586.974  10
   3  -6   9 9563.60 565.503  10
   3  -6   9 8115.39 517.535   8
   3  -6   9 8578.97 679.742   4
  -6  -3   9 7732.32 611.249   4
  -6  -3   9 9157.52 578.212   8
  -6  -3   9 10280.4 724.593   6
   6   4   0 212785. 5272.58   1
   4  -6   0 222147. 3995.71   3
   6   4   2 4403.88 798.717   1
  -6  -4   2 4916.17 455.380   4
   4  -6  -2 3898.26 531.967   3
   6   4  -2 4160.79 802.839   1
   4  -6   2 4163.15 654.429   3
   4  -6   4 13888.9 1356.63   3
   4  -6   4 13044.0 649.071  10
   6   4   4 16508.0 1328.23   2
  -4   6   4 13568.7 670.304   9
   6   4   4 13301.0 754.455  10
  -6  -4   4 14741.6 913.068   4
   6   4  -4 14483.9 1996.33   1
   6   4   4 13424.1 728.749  11
   4  -6   6 8728.87 1255.01   3
  -6  -4   6 9959.93 860.732   6
  -6  -4   6 8699.15 821.596   4
   4  -6   6 9266.54 588.287  10
   6   4   6 9856.49 717.708  10
   6   4   8 194.614 183.447  10
  -6  -4   8 14.3265 774.496   7
  -6  -4   8 231.636 215.278   8
   4  -6   8 32.5650 153.070  10
   4  -6   8 101.540 132.338   8
  -6  -4   8 313.972 218.071   4
  -6  -4   8 490.523 300.547   6
   4  -6  10 696.239 151.054  10
  -6  -4  10 429.420 709.196   7
  -6  -4  10 507.519 172.202   4
   4  -6  10 765.943 190.568   4
  -6  -4  10 599.851 158.418   8
   6   5   1 9571.15 1187.86   1
   6   5   1 9081.46 694.540  11
   6   5  -1 8582.82 1153.99   1
   5  -6   1 10335.9 1057.40   3
  -5   6   1 10632.3 634.668   9
   5  -6  -1 8156.12 903.211   3
  -6  -5   3 2516.64 449.980   3
  -5   6   3 2759.97 329.044   9
   5  -6   3 2767.86 339.552  10
   6   5  -3 2782.10 809.955   1
   6   5   3 2677.32 372.056  11
   6   5   3 3210.11 633.724   2
  -6  -5   3 2640.02 383.199   4
   6   5   3 2871.82 738.394   1
   6   5   3 2656.86 346.279  10
   5  -6   3 2181.82 601.938   3
  -5   6  -3 1645.97 343.179   9
  -6  -5   5 327.901 230.037   6
   6   5  -5 156.157 702.256   1
   6   5   5 384.209 223.473   2
   5  -6   5 185.512 365.119   3
  -5   6   5 459.576 193.968   9
   6   5   5 451.055 226.728  10
  -6  -5   5 433.470 275.906   4
   5  -6   5 381.606 183.760  10
   5  -6   7 5728.74 478.175  10
   5  -6   7 5278.21 930.840   3
   6   5  -7 5236.71 1674.81   1
  -6  -5   7 4847.13 642.828   4
  -6  -5   7 4868.69 617.794   6
   6   5   7 5920.44 563.316  10
   5  -6   9 2022.04 320.810   4
   6   5   9 2106.87 281.934  10
  -6  -5   9 2465.79 328.580   8
  -6  -5   9 2167.44 346.782   4
  -6  -5   9 2227.23 882.146   7
   5  -6   9 2237.95 284.969  10
   6   6   0 59049.3 2954.62   1
   6   6   0 65352.7 1865.26  11
  -6   6   0 70200.0 1769.92   9
   6  -6   0 52325.9 2742.80   3
   6  -6   2 22148.8 983.984  10
   6   6   2 22928.9 1880.18   1
  -6   6  -2 17859.5 1000.79   9
  -6  -6   2 23958.9 1098.32   4
   6   6  -2 20064.2 1888.30   1
  -6   6   2 22895.3 953.539   9
   6   6  -2 25232.4 1073.41  11
   6   6   2 24785.5 1796.44   2
   6   6   2 24881.2 1151.60  11
   6  -6   2 25579.6 2030.48   3
  -6  -6   2 20558.4 1273.24   3
  -6  -6   4 13562.9 835.789   6
   6  -6   4 15157.4 781.818  10
  -6   6   4 13160.0 753.135   9
   6   6  -4 13655.2 1946.47   1
   6  -6   4 15041.4 1589.35   3
  -6  -6   4 14088.8 1001.34   4
   6   6   4 13414.0 1373.69   2
   6   6   4 13772.6 776.224  11
   6   6   4 13331.4 817.266  10
   6  -6   6 212.830 176.459  10
  -6  -6   6 29.0366 274.243   4
  -6   6   6-8.62509 163.435   9
   6   6   6 140.845 223.201  10
  -6  -6   6 57.9572 227.933   6
   6  -6   6 209.807 241.187   3
  -6  -6   8 850.210 277.298   6
   6  -6   8 928.876 231.280  10
  -6  -6   8 995.539 289.316   8
  -6  -6   8 892.551 758.468   7
  -6  -6   8 804.925 287.927   4
   6  -6  10 407.172 121.148  10
  -6  -6  10 490.386 125.488   8
   7  -6   1 32.4562 86.3223   3
   6   7   1 459.223 328.057   1
   6   7  -1 527.261 591.375   2
  -7   6   1 507.108 216.430   9
   6   7  -1 415.262 345.857   1
  -7   6  -1 233.064 161.630   9
   6   7   1 613.615 435.602   2
   6   7  -1 196.740 179.394  11
   6   7   1 1306.12 316.200  11
  -7   6   1 322.156 159.701   5
  -6  -7   3 8265.00 907.294   3
   7  -6   3 10583.5 692.712  10
   6   7  -3 8805.49 1599.33   2
  -6  -7   3 10378.1 828.892   4
   6   7  -3 8796.71 1441.29   1
   6   7   3 9285.71 1166.40   2
  -7   6  -3 10633.2 767.689   9
   6   7   3 10707.0 770.012  11
  -7   6   3 9917.46 685.529   9
   7  -6   3 11612.1 1482.98   3
   6   7  -3 9624.20 693.953  11
  -6  -7   5 1688.64 442.988   4
  -6  -7   5 854.435 283.878   6
   7  -6   5 1613.53 289.376  10
   7  -6   5 2746.96 672.053   3
  -7   6   5 1192.60 267.452   9
   6   7  -5 2111.84 877.120   1
   6   7   5 662.047 470.267   2
   7  -6   7 10004.8 613.738  10
  -6  -7   7 9889.86 753.371   6
  -7   6  -9 2796.47 338.827   5
   7  -6   9 2540.32 267.450  10
   7  -6   9 2581.99 303.012   4
  -6  -7   9 2254.49 315.471   4
  -6  -7   9 2709.83 295.946   8
  -6  -7   9 2100.56 642.515   7
   5   7   0 12056.4 1406.19   2
  -7   5   0 11154.0 755.988   9
   5   7   0 10663.0 507.292  12
   5   7   0 10365.9 1213.17   1
   5   7   0 10604.4 776.771  11
   5   7  -2 831.117 222.705  11
   7  -5   2 723.947 403.645   3
   5   7   2 839.410 269.609  11
   5   7  -2 1377.54 692.325   2
  -7   5  -2 1497.30 278.529   9
  -5  -7   2 1436.44 355.069   3
  -5  -7   2 1140.49 279.457   4
  -7   5   2 980.128 250.978   9
   5   7   2 774.152 363.759   2
   5   7  -2 333.140 344.080   1
   5   7   2 1085.38 457.176   1
   7  -5   4 2264.69 336.079  10
   7  -5   4 2083.90 711.702   3
  -7   5   4 1994.11 323.826   9
   5   7  -4 2635.07 860.703   1
  -5  -7   4 2040.59 412.037   4
   5   7   4 2492.85 653.856   2
   5   7  -4 1460.17 267.984  11
   5   7   4 1394.10 273.918  11
  -5  -7   4 1849.62 447.948   3
  -5  -7   4 2084.66 344.988   6
  -5  -7   6 1325.14 406.469   4
   7  -5   6 1910.98 310.258  10
   7  -5   6 1747.81 662.454   3
   5   7  -6 1782.97 963.532   1
  -5  -7   6 1559.13 366.496   6
  -7   5   6 1711.49 300.320   9
  -5  -7   8 4201.86 441.795   6
   7  -5   8 4220.43 410.121  10
  -5  -7   8 3992.82 545.488   4
  -5  -7   8 4900.05 510.997   8
  -5  -7   8 4307.71 882.980   7
   7  -5  10 1019.84 154.080  10
  -5  -7  10 1064.90 159.833   8
  -5  -7  10 644.504 498.415   7
   4   7   1 39254.4 2153.75   1
   4   7   1 45879.9 2368.19   2
   4   7  -1 49084.7 1554.07  11
   4   7  -1 43000.7 2342.31   1
  -7   4   1 51358.5 1527.35   9
   4   7  -1 51413.5 2799.01   2
   7  -4   1 36445.3 2223.83   3
   4   7   1 45038.3 1531.35  11
   7  -4   3 349.134 348.315   3
  -4  -7   3-37.7615 216.563   3
  -7   4   3 71.7027 126.861   9
  -4  -7   3 569.694 161.985   6
   4   7   3 256.462 330.544   2
   4   7  -3 442.290 169.502  11
   4   7  -3 361.049 346.690   1
  -4  -7   3 108.821 159.228   4
   4   7   3 116.765 115.078  11
   4   7  -3-538.908 387.885   2
   7  -4   3-235.190 135.639  10
   7  -4   5 2474.10 342.684  10
   4   7   5 1468.09 591.714   2
  -4  -7   5 1784.06 521.346   3
   7  -4   5 2618.25 723.170   3
   4   7  -5 3695.45 1047.57   1
  -4  -7   5 1961.62 452.516   4
  -4  -7   5 2203.21 383.096   6
   7  -4  -5 1673.87 921.645   1
  -7   4   5 2139.09 329.939   9
   7  -4   7 3359.21 394.596  10
  -4  -7   7 3915.19 478.372   6
  -4  -7   7 3257.63 548.757   4
  -4  -7   7 2557.77 800.926   7
   7  -4   9 302.998 163.187  10
  -4  -7   9 559.638 192.023   8
  -4  -7   9 110.169 666.190   7
  -4  -7   9 360.848 183.208   4
   3   7   0 2072.01 464.060   1
   3   7   0 2868.11 629.205   2
   7  -3   0 2179.39 382.094   3
  -7   3   2 5856.10 511.190   9
  -3  -7   2 4198.85 612.835   3
   7  -3   2 3599.84 733.679   3
   7  -3  -2 3352.51 591.649   1
  -3  -7   2 5537.94 501.114   4
   3   7   2 4209.22 702.794   1
   3   7  -2 3454.52 650.547   1
   3   7   2 4107.22 718.158   2
   3   7  -2 3352.96 711.391   2
   3   7  -2 4300.62 441.293  11
  -3  -7   4 1563.80 282.446   6
   7  -3   4 1706.03 285.088  10
  -7   3   4 1382.46 260.583   9
   3   7   4 1269.70 459.787   2
  -3  -7   4 1640.00 378.814   4
   3   7  -4 909.417 393.964   1
   7  -3   4 1352.46 542.671   3
   7  -3  -4 2025.09 710.828   1
   3   7  -4 1067.30 252.777  11
  -3  -7   4 975.887 405.550   3
   7  -3   6 11092.0 688.689  10
  -3  -7   6 8052.61 850.892   4
   7  -3  -6 12457.1 2435.13   1
   3   7  -6 11449.2 2003.28   1
   7  -3   6 10640.0 1369.01   3
  -7   3   6 9875.83 628.736   9
  -3  -7   6 11061.6 774.175   6
  -3  -7   6 12041.0 669.356  10
  -7   3   6 11115.5 699.665   6
   7  -3   8 9045.57 603.336  10
  -3  -7   8 7473.55 984.094   7
  -3  -7   8 8694.13 815.284   4
  -3  -7   8 9845.68 685.941   8
   7  -3  10 3145.05 284.684  10
  -3  -7  10 2678.14 317.378   4
  -3  -7  10 2742.61 271.481   8
   2   7   1 14734.7 1093.39   1
   7  -2   1 14309.4 943.552   1
   7  -2   1 15812.7 1192.90   3
   2   7   1 17904.3 1450.82   2
   2   7  -1 14786.0 1379.47   2
   2   7  -1 15731.9 1161.73   1
   7  -2  -1 14136.1 1103.04   1
   7  -2   3 2026.50 274.032  10
  -2  -7   3 2012.21 466.345   3
   2   7  -3 2210.95 313.086  11
   2   7   3 2013.99 529.727   2
   2   7  -3 2683.39 564.203   2
  -7   2   3 1891.43 302.666   9
   7  -2   3 2392.34 619.185   3
   2   7  -3 1597.37 449.188   1
  -2  -7   3 2798.04 402.836   4
   7  -2  -3 1232.19 454.111   1
   7  -2   5 5295.74 483.288  10
   7  -2  -5 4358.29 1346.86   1
   7  -2   5 4885.16 911.722   3
  -2  -7   5 5083.74 643.318   4
   2   7  -5 4901.28 1147.89   1
  -7   2   5 4743.44 442.873   9
  -2  -7   5 4354.38 480.710   6
  -2  -7   5 4623.61 789.383   3
  -7   2   5 4214.37 491.106   6
  -2  -7   7 14563.9 742.615  10
  -2  -7   7 13552.3 791.061   6
   7  -2   7 14031.5 778.103  10
  -2  -7   7 13624.0 1076.99   4
  -2  -7   7 12931.7 806.138   8
  -7   2   7 12686.9 783.675   6
  -2  -7   7 14655.2 1218.41   7
   7  -2  -7 16056.6 3258.77   1
   7  -2   9 2763.97 329.030  10
  -2  -7   9 2904.77 435.603   4
  -2  -7   9 2975.09 337.773   8
   7  -1   0 47527.0 2070.79   1
   1   7   0 45614.3 1697.24   1
   1   7   0 49756.1 2472.97   2
   1   7   2 1057.19 406.810   2
   1   7  -2 1318.74 443.747   2
  -1  -7   2 1108.96 344.116   3
   7  -1   2 1381.58 342.053   1
   7  -1  -2 581.196 313.962   1
   1   7  -2 1163.97 289.696   1
  -1  -7   4 579.821 224.508   4
   7  -1   4 331.683 153.360  10
  -7   1   4 549.119 209.346   6
  -1  -7   4 490.390 275.874   3
  -7   1   4 588.282 195.338   9
   1   7  -4 154.651 334.564   1
   7  -1  -4 422.477 509.586   1
   1   7  -4 603.961 209.644  11
   7  -1   6 7549.79 589.231  10
  -1  -7   6 6887.88 532.237  10
   7  -1  -6 5423.49 1810.25   1
  -1  -7   6 5499.88 676.279   4
  -7   1   6 9240.35 1046.18   7
  -7   1  -6 8492.52 783.637   5
  -1  -7   6 7309.23 924.997   7
  -1  -7   6 7115.98 1089.76   3
  -1  -7   6 7607.19 600.390   6
  -7   1   6 6384.60 638.671   6
  -1  -7   8 3817.11 381.951  10
  -1  -7   8 3354.11 529.532   4
  -7   1   8 3931.76 466.430   6
  -1  -7   8 3666.76 410.458   8
   7  -1   8 3708.58 420.060  10
   7  -1  10 1562.45 223.350  10
  -1  -7  10 1612.46 273.152   4
  -1  -7  10 1705.65 226.344   8
   0   7  -1 80067.7 1883.53   1
   7   0   1 81897.9 2760.33   1
   0   7   1 84063.5 3296.50   2
   0  -7   1 78981.4 2364.94   3
   0  -7   3 49043.0 2019.32   3
   7   0  -3 50727.8 3048.41   1
  -7   0   3 58308.5 1536.17   9
   0  -7   3 63467.2 1670.28   4
   7   0   5 14737.8 805.571  10
  -7   0  -5 14128.4 1001.00   5
  -7   0   5 14369.3 912.536   6
  -7   0   5 13504.5 797.571   4
   0  -7   5 10967.0 863.731   4
   0  -7   5 15586.5 1407.97   3
   7   0  -5 16411.6 2589.94   1
   0  -7   7 1055.46 244.609  10
   7   0   7 1112.08 281.245  10
   7   0  -7 1356.17 925.660   1
   0  -7   7 408.319 508.790   3
  -7   0   7 820.879 191.964   8
   0  -7   7 1170.41 268.417   8
   0  -7   7 928.220 297.638   4
   0  -7   7 202.504 827.759   7
  -7   0   7 1190.60 669.429   7
  -7   0   7 904.663 318.465   6
   0  -7   9 529.386 158.815  10
   0  -7   9 451.540 234.984   4
   0  -7   9 627.452 181.807   8
  -7   0   9 1046.29 795.845   7
   7   0   9 646.790 205.967  10
   7   1   0 8343.62 990.311   1
   1  -7   0 8801.33 814.734   3
   7   1   2 17681.6 1371.56   1
   7   1  -2 14930.0 1434.76   1
   1  -7   2 17028.4 1147.49   3
   7   1   4 21474.5 939.347  10
  -7  -1  -4 17240.2 1066.36   5
   1  -7   4 25697.7 1613.83   3
   1  -7   4 24515.6 1147.08   4
   7   1  -4 30421.8 2940.38   1
  -7  -1   4 28112.6 1101.72   4
  -7  -1   6-60.1219 243.419   6
  -7  -1   6 19.7233 212.415   4
   1  -7   6 47.5603 142.332   8
   7   1   6 201.105 157.948  10
   1  -7   6 57.2400 258.220   3
   1  -7   6 73.2582 164.993  10
   7   1  -6-8.05142 439.628   1
   1  -7   8 2420.00 332.087  10
   1  -7   8 2284.19 424.133   4
   7   1   8 2676.09 371.952  10
  -7  -1   8 2024.81 347.704   4
   1  -7   8 2300.47 310.264   8
  -7  -1   8 2217.66 291.495   8
  -7  -1   8 2448.63 431.188   6
   7   1  10 303.685 135.930  10
   1  -7  10 310.261 128.399   8
   1  -7  10 432.437 169.517   4
   1  -7  10 50.6709 76.2246  10
   2  -7   1 88909.0 2555.82   3
   2  -7  -1 95998.5 2764.57   3
   7   2   1 90878.1 3325.07   1
   7   2   3 2096.90 278.305  10
   7   2  -3 2204.69 718.368   1
   7   2   3 2186.35 604.481   1
  -7  -2   3 2206.14 322.718   4
   2  -7   3 1810.47 439.833   3
   7   2  -5 11290.8 2271.61   1
   2  -7   5 7293.56 704.017   4
  -7  -2   5 9081.79 724.849   4
   7   2   5 8911.68 655.265  10
   7   2   5 8079.14 556.536  11
   2  -7   5 9138.73 1141.07   3
   2  -7   5 8171.50 541.654  10
  -7  -2   5 10903.4 840.617   6
   7   2   7 4583.12 493.918  10
   7   2  -7 3287.17 1531.32   1
   2  -7   7 4673.74 445.700  10
   2  -7   7 4400.69 893.216   3
   2  -7   7 5234.64 618.645   4
  -7  -2   7 5356.44 595.068   4
   2  -7   7 4280.32 408.467   8
  -7  -2   7 4567.60 469.258   8
  -7  -2   7 4932.07 646.540   6
   7   2   9 496.072 187.279  10
  -7  -2   9 188.531 140.357   4
   2  -7   9 478.976 167.616  10
  -7  -2   9 417.432 232.103   6
   2  -7   9 501.750 208.186   4
   2  -7   9 468.720 165.148   8
  -7  -2   9 594.531 166.259   8
  -7  -2   9 852.784 779.544   7
   3  -7   0 25057.7 1420.70   3
   7   3   0 23133.9 1796.31   1
  -3   7  -2 594.067 179.476   9
   3  -7   2 993.821 349.149   3
  -3   7   2 1148.72 233.952   9
   3  -7  -2 982.552 332.708   3
   7   3   2 798.620 247.745  11
   7   3   2 853.040 472.386   1
   7   3  -2 647.266 366.988   1
   3  -7   4 59.0003 223.947   3
   7   3   4 309.377 148.921  10
   7   3  -4 151.836 303.004   1
   3  -7   4 338.163 145.406  10
  -7  -3   4 336.012 192.246   4
  -3   7   4 412.973 161.762   9
  -3   7  -4 190.638 131.360   9
   7   3   4-25.9308 129.372  11
   7   3   4 61.9882 325.956   2
   3  -7   6 4997.11 454.147  10
  -7  -3   6 4476.40 574.324   4
   3  -7   6 6175.43 1096.73   3
   3  -7   6 5428.16 608.376   4
   7   3   6 5692.62 556.434  10
  -7  -3   6 5831.07 697.284   6
   3  -7   8 4372.25 414.330  10
   3  -7   8 4617.88 547.768   4
  -7  -3   8 3699.55 483.169   4
   3  -7   8 3884.74 374.520   8
  -7  -3   8 4887.72 468.117   8
   7   3   8 4301.26 462.244  10
  -7  -3   8 4804.94 593.154   6
   3  -7  10 1327.17 186.631  10
  -7  -3  10 1051.74 165.985   8
   7   3  10 1353.90 194.329  10
   3  -7  10 1268.79 230.952   4
   4  -7   1 159065. 3830.03   3
   4  -7  -1 162970. 3887.94   3
   7   4  -1 159452. 2676.24  11
  -4   7   1 172181. 2542.45   9
  -4   7  -1 161290. 2554.13   9
   7   4  -1 140362. 4686.06   1
   7   4   1 154048. 4764.34   1
   7   4   1 145409. 2745.89  11
   4  -7   3 33204.0 1035.07  10
   7   4   3 36577.4 2233.86   2
   7   4  -3 32587.5 2643.61   1
   7   4   3 38961.7 2548.37   1
  -7  -4   3 35348.3 1323.81   4
   4  -7   3 33188.3 1949.98   3
   7   4   3 38707.0 1358.45  11
   7   4   3 35666.6 1201.74  10
  -4   7   3 34882.3 1090.39   9
   7   4   5 12808.4 823.529  10
   4  -7   5 13103.7 699.753  10
   4  -7   5 14057.4 1548.43   3
  -4   7   5 15534.8 795.075   9
  -7  -4   5 13351.1 966.284   4
   7   4   5 14021.4 752.075  11
  -7  -4   5 15641.0 1009.12   6
   7   4   7 2007.83 367.652  10
  -7  -4   7 1104.92 395.989   6
   4  -7   7 1694.40 294.942  10
   4  -7   7 1965.64 382.266   4
  -7  -4   7 1994.96 427.369   4
   7   4   9 606.727 182.192  10
   4  -7   9 552.103 164.695  10
  -7  -4   9 522.425 207.980   4
   4  -7   9 360.765 179.407   4
  -7  -4   9 343.580 154.859   8
  -7  -4   9 540.084 211.463   6
   7   5   0 24900.0 2014.81   1
   5  -7   0 29718.7 1853.32   3
   7   5   0 27041.4 1234.16  11
   5  -7   2 60084.9 1486.39  10
  -7  -5   2 46096.0 1757.85   3
   7   5   2 57912.2 3053.71   1
  -5   7   2 58672.2 1485.75   9
  -5   7  -2 51305.4 1663.98   9
   7   5  -2 51747.4 3107.77   1
   7   5   2 62262.6 1860.11  11
   7   5  -2 62231.9 1652.92  11
   7   5   2 50761.0 2788.30   2
   5  -7   2 58617.8 2736.89   3
   7   5   2 60753.2 1505.82  10
   7   5   4 85484.8 2057.34  10
   5  -7   4 89923.4 1831.36  10
   7   5   4 94129.4 2061.63  11
   5  -7   4 88661.4 3727.94   3
   7   5  -4 89714.1 5191.73   1
   7   5   4 96722.6 3591.51   2
  -7  -5   4 90126.0 2410.36   4
  -5   7   4 89343.0 1875.44   9
   7   5   6 3162.98 453.219  10
   5  -7   6 3039.17 766.827   3
   5  -7   6 3071.49 371.925  10
  -7  -5   6 2982.97 512.642   6
  -7  -5   6 1798.90 420.300   4
  -7  -5   8 823.468 311.753   6
  -7  -5   8 1776.86 912.512   7
   5  -7   8 1253.24 244.050  10
   5  -7   8 1114.07 274.007   4
  -7  -5   8 1726.45 327.474   8
  -7  -5   8 1166.73 317.583   4
   7   5   8 1352.78 283.346  10
  -7  -5  10 24.3727 449.932   7
   5  -7  10 100.871 82.6385  10
  -7  -5  10 126.346 69.2744   8
   7   6   1 23385.6 2008.25   1
   7   6  -1 24085.0 1149.18  11
  -6   7   1 25125.8 1056.61   9
  -6   7  -1 25150.1 1190.10   9
   7   6   1 24174.0 1232.53  11
   7   6   1 22034.0 2050.07   2
   7   6  -1 20478.8 1942.20   1
   6  -7   1 24939.4 2034.64   3
   6  -7   3 2415.39 339.130  10
   6  -7   3 2024.48 685.775   3
  -6   7  -3 2203.30 404.223   9
  -7  -6   3 2048.57 383.158   4
   7   6  -3 2050.73 340.870  11
  -6   7   3 2291.17 343.263   9
   7   6   3 1426.83 525.658   2
   7   6   3 2244.38 381.995  11
   7   6  -3 2255.60 792.932   1
   7   6   3 2107.62 339.616  10
  -7  -6   5 1019.71 316.266   6
   6  -7   5 910.504 240.718  10
   7   6   5 805.474 288.655  10
   6  -7   5 2535.43 738.977   3
   7   6   5 709.824 237.012  11
  -6   7   5 663.983 221.012   9
   7   6  -5 730.838 640.012   1
  -7  -6   5 1854.78 443.313   4
   7   6   5 1683.61 495.796   2
   6  -7   7 4464.25 419.291  10
  -7  -6   7 4989.01 606.082   6
  -7  -6   7 4142.89 590.720   4
   7   6   7 5401.68 532.751  10
   6  -7   9 745.025 171.736  10
  -7  -6   9 846.370 646.959   7
  -7  -6   9 742.998 179.534   8
   6  -7   9 1032.97 199.774   4
  -7   7   0 34151.1 1368.60   9
   7   7   0 36477.6 2802.77   2
   7   7   0 30496.1 1407.78  11
   7  -7   2 4041.38 902.920   3
  -7   7   2 3021.96 408.251   9
  -7   7  -2 1975.75 366.856   9
  -7  -7   2 1857.55 439.185   3
   7   7   2 2991.38 470.425  11
   7   7   2 3300.46 760.770   2
   7   7  -2 2888.98 430.747  11
   7   7  -2 2746.92 779.815   1
   7   7   2 2450.69 757.356   1
   7  -7   4 42124.2 1357.20  10
  -7   7   4 37212.9 1320.94   9
   7   7  -4 34941.9 3332.86   1
  -7  -7   4 39163.9 1719.30   4
   7   7   4 37222.6 2514.33   2
   7   7  -4 39142.2 1377.51  11
   7   7   4 38658.5 1377.10  11
   7  -7   4 41948.1 2882.38   3
  -7  -7   4 35818.5 1401.24   6
   7  -7   6 14137.8 744.310  10
  -7   7   6 13944.6 760.812   9
  -7  -7   6 12409.4 909.673   6
  -7  -7   8 846.188 231.428   6
   7  -7   8 1000.90 208.099  10
  -7  -7   8 948.200 230.456   8
  -7  -7   8 963.282 268.937   4
  -7  -7   8 1441.90 663.866   7
   7   8   1 3670.24 820.457   1
  -8   7  -1 3234.06 482.559   9
  -8   7   1 3588.83 409.861   5
   7   8  -1 3516.42 855.400   1
   7   8  -1 3039.24 491.204  11
   7   8   1 3172.88 513.080  11
   7   8   1 4022.34 931.349   2
  -8   7   1 3983.20 507.792   9
   7   8  -1 3750.10 1025.16   2
   7   8   1 3538.95 340.775  12
   7   8  -3 2898.32 827.593   2
   8  -7   3 3143.64 410.564  10
  -8   7  -3 4514.58 543.859   9
   7   8   3 4453.87 545.454  11
   8  -7   3 4146.89 920.887   3
  -8   7   3 3436.75 455.512   9
   7   8   3 3109.33 729.784   2
   7   8  -3 3998.02 1068.17   1
   7   8  -3 3862.11 488.553  11
  -7  -8   5 756.917 270.146   6
   8  -7   5 1009.22 260.597  10
  -7  -8   5 1118.14 397.797   4
  -8   7   5 759.796 233.553   9
   7   8   5 955.555 230.165  11
   8  -7   7 4565.88 411.558  10
  -7  -8   7 3687.88 876.621   7
  -7  -8   7 3287.88 490.910   4
  -7  -8   7 4132.42 445.860   6
  -7  -8   9 3182.64 244.096   8
   8  -7   9 3200.89 242.601  10
   6   8   0 4943.24 928.253   1
  -8   6   0 5952.24 616.897   9
   6   8   0 5785.34 1105.37   2
   6   8   0 5546.22 394.306  12
   6   8   0 4979.42 601.922  11
  -8   6   0 5328.68 503.126   5
  -8   6  -2 4712.28 562.158   9
  -8   6   2 5807.53 581.515   9
   6   8   2 4974.30 928.734   2
  -6  -8   2 4186.12 691.640   3
   6   8  -2 2922.94 802.388   1
   6   8  -2 6213.32 619.707  11
   6   8   2 5240.03 994.491   1
   6   8  -2 6605.81 1265.93   2
   6   8   2 5244.27 611.521  11
   8  -6   2 5332.99 1018.97   3
  -6  -8   4 23608.8 1134.26   6
   8  -6   4 25172.5 1077.65  10
   8  -6   4 27453.4 2329.10   3
  -6  -8   4 23996.0 1374.69   4
   6   8   4 22974.8 2021.96   2
   6   8  -4 22812.7 2591.07   1
   6   8  -4 25256.2 1149.88  11
   6   8   4 22743.0 1048.00  11
  -8   6   4 23327.3 1074.40   9
   8  -6   6 23106.3 964.134  10
  -8   6   6 21835.7 927.352   9
  -6  -8   6 20133.9 1075.69   6
   8  -6   8 5798.55 426.938  10
  -6  -8   8 5031.32 794.636   7
   8  -6   8 5171.20 467.283   4
  -8   6  -8 6232.05 544.322   5
  -6  -8   8 4774.79 536.282   4
  -6  -8   8 5878.89 485.863   8
   5   8   1 1403.41 221.675  12
   5   8   1 933.354 302.925  11
  -8   5   1 1745.24 338.886   9
  -8   5   1 1146.46 246.477   5
  -8   5  -1 1227.06 297.916   9
   5   8  -1 1175.81 484.122   1
   5   8  -1 1407.47 339.359  11
   5   8   1 1283.59 403.113   1
   5   8  -1 1300.55 196.506  12
   5   8  -1 1784.17 608.447   2
   5   8   1 1349.63 543.053   2
  -5  -8   3 753.480 217.625   6
   8  -5   3 229.764 140.727  10
  -5  -8   3 489.320 334.356   3
  -8   5   3 639.074 220.930   9
   5   8  -3 716.733 227.055  11
   5   8  -3 334.477 395.218   2
  -5  -8   3 799.859 288.819   4
   5   8   3 814.749 352.934   2
   5   8  -3 2.98648 186.551   1
   5   8   3 484.202 197.876  11
  -5  -8   5-380.309 256.460   6
  -5  -8   5 654.326 324.028   4
   8  -5   5 125.957 173.193  10
   5   8  -5-827.877 602.522   1
   8  -5   5-1393.44 601.619   3
  -8   5   5 203.034 187.946   9
   5   8   5 150.618 301.850   2
   8  -5   7 10520.0 654.041  10
  -5  -8   7 7631.47 801.477   4
  -5  -8   7 9548.37 667.965   6
  -5  -8   7 8816.96 1122.08   7
   8  -5   9 4220.11 329.367  10
   8  -5   9 4268.90 377.097   4
  -5  -8   9 3503.49 391.048   4
  -5  -8   9 4001.89 335.719   8
   5   8   9 3061.53 254.911  12
  -8   4   0 132121. 2357.07   5
   4   8   0 140041. 4706.41   2
  -8   4   0 139558. 2872.24   9
   4   8   0 135637. 1842.30  12
   4   8   0 137564. 2846.02  11
   4   8  -2 23419.9 1118.19  11
  -4  -8   2 21669.8 1458.42   3
   8  -4   2 18689.4 1718.02   3
  -8   4   2 21898.0 919.514   5
   4   8  -2 21138.2 1803.36   1
  -8   4   2 26518.1 1176.03   9
   4   8  -2 21002.2 1971.82   2
  -4  -8   2 25750.9 1174.34   4
   4   8   2 24431.8 1911.97   2
   4   8   2 25520.1 1186.47  11
  -8   4  -2 24479.1 1213.05   9
   4   8  -2 28724.1 856.083  12
  -4  -8   4 1352.71 296.787   6
   8  -4   4 1410.73 264.238  10
   4   8   4 1060.71 228.583  11
   8  -4   4 522.220 458.410   3
  -8   4   4 1090.14 261.595   9
  -4  -8   4 1547.79 396.746   4
  -4  -8   4 1069.32 403.847   3
   4   8   4 1239.18 519.004   2
   4   8  -4 1457.70 318.478  11
   4   8  -4 1293.26 549.984   1
  -4  -8   6 307.662 200.350   6
  -8   4   6 115.213 173.476   9
   8  -4   6 191.413 177.037  10
  -4  -8   6 280.259 281.879   4
  -4  -8   6-77.0755 165.076  10
  -8   4  -8 765.028 250.789   5
  -4  -8   8 591.543 226.500   8
  -4  -8   8 679.376 250.837   4
  -4  -8   8 588.439 666.881   7
   8  -4   8 607.302 191.494  10
   8  -4  10 158.854 76.9194  10
  -4  -8  10-29.5465 68.7018   8
   3   8  -1 33040.7 874.088  12
  -8   3   1 28937.9 1050.11   5
  -8   3  -1 30893.0 1208.67   5
  -8   3   1 35499.1 1405.64   9
  -8   3  -1 24569.2 1232.65   9
   8  -3   1 32655.5 1873.93   3
   3   8   1 29803.6 1776.16   1
   3   8   1 30367.2 2124.14   2
   3   8  -1 29160.7 2193.31   2
   3   8  -1 31817.4 1319.54  11
   3   8  -1 28388.1 1789.34   1
   3   8   1 29825.9 1284.02  11
  -3  -8   1 27156.3 1573.44   3
   3   8   1 31666.5 923.683  12
  -3  -8   3 9664.07 1027.82   3
   8  -3   3 9516.45 1301.24   3
  -8   3   3 10340.6 652.459   5
  -8   3   3 11374.4 748.084   9
   8  -3  -3 9549.84 1322.70   1
  -3  -8   3 11878.0 837.010   4
   3   8   3 9944.01 1232.87   2
   3   8  -3 10096.1 1270.30   1
   3   8  -3 12234.8 1415.01   2
   8  -3   3 6666.44 533.375  10
   3   8  -3 9936.52 730.148  11
   3   8   3 10501.2 688.627  11
  -3  -8   5 767.132 218.821   6
   8  -3   5 803.770 235.958  10
  -3  -8   5 1870.41 483.617   3
  -8   3   5 520.962 229.074   9
  -3  -8   5 771.862 290.422   4
   8  -3  -5 2267.74 1137.29   1
  -8   3  -7 4721.92 586.081   5
   8  -3   7 4217.33 447.703  10
  -3  -8   7 3249.06 564.678   4
  -3  -8   7 3673.69 467.128   8
  -3  -8   7 4218.67 407.512  10
  -3  -8   7 3261.98 791.661   7
  -3  -8   7 4029.81 430.805   6
   8  -3   9 827.589 197.016  10
  -3  -8   9 642.602 221.717   4
  -3  -8   9 732.814 571.915   7
   3   8   9 638.779 133.748  12
  -3  -8   9 853.320 189.544   8
  -8   2   0 4126.24 417.255   5
   2   8   0 4283.40 607.223   1
  -8   2   0 4280.82 525.442   9
   2   8   0 4505.70 337.124  12
   2   8   0 4963.73 944.463   2
   2   8   0 4234.99 487.795  11
   8  -2   0 4275.27 602.989   1
  -8   2   2 21830.0 907.879   5
  -2  -8   2 21972.1 1427.69   3
  -8   2  -2 22728.8 1131.57   5
  -8   2   2 23644.0 1114.57   9
   2   8  -2 25647.4 797.879  12
   8  -2  -2 19337.2 1587.17   1
  -2  -8   2 27320.2 1109.40   4
   2   8   2 21680.2 1776.70   2
   2   8  -2 20703.1 1813.26   2
   2   8   2 23249.8 1052.14  11
   2   8  -2 19207.0 1413.98   1
   2   8  -2 20899.5 1039.75  11
   8  -2   4 10874.3 727.333  10
  -2  -8   4 12660.1 1203.21   3
   8  -2  -4 12454.0 1944.23   1
  -8   2   4 11674.1 742.060   9
  -2  -8   4 13755.2 977.345   4
   2   8  -4 11484.0 792.166  11
  -8   2   4 11658.2 732.920   6
   8  -2   6 23817.3 1058.54  10
  -8   2  -6 26388.4 1430.78   5
  -2  -8   6 24216.4 988.416  10
  -8   2   6 21122.3 1042.22   6
  -2  -8   6 24314.0 1567.15   7
   8  -2  -6 21403.3 3562.38   1
  -2  -8   6 22127.2 1967.80   3
   8  -2   8 16754.3 809.929  10
  -2  -8   8 18343.1 731.594  10
  -2  -8   8 15922.3 1048.52   4
  -2  -8   8 16591.0 801.287   8
   8  -2  10 4933.62 335.766  10
  -2  -8  10 4139.40 365.776   4
  -2  -8  10 4522.21 299.536   8
   8  -1   1 286.030 167.867   1
  -8   1   1 418.538 148.763   5
  -8   1  -1 401.733 160.935   5
  -8   1   1 350.227 165.526   9
  -1  -8   1 772.277 321.254   3
   1   8  -1 740.310 236.264  11
   1   8  -1 298.225 101.020  12
   1   8  -1 774.059 420.666   2
   1   8   1 232.028 289.356   2
   1   8   1 508.339 132.773  12
   1   8   1 839.982 230.089  11
   8  -1  -1-393.513 242.216   1
   1   8   3 597.719 177.937  11
  -8   1   3 387.779 168.245   5
  -8   1  -3 535.972 225.921   5
  -1  -8   3 145.585 173.123   3
  -8   1   3 564.102 216.360   9
  -1  -8   3 138.112 186.078   4
   8  -1   3 442.417 147.125  10
   1   8  -3 511.898 173.139  11
   8  -1  -5 940.160 825.295   1
  -8   1   5 1365.99 302.347   9
   8  -1   5 1548.00 307.097  10
  -8   1  -5 1292.78 358.169   5
  -1  -8   5 1926.01 568.414   3
  -1  -8   5 1525.05 403.635   4
  -8   1   5 1828.19 358.905   6
   8  -1   7 13677.6 792.861  10
  -1  -8   7 14106.2 760.383  10
   8  -1  -7 22701.6 3846.81   1
  -8   1   7 13939.4 876.456   6
  -1  -8   7 12789.8 1050.33   7
  -8   1   7 24914.8 1459.14   7
  -1  -8   7 12828.0 1032.95   4
  -1  -8   7 13290.5 765.161   8
   8  -1   9 4611.02 401.825  10
  -1  -8   9 4841.84 506.495   4
  -1  -8   9 4394.01 360.084   8
   0  -8   0 25644.2 1538.47   3
   0   8   0 25669.4 750.768  12
   0   8   0 21057.1 1878.75   2
   8   0   0 24469.1 1695.30   1
   0   8   0 24653.5 1172.84  11
  -8   0   0 25568.0 1029.87   5
   0  -8   2 2583.79 528.046   3
  -8   0   2 2361.19 316.396   5
  -8   0  -2 2174.11 383.394   5
  -8   0   2 3110.16 426.058   9
   8   0   2 2567.25 515.703   1
   8   0  -2 1540.31 502.138   1
   0   8  -2 2766.93 272.783  12
   0   8   2 2520.38 271.245  12
   0   8  -2 2308.92 370.765  11
   0   8   2 2649.78 349.059  11
  -8   0   4 226.728 200.446   6
   8   0   4 85.8828 113.248  10
  -8   0  -4-127.375 110.407   5
   0  -8   4 197.906 219.478   3
  -8   0   4 112.945 206.429   9
   0  -8   4-63.3049 152.390   4
   0   8  -4 199.776 111.538  11
   8   0   6 5002.22 516.993  10
   0  -8   6 5078.29 476.016  10
  -8   0   6 5214.60 963.036   7
   0  -8   6 3698.06 560.891   4
  -8   0   6 4781.84 602.026   6
   0  -8   6 5384.09 511.493   8
   0  -8   6 4759.03 979.180   3
   8   0   8 2405.02 348.787  10
   0  -8   8 2331.32 319.976  10
  -8   0   8 2494.46 393.543   6
   0  -8   8 2026.81 402.447   4
   0  -8   8 2042.85 287.571   8
   8   0  10 853.004 165.701  10
   0  -8  10 900.260 147.680   8
   0  -8  10 793.604 172.497   4
   8   1   1 57752.5 2670.02   1
  -1   8  -1 61743.1 1169.63  12
  -8  -1   1 61519.0 1579.25   5
   1  -8   1 57758.7 2247.47   3
  -8  -1  -1 61244.1 1712.60   5
   1  -8  -1 61300.0 2481.58   3
  -8  -1   1 59529.8 1750.82   9
  -1   8   1 60966.6 1349.96   9
   8   1  -1 54691.5 2749.92   1
  -1   8   1 58260.1 1160.66  12
  -1   8  -1 58134.1 1837.07  11
  -1   8   1 61571.7 1803.28  11
  -8  -1  -3 970.901 272.423   5
  -1   8  -3 1829.25 342.398  11
  -1   8   3 1654.09 241.404  12
  -1   8   3 2350.75 307.709   9
   8   1  -3 909.764 469.400   1
   1  -8   3 1358.79 398.113   3
   8   1   3 1703.10 272.190  10
  -1   8   5 91.1917 95.3043  12
   1  -8   5 196.738 265.031   3
   1  -8   5 86.1598 136.915   8
   8   1   5 351.104 194.300  10
   1  -8   5 476.656 170.544   4
  -8  -1   5 255.504 253.954   6
  -8  -1   5 257.739 174.496   4
   8   1   7 2339.72 382.236  10
   8   1  -7 2308.02 1552.72   1
   1  -8   7 2431.69 351.866  10
  -8  -1   7 4344.54 863.178   7
   1  -8   7 2441.52 469.189   4
  -8  -1   7 2129.92 353.502   4
   1  -8   7 2201.58 310.580   8
  -8  -1   7 2054.76 282.399   8
  -8  -1   7 2639.91 497.042   6
   1  -8   9 275.324 138.979  10
   1  -8   9 335.716 164.299   4
   1  -8   9 281.838 129.371   8
   8   1   9 112.687 145.750  10
  -8  -2   0 60554.3 1674.13   5
   2  -8   0 57290.1 2305.00   3
  -2   8   0 57835.9 1416.05   9
  -2   8   0 53862.8 1081.76  12
   8   2   0 53486.9 2769.81   1
   2  -8   2 2496.23 519.688   3
   8   2  -2 1805.60 544.005   1
  -8  -2  -2 2426.39 390.342   5
   2  -8  -2 3105.62 616.391   3
  -2   8   2 2340.96 304.663   9
   8   2   2 2487.80 317.906  10
   8   2   2 2155.03 584.449   1
  -2   8   2 2389.86 254.136  12
  -2   8  -2 2630.42 433.394  11
   8   2  -2 2452.82 331.950  11
  -2   8   2 1621.39 304.541  11
   8   2   4 403.142 369.985   2
   8   2   4 189.809 145.955  10
  -8  -2  -4 570.806 237.375   5
   8   2  -4 342.773 476.337   1
   2  -8   4 217.968 287.265   3
   2  -8   4 39.0121 128.164   4
  -2   8   4 114.808 104.467  12
  -8  -2   4 75.8885 153.866   4
   8   2   4 293.116 166.619  11
  -8  -2   6 1290.26 391.148   6
   2  -8   6 1214.77 268.177  10
   8   2   6 1217.33 319.528  10
   2  -8   6 1200.12 576.304   3
  -8  -2   6 644.485 237.102   4
   2  -8   6 1139.16 323.948   4
   8   2   8 362.877 197.066  10
   2  -8   8 422.094 174.447  10
  -8  -2   8 296.286 189.027   4
   2  -8   8 480.940 231.232   4
   2  -8   8 699.784 166.351   8
  -8  -2   8 101.837 126.344   8
  -8  -2   8 1065.60 775.133   7
  -8  -2   8 369.027 265.610   6
   8   2  10 470.399 118.031  10
  -8  -2  10-317.711 614.337   7
   2  -8  10 68.2940 47.0244  10
   3  -8   1 25999.3 1587.83   3
  -8  -3  -1 30248.2 1309.14   5
   3  -8  -1 28562.6 1739.71   3
  -3   8   1 27771.9 995.193   9
  -3   8  -1 26918.9 1070.59   9
   8   3  -1 22414.3 1951.21   1
  -3   8   1 25664.5 761.224  12
   8   3   1 26076.1 2019.76   1
   8   3  -1 27511.1 1144.18  11
   8   3   1 22975.0 1148.37  11
   8   3   3 58662.7 1593.20  10
  -8  -3  -3 44239.1 1766.97   5
  -3   8   3 61016.0 1445.17   9
  -3   8  -3 44829.5 1539.72   9
   8   3  -3 54772.6 3495.31   1
   8   3   3 61897.6 3194.96   1
   8   3   3 63012.9 1791.17  11
   3  -8   3 55180.3 2489.12   3
  -3   8   3 52843.0 1168.56  12
   8   3   5 18938.9 1023.89  10
   3  -8   5 18592.3 843.244  10
   8   3  -5 25279.1 3409.02   1
   3  -8   5 14807.5 981.996   4
  -3   8  -5 25126.4 1129.75   9
   8   3   5 19261.4 913.611  11
  -8  -3   5 19536.1 1112.85   4
   3  -8   5 19968.5 1797.61   3
  -8  -3   5 23267.8 1257.63   6
   8   3   7 3244.66 442.991  10
   3  -8   7 2592.51 339.422  10
  -8  -3   7 2825.59 535.833   6
   3  -8   7 3004.01 473.104   4
  -8  -3   7 1854.71 369.422   4
  -8  -3   7 2615.88 373.448   8
  -8  -3   7 3507.35 974.041   7
   3  -8   9 1366.22 213.821  10
   3  -8   9 1541.31 277.559   4
  -8  -3   9 1233.80 189.088   8
   8   3   9 1414.54 243.314  10
  -8  -3   9 1594.72 293.930   6
   4  -8   0 46435.5 2234.67   3
  -4   8   0 47087.4 1424.45   9
   8   4   0 43381.0 1575.00  11
   8   4   2 41046.2 1252.76  10
  -8  -4  -2 33105.3 1523.66   5
   8   4   2 36968.4 2490.38   1
  -4   8   2 41615.3 1290.82   9
  -4   8  -2 35525.3 1359.90   9
   8   4  -2 34863.1 2612.99   1
   4  -8   2 38586.8 2115.37   3
  -4   8   2 36040.5 931.847  12
   8   4  -2 40293.4 1368.84  11
   8   4   2 41151.6 1548.58  11
   8   4   4 31612.4 1304.68  10
   4  -8   4 33966.5 1120.31  10
  -4   8   4 37809.1 1215.81   9
  -4   8  -4 37855.6 1442.70   9
   8   4   4 42248.1 2409.78   2
   8   4  -4 36891.3 3453.23   1
  -8  -4   4 36722.6 1509.49   4
   8   4   4 38265.6 1360.32  11
   4  -8   4 33603.9 2225.90   3
  -8  -4   6 361.097 303.946   6
   8   4   6 887.330 300.297  10
   4  -8   6 358.812 186.483  10
   4  -8   6-1308.78 635.528   3
   8   4  -6-1185.81 878.430   1
  -8  -4   6 270.613 265.108   4
   4  -8   6 1080.92 332.962   4
  -8  -4   8 581.340 268.960   6
   8   4   8 629.378 225.599  10
   4  -8   8 418.722 169.941  10
  -8  -4   8 498.113 202.733   8
  -8  -4   8 506.150 204.126   4
   4  -8   8 821.874 227.983   4
  -8  -4   8 683.547 711.510   7
   4  -8  10-139.396 72.3459  10
  -8  -4  10-54.2319 434.225   7
   5  -8   1 256360. 5869.57   3
   8   5   1 214388. 6134.12   1
  -5   8   1 239411. 3278.04   9
  -5   8  -1 246889. 3693.71   9
   8   5  -1 203672. 6207.47   1
   8   5   1 213033. 3712.37  11
   8   5  -1 227113. 3537.05  11
   5  -8   3 6228.49 537.654  10
  -5   8   3 6161.61 516.791   9
  -5   8  -3 5958.51 626.417   9
   8   5  -3 6298.77 1276.35   1
   8   5   3 5567.43 1096.75   1
   8   5   3 7245.56 1064.65   2
   8   5  -3 6234.41 556.168  11
   8   5   3 6948.67 661.930  11
   5  -8   3 6349.55 1012.05   3
   8   5   3 6570.88 575.382  10
   5  -8   5 62.3125 182.279  10
   8   5   5 104.174 225.337  10
   5  -8   5 136.258 471.696   3
  -8  -5   5 161.396 268.083   6
   8   5   5 193.509 168.949  11
  -5   8   5 445.949 205.251   9
   8   5  -5 326.607 382.477   1
  -8  -5   5 242.262 285.171   4
   5  -8   7 5031.53 444.514  10
  -8  -5   7 4390.73 597.592   6
   5  -8   7 4782.13 545.761   4
  -8  -5   7 4003.88 538.108   4
   8   5   7 5165.03 531.469  10
   5  -8   9 4422.25 336.000  10
  -8  -5   9 4031.36 315.655   8
  -8  -5   9 4699.51 763.412   7
  -6   8   0 5135.71 559.447   9
   8   6   0 4903.77 590.137  11
   8   6   0 4578.08 972.951   1
   8   6   2 1200.52 523.050   2
   6  -8   2 1396.98 302.356  10
   8   6  -2 815.267 448.261   1
   8   6   2 1096.89 334.021  11
   6  -8   2 1674.85 632.190   3
  -6   8   2 1011.25 262.387   9
  -6   8  -2 615.418 262.448   9
   8   6   2 967.181 434.844   1
   8   6  -2 1232.44 298.472  11
  -8  -6   4 1511.03 339.606   6
   6  -8   4 1864.25 319.351  10
   6  -8   4 2283.14 793.188   3
  -6   8   4 1561.93 308.634   9
  -6   8  -4 2086.62 390.783   9
   8   6   4 1426.05 537.509   2
   8   6   4 1332.01 310.962  11
   8   6   4 1452.94 333.285  10
  -8  -6   6 487.901 285.679   4
  -8  -6   6 436.507 273.601   6
   8   6   6 773.661 301.673  10
   6  -8   6 486.622 192.129  10
  -6   8   6 566.201 194.820   9
   6  -8   8 2051.26 269.423  10
  -8  -6   8 1952.34 299.056   8
  -8  -6   8 1949.94 326.304   6
   8   7  -1 310.438 1063.16   2
   8   7   1 997.226 597.509   2
  -7   8   1 301.508 195.793   9
  -7   8  -1 419.906 237.372   9
   8   7   1 573.675 433.734   1
   8   7  -1 1105.65 586.510   1
   8   7   1 385.883 225.087  11
   8   7  -1 517.076 273.822  11
   7  -8   3 973.625 244.273  10
   8   7  -3 24.1701 264.844   1
   7  -8   3-472.155 417.671   3
  -7   8   3 581.727 222.624   9
  -7   8  -3 781.788 268.447   9
   8   7  -3 777.556 267.012  11
   8   7   3 674.697 287.772  11
   8   7   3 155.473 536.776   2
  -8  -7   5 260.705 219.194   6
   8   7   5 406.398 198.365  11
   7  -8   5 101.518 168.864  10
  -7   8   5 99.0947 150.553   9
   7  -8   7 10326.6 581.018  10
  -8  -7   7 10371.1 727.894   6
   7  -8   9 4873.85 295.128  10
  -8  -7   9 4195.88 593.629   7
  -8  -7   9 4398.47 275.365   8
  -8   8   0 198.898 146.723   5
  -8   8   0 186.786 214.307   9
   8   8   0 606.909 589.217   2
   8   8   0-57.3272 231.856  11
   8   8  -2 669.579 617.425   2
   8   8   2 708.458 568.696   1
  -8   8   2 383.259 208.095   9
  -8   8  -2 540.012 218.245   9
   8   8  -2 368.732 234.694  11
   8   8   2 218.893 234.072  11
   8   8  -2 1209.93 531.184   1
   8   8   2 403.812 328.408   2
  -8  -8   4 368.634 260.799   6
   8  -8   4 150.450 166.377  10
  -8   8   4 0.69424 188.269   9
   8   8   4-203.396 197.902  11
   8   8  -4-36.4379 219.182  11
   8  -8   6 7594.17 533.250  10
  -8   8   6 7710.76 529.309   9
  -8  -8   6 7205.26 645.342   6
   8  -8   8 5496.84 353.798  10
  -8   8  -8 6166.69 482.827   5
  -8  -8   8 5580.02 381.828   8
   8   9  -1 25445.2 2438.09   1
   8   9   1 28835.7 936.264  12
  -9   8  -1 28226.7 1252.33   5
  -9   8   1 30593.2 1418.90   9
  -9   8  -1 25399.9 1357.56   9
   8   9   1 25154.5 2295.78   1
   8   9   1 29815.1 2589.11   2
   8   9  -1 29186.0 2769.48   2
   8   9  -1 28605.7 1435.11  11
   8   9   1 27063.4 1456.13  11
   8   9   3 2832.07 472.738  11
  -9   8  -3 2652.75 410.695   9
  -9   8   3 2526.25 416.697   9
   8   9   3 2036.35 308.184  12
   8   9  -3 2384.10 408.535  11
  -8  -9   3 2480.31 388.976   6
  -8  -9   5 112.337 160.568   6
   9  -8   5 82.8852 144.459  10
  -9   8   5 130.900 168.809   9
   8   9   5 181.835 139.286  11
  -8  -9   7 276.207 123.251   6
   9  -8   7 8.49880 112.192  10
  -9   8  -7-51.6400 190.061   5
   8   9   7 61.0426 96.3010  12
  -8  -9   7-73.2034 411.078   7
  -8  -9   7-15.6774 119.342   8
  -9   7   0 7865.19 633.538   5
   7   9   0 8658.51 1309.56   1
  -9   7   0 8905.90 803.235   9
   7   9   0 8258.02 826.834  11
   7   9   0 9347.14 1490.50   2
   7   9   0 7884.42 481.347  12
  -7  -9   2 4519.84 808.417   3
  -9   7  -2 8601.81 773.954   5
  -9   7   2 9073.94 765.854   9
  -9   7  -2 7325.71 714.738   9
   7   9   2 7396.77 1239.41   2
   7   9   2 7788.96 544.994  12
   7   9  -2 8180.22 737.296  11
   7   9   2 8941.69 821.838  11
   7   9  -2 6632.96 1196.78   1
   7   9  -2 6667.68 1361.26   2
   9  -7   4 11486.7 736.097  10
  -9   7   4 12677.4 810.672   9
   7   9   4 13068.3 814.868  11
   7   9  -4 13073.2 849.353  11
  -7  -9   4 12408.4 854.284   6
   9  -7   6-55.6720 164.155  10
  -9   7   6 157.354 170.749   9
   9  -7   8 2218.07 228.359  10
  -9   7  -8 2281.98 290.772   5
  -7  -9   8 2029.55 238.082   8
   7   9   8 1711.26 198.708  12
   6   9  -1 5269.88 996.059   1
  -9   6   1 4722.19 464.769   5
  -6  -9   1 4351.13 735.429   3
  -9   6  -1 4750.40 533.382   5
  -9   6   1 5844.88 648.627   9
  -9   6  -1 4370.98 578.707   9
   6   9   1 5450.81 1029.66   1
   6   9  -1 5146.72 1181.74   2
   6   9   1 5254.67 1087.44   2
   6   9   1 5621.89 440.041  12
   6   9  -1 5410.23 644.906  11
   6   9   1 5231.69 661.022  11
   6   9  -1 5695.25 390.826  12
  -6  -9   3 32256.7 1954.19   3
  -9   6   3 40748.0 1521.91   9
  -6  -9   3 41479.1 1446.99   6
   6   9   3 38662.3 2687.82   2
   6   9  -3 32405.4 2769.40   1
   6   9  -3 38587.5 1501.95  11
   6   9   3 41641.6 1547.60  11
   9  -6   5 31594.5 1195.25  10
  -9   6   5 31307.7 1199.02   9
  -6  -9   5 28468.2 1533.10   4
  -6  -9   5 28059.6 1276.86   6
   9  -6   7 12589.9 654.972  10
  -9   6  -7 14154.8 915.108   5
  -6  -9   7 12853.5 659.090   6
   9  -6   9 4884.09 288.117  10
  -6  -9   9 4640.02 277.642   8
  -9   5   0 3735.33 440.773   5
   5   9   0 3285.42 727.707   1
  -9   5   0 4146.93 557.009   9
   5   9   0 4337.41 358.428  12
   5   9   0 4143.81 970.991   2
   5   9   0 4394.77 574.962  11
   5   9  -2 669.544 155.994  12
  -9   5   2 183.162 113.038   5
  -9   5  -2 265.594 188.751   5
  -5  -9   2 152.449 274.360   3
  -9   5   2 156.179 183.490   9
  -9   5  -2 411.110 281.753   9
   5   9  -2 70.1116 192.952  11
   5   9  -2-356.096 394.325   1
   5   9   2 158.398 137.355  12
   5   9   2 99.5909 191.419  11
   5   9   2 386.421 311.819   2
   5   9  -2-96.8942 394.533   2
   9  -5   4 287.198 184.716  10
  -5  -9   4 495.073 298.296   4
   9  -5   4 979.298 433.347   3
  -5  -9   4 837.890 329.514   3
  -9   5   4 215.984 188.056   9
   5   9   4-2.65910 54.5652   2
   5   9  -4 454.433 239.342  11
   5   9   4 476.708 198.563  11
   9  -5   6 11587.8 718.838  10
  -5  -9   6 10368.4 560.050  10
  -9   5   6 10035.5 641.755   9
  -9   5  -6 10758.3 918.276   5
  -5  -9   6 11485.0 755.736   6
   9  -5   8 5994.58 429.058  10
  -9   5  -8 6623.62 534.198   5
  -5  -9   8 5266.70 543.083   4
  -5  -9   8 6401.10 465.880   8
   5   9   8 5226.24 370.561  12
   4   9  -1 52902.0 2736.12   1
  -9   4   1 53028.8 1529.11   5
  -4  -9   1 51382.3 2406.71   3
  -9   4  -1 56591.7 1776.02   5
  -9   4   1 66225.8 2079.14   9
  -9   4  -1 44974.2 1795.16   9
   4   9   1 53385.6 2672.34   1
   4   9   1 59867.7 3348.43   2
   4   9  -1 52786.3 3363.07   2
   4   9  -1 57842.1 1935.93  11
   4   9   1 57325.2 1330.96  12
   4   9   1 55493.3 1916.69  11
   4   9  -1 58834.3 1242.33  12
   9  -4   3 22023.5 1020.48  10
  -4  -9   3 30928.1 1908.18   3
   9  -4   3 24548.1 2197.44   3
  -9   4  -3 28212.7 1481.92   5
  -9   4   3 33404.3 1362.43   9
   4   9   3 32797.5 2410.69   2
  -4  -9   3 38681.1 1581.58   4
   4   9  -3 32752.4 2485.91   1
   4   9  -3 33226.1 1396.32  11
   4   9   3 33806.3 1322.65  11
   9  -4   5 15758.8 898.095  10
  -9   4  -5 14054.5 1108.66   5
  -9   4   5 15370.2 843.657   9
  -4  -9   5 13283.5 1076.96   4
  -4  -9   7 780.785 306.629   4
  -4  -9   7 173.249 192.506   8
   9  -4   7 96.0322 161.876  10
  -9   4  -7 619.724 256.789   5
  -4  -9   7 76.5585 122.505  10
  -4  -9   7-34.8455 539.873   7
   9  -4   9 108.879 100.563  10
  -4  -9   9 6.88170 106.229   8
   4   9   9-23.3774 81.3174  12
  -4  -9   9 41.6287 112.903   4
  -9   3   0 65744.5 2144.20   9
  -9   3   0 67161.1 1797.00   5
   3   9   0 65160.2 2686.08   1
   3   9   0 68456.0 3673.51   2
   3   9   0 69998.6 1378.17  12
   3   9   0 69465.9 2126.84  11
  -9   3   2 19320.1 922.443   5
  -3  -9   2 19961.7 1478.78   3
  -9   3  -2 20023.0 1148.88   5
  -9   3   2 21711.1 1155.23   9
   3   9  -2 22524.5 791.665  12
   3   9   2 20183.2 1902.29   2
  -3  -9   2 24872.8 1150.99   4
   3   9  -2 23337.8 2230.68   2
   3   9   2 20335.9 842.433  12
   3   9  -2 19574.3 1095.81  11
   3   9   2 21637.9 1116.77  11
  -3  -9   4 4408.78 765.544   3
   9  -3   4 3262.32 413.371  10
  -9   3  -4 2519.72 486.982   5
  -9   3   4 4352.04 488.182   9
  -3  -9   4 4144.93 577.127   4
   3   9  -4 4264.67 522.213  11
   3   9   4 4035.47 435.050  11
   9  -3   6 115.985 168.619  10
  -3  -9   6 392.618 184.655  10
  -9   3  -6 255.261 214.951   5
  -3  -9   6-2.40483 212.289   4
   9  -3   8-12.7180 151.287  10
  -3  -9   8 65.0640 564.708   7
  -3  -9   8 21.2815 199.132   4
  -3  -9   8-102.832 150.401   8
   3   9   8 157.972 114.865  12
   2   9   1 2499.73 729.828   2
   2   9  -1 2616.12 776.077   2
  -9   2   1 1705.43 295.885   5
  -2  -9   1 1895.53 510.518   3
  -9   2  -1 1706.70 327.064   5
  -9   2   1 1718.90 354.278   9
  -9   2  -1 1710.41 345.898   9
   2   9  -1 1973.41 241.365  12
   2   9  -1 1864.74 372.537  11
   2   9   1 1659.87 360.080  11
   2   9   1 1889.62 251.683  12
   9  -2   3 7084.11 557.730  10
  -2  -9   3 7617.06 938.639   3
  -9   2   3 8082.59 613.165   5
  -9   2  -3 6539.23 718.043   5
  -9   2   3 8995.65 726.971   9
   9  -2  -3 8896.50 1310.87   1
   2   9   3 8512.28 1276.00   2
  -2  -9   3 9899.66 775.308   4
   2   9   3 7535.67 610.902  11
   2   9  -3 8182.13 704.542  11
   2   9   3 8329.37 574.423  12
  -9   2   5 1094.99 254.995   6
   2   9  -5 1468.63 347.068  11
   9  -2   5 1213.49 270.648  10
  -9   2  -5 1430.44 390.295   5
  -2  -9   5 359.200 335.663   3
  -9   2   5 1308.07 314.264   9
  -2  -9   5 1174.37 359.231   4
   9  -2   7 5706.17 515.135  10
  -2  -9   7 5635.28 480.373  10
  -9   2  -7 6364.72 647.927   5
  -2  -9   7 4571.98 613.435   4
  -2  -9   7 5002.85 482.018   8
   2   9   7 4663.11 412.457  12
  -9   2   7 4905.61 459.340   6
   9  -2   9 2149.10 264.817  10
  -2  -9   9 1762.37 295.790   4
  -2  -9   9 1813.08 219.730   8
  -9   1   0 204172. 3115.27   5
  -1  -9   0 206464. 4785.25   3
  -9   1   0 185765. 3461.19   9
   1   9   0 197603. 3535.30  11
   1   9   0 187380. 6031.98   2
   1   9   0 206463. 2277.40  12
   9  -1   0 191527. 4655.05   1
   1   9   2 58434.0 1767.37  11
  -1  -9   2 52402.2 2340.31   3
  -9   1   2 51754.8 1497.62   5
  -9   1  -2 54141.1 1876.40   5
  -9   1   2 62813.7 1930.00   9
   1   9   2 52126.3 1290.57   9
   1   9   2 54401.7 3180.90   2
   9  -1  -2 48242.3 2766.71   1
   1   9  -2 61838.1 3331.90   2
   1   9  -2 58538.8 1275.58  12
   1   9   2 55756.2 1339.94  12
   1   9  -2 55779.3 1859.09  11
  -1  -9   4 9127.50 1084.63   3
   9  -1   4 6120.36 569.553  10
  -9   1  -4 6246.12 747.752   5
  -9   1   4 8466.09 665.547   9
   9  -1  -4 9087.90 1779.47   1
   1   9   4 7284.45 554.935  12
  -1  -9   4 9630.57 833.569   4
   1   9  -4 9707.72 794.153  11
  -9   1   4 8592.36 660.444   6
  -9   1   6 489.178 284.700   6
   9  -1  -6-159.105 1867.25   1
   9  -1   6 671.801 258.956  10
  -1  -9   6 615.362 216.924  10
  -9   1  -6 1196.70 401.570   5
  -1  -9   6 1909.15 591.672   3
  -1  -9   6 187.026 234.181   4
   1   9   6 822.263 204.219  12
  -1  -9   6 545.140 208.387   8
  -9   1   6 795.413 610.496   7
  -1  -9   8 1159.19 222.203  10
   9  -1   8 907.854 231.078  10
   1   9   8 815.555 150.098  12
  -1  -9   8 1100.22 217.071   8
  -1  -9   8 973.387 299.345   4
  -9   1   8 737.806 216.099   6
   9  -1  10 147.148 84.4050  10
   9   0   1 47424.3 2424.70   1
   0  -9   1 47727.7 2228.44   3
  -9   0   1 48444.2 1500.95   5
  -9   0  -1 50747.7 1683.29   5
   0  -9  -1 53133.1 2574.66   3
  -9   0   1 50130.2 1746.32   9
   9   0  -1 44837.9 2590.52   1
   0   9  -1 50759.1 1125.23  12
   0   9   1 49553.3 1170.91  12
   0   9  -1 50345.4 1822.11  11
   0   9   1 49329.9 1731.21  11
   0   9   3 1628.32 293.243  11
  -9   0   3 1646.26 353.463   9
  -9   0  -3 1293.20 336.516   5
   0   9   3 1946.07 274.105   9
   0  -9   3 1149.22 424.920   3
   9   0   3 1641.00 286.595  10
   9   0  -3 1578.43 630.202   1
   0   9   3 1932.82 277.125  12
   0   9  -3 1280.49 320.983  11
  -9   0   5-477.261 253.214   6
   9   0   5 225.990 204.509  10
  -9   0  -5 87.7392 203.623   5
   9   0  -5-994.570 772.304   1
   0  -9   5-417.281 275.939   3
   0  -9   5 34.1571 198.981   4
   0   9   5 185.574 157.702  12
  -9   0   7 149.130 215.724   6
   9   0   7 196.635 188.511  10
   0  -9   7 424.881 202.816  10
   0  -9   7 15.6320 153.630   4
   0   9   7 193.334 115.091  12
  -9   0   7 828.347 623.708   7
   0  -9   7 253.542 132.459   8
   9   0   9 77.3751 131.641  10
   0  -9   9 13.8771 99.1579  10
   0  -9   9 38.0177 105.289   8
   0  -9   9-55.7096 123.387   4
  -9   0   9 397.447 233.224   7
  -9  -1   0 1065.75 251.705   9
  -9  -1   0 967.364 254.530   5
   1  -9   0 407.737 226.805   3
   9   1   0 252.808 357.761   1
  -1   9   0 722.699 159.022  12
  -1   9   0 782.637 283.652  11
  -9  -1   2 391.482 176.732   5
   9   1   2 37.7295 236.944   1
   9   1   2 428.180 122.050  10
  -9  -1  -2 467.371 216.928   5
   1  -9   2 261.984 313.195   3
   1  -9  -2-474.321 343.880   3
  -1   9   2 664.080 176.946   9
  -1   9   2 516.021 146.699  12
   9   1  -2 142.575 330.855   1
  -1   9  -2 426.072 190.453  11
  -1   9   2 141.011 186.177  11
   9   1  -2 303.675 159.803  11
   9   1   4 1858.75 343.674  10
  -9  -1  -4 1555.67 365.404   5
   1  -9   4 1434.06 509.459   3
   9   1  -4 1511.61 757.777   1
  -1   9   4 2048.04 282.152  12
   9   1   6 4089.34 515.857  10
  -9  -1   6 4025.34 578.500   6
   1  -9   6 3735.37 424.069  10
   9   1   6 3401.55 396.891  11
   1  -9   6 3959.10 880.044   3
   1  -9   6 2899.80 497.239   4
   1  -9   6 4248.65 414.835   8
  -1   9   6 3253.36 338.524  12
   9   1   8 9110.79 621.232  10
   1  -9   8 9385.56 553.275  10
   1  -9   8 8333.48 707.902   4
   1  -9   8 8384.08 472.739   8
  -9  -1   8 9302.09 682.022   6
   9   1  10 1553.64 181.980  10
   9   2   1 864.295 436.623   1
   9   2  -1 849.103 500.693   1
  -9  -2   1 806.830 248.290   5
  -9  -2  -1 484.840 235.453   5
  -2   9   1 1214.48 248.611   9
   2  -9   1 780.274 338.078   3
   2  -9  -1 897.286 389.435   3
  -2   9  -1 554.841 205.614   9
  -2   9   1 719.555 165.112  12
  -2   9   1 624.473 268.839  11
   9   2  -1 929.478 255.776  11
   2  -9   3 11253.2 1164.67   3
   9   2   3 12376.4 758.535  10
  -9  -2  -3 9521.79 873.213   5
   2  -9  -3 10855.4 1348.19   3
  -2   9   3 11630.0 609.202  12
  -2   9   3 13274.0 723.433   9
   9   2  -3 9778.01 1521.53   1
   9   2   5 2481.38 413.147  10
   2  -9   5 2202.11 333.291  10
   2  -9   5 2565.72 728.954   3
  -2   9  -5 3109.56 442.084   9
   9   2  -5 2474.94 1098.21   1
   2  -9   5 2443.26 423.327   4
  -2   9   5 1816.71 258.487  12
   9   2   5 2426.66 366.410  11
  -9  -2   5 2482.03 460.859   6
   9   2   7 9338.21 700.041  10
   2  -9   7 9197.79 590.114  10
   2  -9   7 7322.89 727.490   4
  -9  -2   7 8048.10 527.216   8
  -9  -2   7 9423.29 825.878   6
   9   2   9 2587.36 296.440  10
   2  -9   9 2944.27 274.871  10
   2  -9   9 2462.12 323.618   4
   3  -9   0 67202.1 2874.28   3
  -9  -3   0 69625.1 2034.74   5
  -3   9   0 63616.1 1645.08   9
   9   3   0 55092.4 3037.04   1
   9   3   0 60457.5 1926.78  11
   9   3  -2 645.903 457.467   1
   9   3   2 310.225 140.177  10
  -9  -3  -2 180.304 133.066   5
   9   3   2 395.632 244.743  11
   3  -9   2 236.135 237.678   3
  -3   9   2 508.632 209.166   9
  -3   9  -2 949.260 264.794   9
  -3   9   2 402.864 141.929  12
   9   3   2 188.452 307.191   1
   9   3  -2 283.477 156.630  11
   9   3   4 17966.3 989.462  10
   3  -9   4 19155.5 842.960  10
  -3   9   4 17588.1 722.892  12
  -3   9   4 21772.1 930.763   9
  -3   9  -4 20758.8 1118.90   9
   9   3  -4 19562.4 2570.35   1
   3  -9   4 18811.1 1653.35   3
   9   3   4 22316.8 1097.11  11
   9   3   6 12865.8 872.720  10
   3  -9   6 11026.5 667.668  10
   9   3  -6 13969.3 2930.20   1
   3  -9   6 9022.94 806.221   4
  -9  -3   6 12703.0 1001.90   6
  -9  -3   8 680.025 261.415   6
   9   3   8 442.932 201.620  10
   3  -9   8 365.453 160.442  10
   3  -9   8 259.240 166.648   4
  -9  -3   8 605.752 152.144   8
  -9  -3   8 839.268 627.192   7
   4  -9   1 5339.99 861.692   3
   4  -9  -1 6872.49 985.444   3
   9   4   1 5339.61 1007.94   1
  -4   9   1 6745.50 612.706   9
  -4   9  -1 5685.88 565.222   9
   9   4  -1 4833.07 1005.66   1
   9   4  -1 5666.15 592.839  11
   9   4   1 4654.09 592.015  11
   9   4   3 1256.71 289.273  10
   9   4   3 1174.13 618.535   2
  -9  -4  -3 660.169 303.996   5
   4  -9   3 1221.80 256.859  10
   9   4  -3 1160.42 246.247  11
   4  -9   3 676.414 308.924   3
  -4   9   3 881.727 224.667   9
  -4   9  -3 935.476 279.486   9
  -4   9   3 1122.80 204.933  12
   9   4  -3 734.374 448.375   1
   9   4   3 1325.85 338.215  11
   9   4   5 2285.95 409.394  10
   4  -9   5 2446.85 354.293  10
  -4   9   5 2813.78 377.247   9
   4  -9   5 1645.70 536.050   3
  -4   9  -5 3162.90 449.218   9
   9   4   5 2459.12 370.678  11
  -9  -4   5 2720.97 495.080   6
   9   4   7 3624.17 452.323  10
   4  -9   7 3312.33 364.492  10
  -9  -4   7 3297.33 543.316   6
   4  -9   9 1339.35 185.627  10
  -9  -4   9 1629.61 544.801   7
  -5   9   0 131459. 2731.29   9
   9   5   0 101420. 4462.97   1
   9   5   0 111310. 2762.76  11
   5  -9   0 128126. 4620.38   3
   5  -9   2 84748.8 1954.56  10
   9   5   2 68152.8 3691.14   2
  -5   9   2 72855.8 1800.43   9
   9   5   2 71793.9 3743.53   1
  -5   9  -2 70358.1 2139.70   9
   9   5  -2 69695.2 4102.76   1
   9   5  -2 78512.4 2046.98  11
   9   5   2 84649.2 2426.40  11
   5  -9   2 84169.6 3719.53   3
   5  -9   4 66567.5 1674.77  10
  -5   9   4 66341.0 1704.17   9
   9   5  -4 66170.3 4860.99   1
   9   5   4 71201.8 1953.31  11
   5  -9   4 65663.7 3518.15   3
   9   5   4 68058.1 3291.64   2
   9   5   4 60307.9 1866.67  10
   5  -9   6 13040.0 706.808  10
  -9  -5   6 12924.2 968.433   6
   9   5   6 14159.4 906.939  10
   5  -9   8 1126.70 200.170  10
  -9  -5   8 1163.28 214.343   8
  -9  -5   8 1280.18 275.482   6
   9   6   1 65829.5 3637.61   1
  -6   9   1 69366.0 1874.49   9
  -6   9  -1 73549.8 2179.20   9
   9   6   1 67458.4 2234.25  11
   9   6  -1 69974.4 2118.10  11
   9   6   1 62738.0 3812.75   2
   9   6  -1 58385.2 3624.04   1
   6  -9   1 79535.7 4146.07   3
   6  -9   3 80163.1 1950.23  10
  -6   9   3 68672.9 1790.21   9
  -6   9  -3 69373.5 2163.95   9
   9   6  -3 73211.5 4708.78   1
   9   6  -3 71686.1 1912.47  11
   9   6   3 77504.8 2208.03  11
   6  -9   3 72928.2 3972.31   3
   9   6   3 73077.4 3467.25   2
   6  -9   5 29888.3 1093.20  10
  -6   9   5 29521.4 1143.49   9
   9   6   5 28507.7 1114.77  11
  -9  -6   5 28876.9 1353.93   6
  -9  -6   7 1263.32 317.334   6
   6  -9   7 721.128 199.915  10
   6  -9   9 738.217 127.141  10
  -9  -6   9 606.374 394.858   7
   9   7   0 664.806 692.641   2
   9   7   0 624.515 515.875   1
  -7   9   0 826.849 287.825   9
   9   7   0 730.600 319.800  11
  -7   9   2 1456.20 318.619   9
  -7   9  -2 1056.63 306.194   9
   9   7   2 564.181 468.422   1
   9   7  -2 1343.08 624.265   1
   9   7  -2 1555.47 357.732  11
   9   7   2 1280.36 379.778  11
   9   7   2 543.268 256.009   2
   7  -9   4 4652.63 478.568  10
  -7   9   4 3671.47 447.162   9
  -7   9  -4 3690.03 454.612   9
   9   7   4 3593.24 478.840  11
  -9  -7   4 3604.07 488.811   6
   7  -9   6 9040.73 564.518  10
  -7   9   6 8572.65 546.668   9
  -9  -7   6 7787.38 692.233   6
   7  -9   8 4125.18 308.718  10
  -9  -7   8 3671.89 301.478   8
  -9  -7   8 3771.56 604.892   7
  -9  -7   8 4108.66 340.041   6
   9   8  -1 2848.09 925.810   2
   9   8  -1 731.384 474.861   1
  -8   9   1 1810.84 383.206   9
  -8   9  -1 1288.03 342.156   9
   9   8   1 1393.56 596.131   1
   9   8  -1 1416.16 392.757  11
   9   8   1 984.736 360.978  11
   9   8   1 1661.72 595.809   2
   9   8  -3 12993.1 854.436  11
  -8   9   3 14593.2 875.490   9
  -8   9  -3 14276.0 938.570   9
   9   8   3 14659.4 983.771  11
  -8   9   5 13335.6 740.389   9
   9   8   5 12831.3 712.839  11
  -9  -8   5 13032.6 858.352   6
   8  -9   7 3966.09 326.257  10
  -9  -8   7 3210.37 337.498   8
  -9  -8   7 3816.59 361.720   6
  -9   9   0 2919.67 370.517   5
  -9   9   0 3308.07 513.352   9
   9   9   0 2579.13 504.188  11
   9   9   2 1872.21 269.872  12
  -9   9  -2 2182.78 401.314   5
  -9   9   2 2270.63 422.356   9
  -9   9  -2 1800.63 358.696   9
   9   9  -2 1769.47 378.896  11
   9   9   2 1828.80 446.653  11
  -9   9   4 2537.09 360.187   9
   9   9   4 1962.52 303.229  12
   9   9  -4 2935.44 383.962  11
   9   9   4 2530.80 374.736  11
  -9  -9   4 2990.13 428.138   6
  -9  -9   6 453.381 192.303   6
   9  -9   6 509.103 157.140  10
  -9   9  -6 415.086 195.460   5
  -9   9   6 276.335 84.7635   9
   9   9   6 472.473 160.820  12
 -10   9  -1 2357.97 379.368   5
 -10   9   1 3112.72 492.776   9
 -10   9  -1 2182.03 412.650   9
   9  10  -1 2341.38 458.281  11
   9  10   1 2316.45 478.368  11
 -10   9  -3 1560.95 354.428   5
 -10   9   3 1523.48 318.128   9
 -10   9  -3 1801.10 304.224   9
   9  10   3 1228.39 217.537  12
   9  10  -3 1723.43 314.928  11
   9  10   3 1839.35 375.721  11
  -9 -10   3 1842.41 315.931   6
  -9 -10   5 406.577 133.829   6
 -10   9  -5 201.296 183.943   5
   9  10   5 14.4562 89.5130  12
 -10   9   5 204.311 148.982   9
 -10   9  -7 1727.68 233.441   5
  -9 -10   7 1416.39 171.936   8
 -10   8   0 48246.3 1501.81   5
 -10   8   0 49115.5 1891.04   9
   8  10   0 45063.3 1889.54  11
 -10   8  -2 19690.2 1135.15   5
 -10   8   2 20411.4 1131.17   9
 -10   8  -2 20423.3 1160.42   9
  -8 -10   2 20389.5 1009.24   6
   8  10   2 18860.5 809.019  12
   8  10   2 20490.7 1206.01  11
   8  10  -2 18581.3 1109.22  11
 -10   8  -4 5594.10 674.977   5
 -10   8   4 5974.29 545.891   9
   8  10   4 4371.47 427.244  12
   8  10   4 5742.19 518.888  11
   8  10  -4 5531.47 540.365  11
  -8 -10   4 5908.27 568.685   6
  10  -8   6 1688.82 226.155  10
 -10   8  -6 2107.95 384.368   5
 -10   8   6 1822.57 251.628   9
   8  10   6 1370.16 225.461  12
   7  10   1 34455.5 1048.36  12
  -7 -10   1 24964.5 1872.56   3
 -10   7   1 34029.8 1236.11   5
 -10   7  -1 34539.0 1427.15   5
   7  10  -1 27080.4 2440.54   1
 -10   7   1 38819.6 1653.72   9
 -10   7  -1 26581.8 1428.66   9
   7  10   1 32678.7 2588.02   1
   7  10   1 39836.4 3077.40   2
   7  10  -1 31366.0 2938.40   2
   7  10  -1 35194.1 1619.06  11
   7  10   1 34682.3 1650.20  11
 -10   7  -3 13533.9 1031.89   5
 -10   7   3 14525.6 920.361   9
   7  10   3 13511.3 752.648  12
   7  10  -3 13174.4 907.233  11
   7  10   3 15224.3 960.587  11
  10  -7   5 2965.87 355.039  10
 -10   7  -5 3447.08 524.106   5
 -10   7   5 3126.25 389.278   9
   7  10   5 2232.78 332.466  12
  10  -7   7-115.696 126.118  10
 -10   7  -7 211.847 135.164   5
  -7 -10   7 210.762 138.726   8
   7  10   7 228.774 118.926  12
  -7 -10   7-92.5890 437.481   7
 -10   6   0 853.599 250.596   5
   6  10   0 815.308 184.492  12
 -10   6   0 571.664 278.143   9
   6  10   0 858.369 346.017  11
   6  10   0 171.382 284.900   2
   6  10  -2-584.220 396.308   1
 -10   6   2 1819.24 316.093   5
   6  10   2 1473.64 608.539   2
 -10   6  -2 2274.48 436.617   5
 -10   6   2 1834.20 414.126   9
   6  10  -2 1485.04 373.538  11
  -6 -10   2 118.933 357.174   3
 -10   6  -2 1479.23 324.484   9
   6  10   2 1437.59 271.566  12
   6  10   2 1481.41 383.647  11
   6  10  -2 1559.65 826.326   2
  10  -6   4 174.935 137.241  10
 -10   6  -4 404.532 256.708   5
 -10   6   4 111.595 187.720   9
   6  10   4 357.913 188.104  12
   6  10  -4 154.106 164.837  11
   6  10   4 356.347 194.754  11
  10  -6   6 6799.05 511.778  10
 -10   6  -6 6741.97 699.787   5
 -10   6   6 6430.78 491.913   9
   6  10   6 5380.67 457.694  12
  10  -6   8 9038.71 432.134  10
 -10   6  -8 7866.95 484.015   5
  -6 -10   8 8444.68 413.351   8
   6  10   8 7244.37 359.364  12
 -10   5   1 16544.6 893.951   5
  -5 -10   1 15604.9 1427.19   3
   5  10  -1 15327.6 1619.30   1
 -10   5  -1 17966.3 1068.15   5
 -10   5   1 19658.4 1219.32   9
 -10   5  -1 14656.8 1069.92   9
   5  10   1 17548.1 775.198  12
   5  10   1 21076.7 2188.40   2
   5  10  -1 15736.7 2044.98   2
   5  10  -1 17848.3 706.228  12
   5  10  -1 17326.3 1154.19  11
   5  10   1 16004.7 1113.03  11
  -5 -10   3 52774.7 2561.85   3
 -10   5  -3 55259.1 2117.22   5
 -10   5   3 64899.5 1961.52   9
   5  10   3 61505.9 3519.70   2
   5  10   3 59065.0 1580.56  12
   5  10  -3 62317.3 1988.16  11
   5  10   3 64380.1 1902.91  11
  10  -5   5 48017.6 1480.25  10
 -10   5  -5 51523.7 2057.83   5
 -10   5   5 52593.0 1500.20   9
  -5 -10   5 47386.3 1916.07   4
   5  10   5 47504.6 1426.31  12
  10  -5   7 26488.6 926.141  10
 -10   5  -7 28565.4 1214.43   5
  -5 -10   7 20273.6 1097.37   4
  -5 -10   7 24755.6 937.688   8
   5  10   7 23525.9 821.059  12
 -10   4   0 900.394 267.781   5
   4  10   0 1493.35 476.161   1
 -10   4   0 1142.36 356.166   9
  -4 -10   0 594.237 359.195   3
   4  10   0 560.186 153.942  12
   4  10   0 881.677 338.209  11
   4  10   0 390.728 570.983   2
   4  10  -2 773.897 313.266  11
   4  10   2 643.764 273.875  11
 -10   4   2 646.789 206.807   5
 -10   4  -2 584.831 274.957   5
  -4 -10   2 295.690 264.066   3
 -10   4   2 909.814 312.775   9
   4  10   2 702.616 218.006  12
   4  10  -2 700.697 164.951  12
   4  10   2 56.4383 405.008   2
  10  -4   4 3812.14 440.872  10
 -10   4  -4 4411.72 648.622   5
 -10   4   4 6407.64 612.193   9
   4  10  -4 6201.21 657.622  11
  -4 -10   4 4102.18 812.956   3
  -4 -10   4 7467.48 770.157   4
   4  10   4 5867.98 536.453  12
   4  10   4 6116.40 547.767  11
  10  -4   6 2895.66 392.146  10
  -4 -10   6 2918.60 323.445  10
 -10   4  -6 3451.41 541.966   5
  -4 -10   6 2169.05 440.493   4
   4  10   6 2900.66 363.285  12
  -4 -10   6 2139.53 612.903   7
  10  -4   8 8529.22 484.364  10
  -4 -10   8 6890.49 565.627   4
  -4 -10   8 7993.86 445.968   8
   4  10   8 6407.40 367.524  12
 -10   3   1 33957.8 1304.23   5
  -3 -10   1 32529.3 2040.23   3
 -10   3  -1 35486.1 1492.76   5
   3  10  -1 35293.7 1003.01  12
 -10   3   1 38145.8 1692.10   9
 -10   3  -1 33350.3 1583.62   9
   3  10   1 36117.9 2835.44   2
   3  10  -1 29747.5 2713.30   2
   3  10   1 35707.4 1080.98  12
   3  10  -1 36252.6 1647.09  11
   3  10   1 34569.0 1593.87  11
 -10   3   3 1094.16 272.035   5
 -10   3  -3 534.312 236.314   5
  -3 -10   3 800.658 217.361   3
 -10   3   3 1095.35 323.368   9
   3  10   3 948.197 245.156  12
  -3 -10   3 1657.65 376.563   4
   3  10  -3 1254.27 295.031  11
   3  10   3 1244.61 307.324  11
  10  -3   5 18.7723 165.557  10
 -10   3  -5 154.512 228.078   5
 -10   3   5 86.9998 234.576   9
  -3 -10   5 337.317 269.255   4
   3  10   5 142.178 166.553  12
   3  10  -5-61.7972 225.355  11
  10  -3   7 297.040 187.702  10
  -3 -10   7 160.309 119.988  10
 -10   3  -7 547.011 249.756   5
  -3 -10   7 282.115 187.500   4
   3  10   7 80.7466 127.914  12
  -3 -10   7 264.686 152.972   8
  10  -3   9 126.928 83.1523  10
  -3 -10   9-10.2751 68.7055   8
 -10   2   0 79369.7 2078.60   5
  -2 -10   0 80909.9 3300.27   3
   2  10   0 79156.6 2430.95  11
   2  10   0 77233.2 4287.62   2
   2  10   0 79844.8 1522.14  12
  -2 -10   2 16275.8 1432.19   3
 -10   2   2 16222.0 888.908   5
 -10   2  -2 16506.5 1111.44   5
 -10   2   2 19232.5 1144.85   9
   2  10   2 17276.8 785.067   9
   2  10   2 15292.7 1830.36   2
   2  10  -2 17098.1 1974.21   2
   2  10   2 16766.8 791.483  12
   2  10  -2 17937.0 1142.21  11
   2  10   2 17646.1 1063.90  11
 -10   2   4-96.3745 219.447   6
  10  -2   4 339.742 175.664  10
 -10   2  -4 561.489 311.959   5
  -2 -10   4 909.990 418.531   3
 -10   2   4 528.046 269.722   9
  -2 -10   4 790.473 302.170   4
   2  10   4 269.047 176.912  12
   2  10  -4 443.602 246.276  11
 -10   2   6 383.671 189.546   6
  10  -2   6 500.844 210.797  10
  -2 -10   6 550.002 213.344  10
 -10   2  -6 581.801 248.362   5
  -2 -10   6 192.344 181.895   4
   2  10   6 373.970 180.543  12
  10  -2   8 175.522 146.445  10
  -2 -10   8 268.273 89.6176  10
  -2 -10   8 230.812 137.505   8
  -2 -10   8 108.230 162.728   4
   2  10   8 61.5335 81.3619  12
  -1 -10   1 18548.2 1550.02   3
 -10   1   1 19344.9 1008.26   5
 -10   1  -1 20067.3 1138.16   5
  -1 -10  -1 21963.9 1863.51   3
 -10   1  -1 21725.9 1158.93   9
 -10   1   1 19641.0 1184.71   9
   1  10   1 20532.0 1223.12  11
   1  10  -1 19178.8 743.081  12
  10  -1  -1 18111.0 1648.41   1
   1  10  -1 19794.7 1234.19  11
   1  10   1 18822.7 779.368  12
  10  -1   3 16486.6 874.787  10
  -1 -10   3 16883.4 1461.49   3
 -10   1  -3 14747.9 1128.58   5
 -10   1   3 20830.2 1104.13   9
  10  -1  -3 16744.6 1954.04   1
   1  10   3 17369.5 836.259  12
   1  10  -3 19039.2 1163.81  11
   1  10   3 18932.4 997.285  11
  10  -1   5 6973.18 632.258  10
 -10   1  -5 8831.47 896.122   5
  -1 -10   5 7436.50 759.770   4
  10  -1  -5 6222.39 1822.79   1
   1  10   5 7302.98 551.863  12
 -10   1   5 8038.90 697.094   6
  -1 -10   5 7912.27 1164.01   3
  10  -1   7 441.851 206.250  10
  -1 -10   7 316.769 164.949  10
  -1 -10   7 233.516 132.155   8
 -10   1   7 241.403 160.640   6
   1  10   7 368.685 147.392  12
  -1 -10   7 370.182 234.204   4
  10  -1   9 352.085 122.694  10
 -10   0   0 14414.9 921.935   5
   0 -10   0 15603.2 1473.79   3
 -10   0   0 14925.5 982.385   9
   0  10   0 13549.3 640.805  12
   0  10   0 13116.0 1028.19  11
  10   0   0 12338.3 1336.14   1
   0 -10   2 14265.5 1338.89   3
 -10   0   2 14088.3 857.561   5
 -10   0  -2 14218.6 1040.61   5
   0 -10  -2 15727.2 1712.15   3
 -10   0   2 16050.1 1042.50   9
   0  10   2 13756.2 727.452   9
  10   0  -2 12756.6 1601.87   1
   0  10   2 14018.3 701.956  12
   0  10  -2 14122.1 1053.72  11
   0  10   2 14902.7 980.350  11
 -10   0   4 18445.0 1003.55   6
   0 -10   4 16962.2 1548.33   3
  10   0   4 14418.4 880.454  10
 -10   0  -4 13279.2 1083.63   5
  10   0  -4 17623.0 2296.28   1
   0  10   4 17029.4 829.283  12
 -10   0   6 280.110 248.700   6
  10   0   6 385.418 222.025  10
   0 -10   6 190.738 188.734  10
 -10   0  -6 291.491 174.750   5
   0 -10   6 577.439 190.466   8
   0 -10   6 108.153 194.111   4
   0  10   6 361.685 158.300  12
 -10   0   6-237.150 480.512   7
  10   0   6 144.425 133.953  11
  10   0   8 3322.35 369.233  10
   0 -10   8 3043.40 302.876  10
   0 -10   8 2742.66 383.038   4
   0 -10   8 3068.06 273.563   8
 -10   0   8 3015.90 339.182   6
   1 -10   1 3916.22 740.950   3
 -10  -1   1 4022.63 487.750   5
 -10  -1  -1 3675.24 529.732   5
  10   1   1 3083.60 758.515   1
   1 -10  -1 4039.31 816.143   3
  10   1  -1 2876.33 706.890   1
  -1  10   1 4085.98 431.160   9
  -1  10   1 3981.06 366.051  12
  -1  10   1 4843.75 610.601  11
  10   1   3 23241.1 1062.82  10
   1 -10   3 21393.5 1682.66   3
 -10  -1  -3 16477.2 1195.22   5
   1 -10  -3 17518.1 2002.30   3
  -1  10   3 26866.2 1076.43   9
  10   1  -3 20082.1 2276.18   1
  -1  10   3 22575.8 901.075  12
  -1  10   3 21340.1 1053.71  11
  10   1   5 21643.0 1121.21  10
   1 -10   5 25283.3 984.177  10
 -10  -1  -5 30941.9 1599.16   5
  10   1  -5 29516.0 3596.36   1
  -1  10   5 22912.3 889.027  12
  10   1   5 25116.5 1115.35  11
   1 -10   5 24397.4 2017.96   3
 -10  -1   5 27604.8 1340.37   6
  10   1   7 19501.9 959.440  10
   1 -10   7 18861.8 816.255  10
 -10  -1   7 18367.1 1022.87   6
  10   1   9 5066.98 357.855  10
   1 -10   9 4974.83 294.572  10
   2 -10   0 19930.9 1706.32   3
 -10  -2   0 18014.2 1077.06   5
  -2  10   0 16666.7 882.319   9
  -2  10   0 15617.7 687.285  12
  -2  10   0 13664.6 1060.69  11
  10   2   0 16708.8 1096.41  11
  10   2   0 13861.1 1558.69   1
  10   2   2 1629.65 277.359  10
  10   2  -2 811.234 472.769   1
 -10  -2  -2 981.587 337.907   5
   2 -10   2 1890.94 491.485   3
   2 -10  -2 666.985 462.701   3
  -2  10   2 1038.98 260.663   9
  -2  10  -2 1226.81 311.211   9
  10   2   2 977.272 472.005   1
  10   2  -2 1342.70 284.961  11
  -2  10   2 1157.50 218.365  12
  10   2   2 879.548 334.135  11
  10   2   4 13574.0 876.510  10
  -2  10   4 13384.5 673.363  12
 -10  -2  -4 15455.2 1161.84   5
  -2  10   4 17628.6 837.570   9
  -2  10  -4 15519.4 1028.53   9
  10   2  -4 14663.4 2223.14   1
  10   2   4 16684.1 984.046  11
   2 -10   4 15517.9 1549.36   3
  10   2   6 13021.4 875.098  10
   2 -10   6 12636.0 711.254  10
  10   2   6 11184.9 680.013  11
 -10  -2   6 13130.3 984.889   6
  10   2   8 3249.23 367.660  10
   2 -10   8 3194.14 308.127  10
 -10  -2   8 3163.24 387.878   6
 -10  -3  -1 468.923 260.421   5
  10   3   1 827.684 491.556   1
   3 -10   1 1459.63 456.640   3
   3 -10  -1 1225.24 506.543   3
  10   3  -1-322.717 390.019   1
  -3  10   1 242.442 181.454   9
  -3  10  -1 398.802 201.051   9
  -3  10   1 389.268 144.278  12
  10   3  -1 305.432 196.999  11
  10   3   1 480.482 285.472  11
  10   3   3 1170.81 284.659  10
  10   3  -3 1261.70 675.439   1
 -10  -3  -3 940.970 318.167   5
  -3  10   3 762.714 184.671  12
   3 -10   3 1494.31 475.397   3
  -3  10   3 1015.21 233.541   9
  -3  10  -3 593.318 253.957   9
  10   3  -3 907.671 230.959  11
  10   3   3 987.813 323.295  11
 -10  -3   5 1334.04 378.443   6
   3 -10   5 1158.17 276.990  10
  10   3   5 1020.67 293.454  10
  -3  10  -5 1845.21 366.746   9
  10   3  -5 1050.25 666.062   1
  10   3   5 1128.42 291.392  11
  10   3   7 7390.56 609.116  10
   3 -10   7 6534.16 473.319  10
 -10  -3   7 5222.48 398.174   8
 -10  -3   7 6296.07 652.079   6
   3 -10   9 3978.07 262.011  10
 -10  -3   9 4712.05 538.282   7
  -4  10   0 364.858 199.657   9
  10   4   0-232.646 234.973   1
  10   4   0 269.398 251.522  11
  10   4  -2 162.640 212.616   1
   4 -10   2 313.863 315.721   3
  -4  10   2 193.657 164.850   9
  -4  10  -2-80.0827 204.117   9
  10   4   2-126.964 423.170   1
  10   4  -2 176.244 194.587  11
  10   4   2 466.031 300.596  11
  10   4  -4 1636.04 714.312   1
   4 -10   4 2199.83 337.334  10
  -4  10   4 2319.15 340.178   9
   4 -10   4 1176.76 599.561   3
  -4  10  -4 2486.32 435.305   9
  10   4   4 2352.30 423.126  11
  10   4   4 2104.09 387.187  10
   4 -10   6 5611.76 475.633  10
 -10  -4   6 5632.53 658.250   6
  10   4   6 5763.73 589.384  10
   4 -10   8 9513.67 476.564  10
 -10  -4   8 10414.2 628.940   6
   5 -10   1 10613.2 795.185  10
  10   5   1 7894.25 1322.16   1
  -5  10   1 9823.88 728.955   9
  -5  10  -1 10665.5 915.144   9
  10   5   1 8979.97 863.702  11
  10   5  -1 7311.24 1309.09   1
  10   5  -1 9236.74 801.978  11
   5 -10   1 11111.9 1581.10   3
   5 -10   3 9593.45 696.383  10
  -5  10   3 7996.31 619.757   9
  -5  10  -3 8750.40 825.017   9
  10   5  -3 9252.04 1742.75   1
  10   5   3 8819.58 1301.20   2
  10   5  -3 8145.04 664.191  11
  10   5   3 9596.65 834.503  11
   5 -10   3 8071.60 1344.75   3
 -10  -5   5 1129.27 354.835   6
   5 -10   5 1697.93 305.606  10
  -5  10   5 1512.82 278.427   9
  -5  10  -5 1601.33 329.229   9
  10   5   5 1162.25 293.658  11
  10   5   5 903.206 308.155  10
 -10  -5   7 1248.40 308.215   6
   5 -10   7 1178.80 218.254  10
 -10  -5   7 1168.99 225.886   8
 -10  -5   7 1869.29 670.131   7
  10   6   0 138048. 5508.78   1
  -6  10   0 152039. 2983.23   9
  10   6   0 143185. 3257.95  11
  10   6   2 43237.2 2955.94   2
   6 -10   2 49884.6 1661.36  10
  -6  10   2 41456.7 1429.13   9
  -6  10  -2 37174.7 1605.25   9
  10   6   2 39761.7 2928.28   1
  10   6  -2 38404.7 3218.13   1
  10   6  -2 42513.7 1592.46  11
  10   6   2 45652.8 1853.91  11
   6 -10   2 44930.6 3437.01   3
 -10  -6   4 1961.52 399.700   6
   6 -10   4 2216.85 345.104  10
  -6  10   4 2262.47 354.028   9
  -6  10  -4 2598.25 416.562   9
  10   6   4 2066.88 390.118  11
   6 -10   6 2625.99 324.617  10
 -10  -6   6 2072.57 398.404   6
   6 -10   8 4522.08 302.282  10
 -10  -6   8 4439.05 349.846   6
  10   7   1 809.595 493.400   2
  10   7  -1 1377.32 1058.99   2
  -7  10   1 629.998 255.512   9
  -7  10  -1 525.841 257.590   9
  10   7  -1 469.235 300.524  11
  10   7  -1 1811.11 724.359   1
  10   7   1 407.050 282.887  11
   7 -10   3-252.271 169.880  10
  -7  10   3-6.80647 180.601   9
  -7  10  -3 91.1956 172.461   9
  10   7  -3-115.746 212.295  11
  10   7   3 61.5291 219.181  11
 -10  -7   5 482.436 251.485   6
   7 -10   5 478.119 203.466  10
  -7  10   5 213.492 153.524   9
  10   7   5 265.561 157.575  11
   7 -10   7 4406.46 334.529  10
 -10  -7   7 3707.86 331.874   8
 -10  -7   7 4316.64 406.065   6
  -8  10   0 130.858 227.824   9
  10   8   0 316.869 286.538  11
  -8  10   2-39.0810 225.579   9
  -8  10  -2 63.0840 178.990   9
  10   8  -2 389.344 228.402  11
  10   8   2 118.492 260.316  11
 -10  -8   4 134.793 217.140   6
   8 -10   4 277.919 154.070  10
  -8  10   4 101.789 160.146   9
  10   8   4 248.532 195.122  11
   8 -10   6 5116.91 381.261  10
 -10  -8   6 4267.28 439.403   6
  -9  10  -1 10762.0 717.953   5
  -9  10   1 12306.4 872.261   9
  -9  10  -1 10084.5 831.104   9
  10   9  -1 11235.0 901.621  11
  10   9   1 9778.61 900.519  11
  -9  10  -3 2811.01 454.301   5
  -9  10   3 2847.81 391.706   9
  -9  10  -3 2826.76 392.154   9
  10   9   3 2389.02 288.921  12
  10   9  -3 2844.54 390.928  11
  10   9   3 2764.98 443.288  11
 -10  -9   3 3157.25 413.629   6
 -10  -9   5 260.226 155.009   6
  -9  10  -5-3.09397 184.445   5
  -9  10   5 360.620 161.224   9
  10   9   5 65.2754 99.1269  12
  10   9   5 219.136 102.914  11
  -9  10  -7 500.015 138.389   5
 -10  10   0 19319.4 1099.93   9
  10  10   0 16920.7 1090.69  11
 -10  10  -2 8498.87 654.037   5
 -10  10   2 9095.76 688.069   9
 -10  10  -2 8692.09 692.969   9
  10  10  -2 8236.37 690.142  11
  10  10   2 9243.68 777.944  11
 -10 -10   2 9196.19 675.108   6
 -10  10  -4 2962.33 420.864   5
 -10  10   4 2992.09 336.013   9
  10  10   4 1890.11 234.703  12
  10  10   4 3160.79 348.417  11
 -10 -10   4 2891.80 368.781   6
 -10  10  -6 272.174 128.445   5
 -10 -10   6-74.5178 263.782   7
 -11  10  -1 282.395 121.377   5
 -11  10   1 553.204 219.774   9
 -11  10  -1 215.202 160.636   9
  10  11  -1 625.156 233.293  11
  10  11   1 330.523 219.348  11
 -11  10  -3 393.306 180.622   5
 -11  10   3 269.022 165.069   9
  10  11  -3 81.1190 114.318  11
  10  11   3 242.088 172.844  11
 -11  10  -5 979.350 200.805   5
 -11   9   0 3879.21 381.494   5
 -11   9   0 5384.83 600.388   9
   9  11   0 6059.18 679.926  11
 -11   9   2 1588.87 323.153   9
 -11   9  -2 1900.32 347.100   9
 -11   9  -2 1303.33 288.540   5
   9  11   2 1283.33 192.382  12
   9  11  -2 1287.04 313.097  11
   9  11   2 1390.30 349.425  11
 -11   9  -4 30.2666 179.253   5
 -11   9   4 51.5655 128.503   9
   9  11   4 46.4800 78.4820  12
   9  11   4 186.559 123.932  11
   9  11   6 447.206 89.0808  12
 -11   9  -6 454.081 147.109   5
  -9 -11   6 338.168 115.188   8
 -11   8  -1 23995.7 1118.09   5
 -11   8   1 24759.0 1271.65   9
   8  11   1 23113.7 778.316  12
   8  11  -1 22628.9 1266.25  11
   8  11   1 22713.4 1306.38  11
 -11   8  -3 17376.3 1065.28   5
 -11   8   3 19271.8 969.269   9
   8  11  -3 17134.9 963.832  11
   8  11   3 18426.2 991.245  11
 -11   8  -5 6377.69 603.358   5
 -11   8   5 5704.38 418.382   9
 -11   7   0 41770.2 1432.22   5
 -11   7   0 37355.1 1658.04   9
   7  11   0 41784.4 1047.25  12
   7  11   0 40894.8 1813.16  11
 -11   7  -2 12980.0 938.197   5
 -11   7   2 13712.1 931.249   9
 -11   7  -2 13342.0 900.405   9
   7  11   2 12083.4 646.599  12
   7  11  -2 12369.1 933.185  11
   7  11   2 13322.8 966.512  11
 -11   7   4 1413.96 299.538   9
 -11   7  -4 1280.87 367.143   5
   7  11   4 1241.33 247.588  12
   7  11   4 1519.24 279.242  11
   7  11  -4 795.401 278.137  11
 -11   7  -6 510.189 210.333   5
   7  11   6 306.782 131.061  12
 -11   6   1 682.839 236.598   5
 -11   6  -1 636.054 262.627   5
 -11   6   1 906.170 318.673   9
 -11   6  -1 231.804 252.299   9
   6  11   1 939.988 207.581  12
   6  11  -1 747.061 348.213  11
   6  11   1 616.376 322.214  11
   6  11  -1 921.661 183.641  12
 -11   6  -3 159.086 246.951   5
 -11   6   3 460.964 277.087   9
   6  11   3 221.774 161.313  12
   6  11  -3 553.627 282.610  11
   6  11   3 37.8460 183.960  11
 -11   6  -5 201.784 192.092   5
 -11   6   5 252.335 210.698   9
   6  11   5 370.077 160.864  12
  -6 -11   7 7762.75 438.549   8
   6  11   7 7083.62 384.222  12
   5  11   0 146.639 122.461  12
 -11   5   0 314.355 228.314   5
 -11   5   0 115.208 229.242   9
  -5 -11   0-860.805 405.970   3
   5  11   0-1140.19 326.278   2
   5  11   0 242.306 256.767  11
 -11   5   2 4204.25 455.627   5
 -11   5  -2 3830.08 573.451   5
 -11   5   2 4345.93 591.877   9
 -11   5  -2 3742.46 511.758   9
  -5 -11   2 2849.12 719.525   3
   5  11   2 4041.59 414.979  12
   5  11  -2 3772.05 559.931  11
   5  11   2 4221.00 579.027  11
   5  11   2 2468.45 858.737   2
 -11   5  -4 5106.10 677.097   5
 -11   5   4 6568.47 598.770   9
   5  11   4 5542.56 504.738  12
   5  11  -4 6678.39 653.331  11
   5  11   4 6291.22 554.558  11
  11  -5   6 9065.46 572.705  10
 -11   5  -6 9993.73 794.033   5
   5  11   6 7910.34 506.685  12
   5  11   8 4653.32 251.698  12
  -4 -11   1 8209.81 1123.06   3
 -11   4   1 8995.30 704.224   5
 -11   4  -1 9047.96 807.007   5
  -4 -11  -1 8645.07 1286.74   3
 -11   4   1 10380.2 922.169   9
 -11   4  -1 9425.64 865.204   9
   4  11   1 11426.7 1750.56   2
   4  11  -1 13128.2 2043.22   2
   4  11  -1 9567.32 540.244  12
   4  11   1 9048.33 569.419  12
   4  11  -1 9777.86 921.898  11
   4  11   1 9145.14 886.888  11
 -11   4   3 2221.39 445.762   9
 -11   4  -3 1281.75 382.413   5
   4  11   3 1757.11 309.153  12
   4  11   3 1881.91 368.516  11
   4  11  -3 1579.16 391.617  11
  11  -4   5 4809.32 473.841  10
 -11   4  -5 5970.30 711.592   5
 -11   4   5 6919.53 579.210   9
   4  11   5 6062.08 513.254  12
   4  11  -5 7165.19 637.017  11
  11  -4   7 3689.45 349.249  10
 -11   4  -7 4202.18 448.132   5
  -4 -11   7 3560.13 339.282   8
   4  11   7 2988.68 280.629  12
 -11   3   0 6626.97 647.452   5
  -3 -11   0 5769.94 990.361   3
 -11   3   0 5114.45 664.841   9
   3  11   0 6244.53 465.008  12
   3  11   0 6055.51 737.309  11
   3  11   0 4338.52 1186.26   2
 -11   3   2 3771.89 459.525   5
 -11   3  -2 3903.90 598.719   5
 -11   3   2 4304.08 605.404   9
   3  11   2 3605.37 377.916   9
  -3 -11   2 2926.02 685.979   3
   3  11   2 3667.97 1041.47   2
   3  11   2 3710.71 407.062  12
   3  11  -2 4026.60 606.247  11
   3  11   2 4123.22 584.396  11
  11  -3   4 3276.12 418.658  10
 -11   3  -4 4134.44 649.044   5
 -11   3   4 6190.42 614.075   9
   3  11   4 5755.80 519.452  12
   3  11  -4 6224.82 662.658  11
   3  11   4 5413.80 513.865  11
  11  -3   6 203.944 145.692  10
  -3 -11   6-3.43855 131.675  10
 -11   3  -6 242.002 219.290   5
  -3 -11   6 46.2830 165.791   8
  -3 -11   6 191.722 191.683   4
   3  11   6 181.199 149.852  12
  11  -3   8 996.798 171.964  10
  -3 -11   8 728.770 126.095   8
   3  11   8 633.143 117.292  12
  -2 -11   1 6510.04 1013.82   3
 -11   2   1 6283.36 618.458   5
 -11   2  -1 7673.30 757.385   5
  -2 -11  -1 7127.45 1164.55   3
 -11   2  -1 6674.08 679.978   9
 -11   2   1 6356.57 732.424   9
   2  11   1 5790.91 461.669  12
   2  11  -1 6275.58 457.503  12
   2  11  -1 5792.70 736.757  11
   2  11   1 6058.89 730.740  11
 -11   2   3 2192.26 445.384   9
 -11   2  -3 1344.22 396.843   5
  -2 -11   3 1847.62 483.605   3
   2  11   3 1697.02 307.929  12
   2  11   3 1945.29 367.681  11
   2  11  -3 1666.47 397.822  11
  11  -2   5 180.341 151.662  10
 -11   2  -5 354.596 251.474   5
  -2 -11   5 292.643 192.015   4
   2  11   5 69.5269 165.861  12
  11  -2   7 2015.77 301.055  10
  -2 -11   7 2075.62 262.016  10
  -2 -11   7 2071.00 260.532   8
   2  11   7 1540.05 213.224  12
  -2 -11   7 1420.37 290.449   4
 -11   1   0 1954.65 414.760   9
 -11   1   0 1324.67 337.675   5
  -1 -11   0 1159.70 523.473   3
   1  11   0 2450.49 310.873  12
   1  11   0 1880.64 470.133  11
 -11   1   2 2253.45 381.749   5
 -11   1  -2 1747.70 413.720   5
 -11   1   2 2304.81 488.379   9
   1  11   2 2042.80 307.203   9
  -1 -11   2 1353.72 478.463   3
  -1 -11  -2 2265.37 726.897   3
   1  11   2 1997.46 311.750  12
   1  11  -2 2051.64 490.832  11
   1  11   2 2355.58 443.734  11
 -11   1   4 544.933 187.649   6
  11  -1   4 341.662 158.339  10
 -11   1  -4 181.255 247.946   5
  -1 -11   4 861.994 480.671   3
   1  11   4 506.609 208.522  12
  11  -1   6 11386.9 747.532  10
  -1 -11   6 11277.5 645.880  10
   1  11   6 10083.0 574.651  12
  11  -1   6 10480.2 637.399  11
 -11   1   6 10455.9 689.596   6
  11  -1   8 10705.5 550.748  10
  -1 -11   8 9215.98 417.632  10
   0 -11   1 8790.44 1185.45   3
 -11   0   1 8253.83 715.750   5
 -11   0  -1 9165.24 848.008   5
   0 -11  -1 8131.93 1305.54   3
   0  11   1 8496.33 608.383   9
   0  11   1 7731.55 534.431  12
   0  11  -1 7968.51 868.668  11
   0  11   1 7915.92 824.013  11
  11   0   3 60755.2 1714.93  10
   0 -11   3 57046.7 2827.03   3
   0 -11  -3 50822.2 3697.47   3
  11   0  -3 53447.9 3830.70   1
   0  11   3 58684.8 1519.92  12
   0  11  -3 56915.7 2126.32  11
   0  11   3 57752.0 1798.24  11
   0  11   5 45959.5 1265.35  12
  11   0   5 51578.8 1586.57  11
 -11   0   5 50233.0 1662.97   6
  11   0   7 23142.4 963.250  10
   0 -11   7 22609.5 814.665  10
 -11   0   7 21636.1 894.014   6
  11   0   9 6762.94 349.751  10
 -11  -1   0 427.549 255.022   5
   1 -11   0 1086.72 528.557   3
  -1  11   0 409.517 204.712   9
  -1  11   0 521.229 175.010  12
  -1  11   0 697.014 311.876  11
  11   1   0 186.488 307.758   1
  11   1   0 1049.44 329.634  11
   1 -11   2 8893.65 1138.82   3
 -11  -1  -2 10574.9 981.578   5
   1 -11  -2 11705.5 1685.15   3
  -1  11   2 11809.9 736.528   9
  -1  11  -2 10950.0 850.385   9
  -1  11   2 10470.3 622.850  12
  11   1  -2 9745.98 1476.59   1
  -1  11  -2 10062.0 955.218  11
  -1  11   2 11530.4 895.864  11
  11   1  -2 11347.4 818.679  11
 -11  -1   4 17161.1 989.006   6
  11   1   4 13412.2 874.427  10
 -11  -1  -4 15270.7 1205.90   5
  -1  11  -4 17073.8 1125.05   9
  11   1  -4 18718.3 2538.44   1
  -1  11   4 14174.0 722.284  12
  11   1   4 17715.2 1055.79  11
   1 -11   4 15108.5 1526.67   3
  11   1   6 14691.6 876.689  10
   1 -11   6 13974.6 723.572  10
  -1  11  -6 18318.0 949.776   9
  -1  11   6 12568.7 559.798  12
 -11  -1   6 8484.57 1061.24   7
  11   1   6 13959.7 734.386  11
 -11  -1   6 13017.1 888.702   6
   1 -11   8 6379.15 375.842  10
 -11  -1   8 6010.67 408.628   6
   2 -11  -1 5262.45 1054.90   3
 -11  -2  -1 4370.78 623.285   5
  11   2   1 3798.64 816.134   1
  -2  11   1 4400.77 473.481   9
  -2  11  -1 4166.87 516.449   9
   2 -11   1 3432.05 746.730   3
  11   2  -1 3065.35 847.662   1
  -2  11   1 4130.80 391.693  12
  11   2  -1 4107.60 545.038  11
  11   2   1 3373.98 583.459  11
  11   2   3 10988.7 758.529  10
 -11  -2  -3 7029.38 825.037   5
  -2  11   3 10353.8 667.036   9
  -2  11  -3 8973.64 805.697   9
  11   2  -3 8635.87 1595.61   1
  -2  11   3 9227.85 584.302  12
  11   2   3 12647.9 980.671  11
   2 -11   3 10191.7 1243.26   3
  11   2   5 2925.07 432.978  10
   2 -11   5 3312.89 405.265  10
  -2  11  -5 4448.52 554.556   9
  -2  11   5 2993.84 297.969  12
  11   2   5 3657.18 453.501  11
 -11  -2   5 3413.47 522.350   6
  11   2   7 3397.05 401.915  10
   2 -11   7 3564.56 342.072  10
 -11  -2   7 4033.31 670.707   7
 -11  -2   7 3028.47 409.307   6
   3 -11   0 7026.57 1144.58   3
  11   3   0 4130.88 925.076   1
  -3  11   0 5230.72 563.498   9
  11   3   0 4962.85 654.578  11
 -11  -3  -2 4016.10 631.671   5
  -3  11   2 5055.44 506.674   9
   3 -11   2 3353.44 799.255   3
  -3  11  -2 4892.35 606.236   9
  11   3  -2 4168.35 1100.55   1
  11   3   2 4721.98 920.062   1
  -3  11   2 4521.02 406.351  12
  11   3  -2 4525.16 546.869  11
  11   3   2 4853.89 679.343  11
 -11  -3   4 6512.13 636.814   6
 -11  -3  -4 8000.16 811.167   5
   3 -11   4 6116.71 532.533  10
  -3  11   4 6658.57 537.116   9
  -3  11  -4 7087.79 710.408   9
  -3  11   4 4848.80 395.685  12
  11   3   4 6979.92 684.096  11
  11   3   4 5407.90 573.028  10
 -11  -3   6 1083.54 328.073   6
   3 -11   6 1340.70 263.910  10
  11   3   6 1323.51 301.418  10
  11   3   6 1093.29 236.272  11
   3 -11   8 3284.49 264.915  10
 -11  -3   8 3116.24 318.323   6
   4 -11   1 1241.55 622.655   3
  -4  11   1 191.088 182.421   9
  -4  11  -1 239.532 230.985   9
  11   4   1 459.101 485.790   1
  11   4  -1 338.938 352.766   1
  11   4  -1 27.9685 187.570  11
  11   4   1 93.8449 234.277  11
   4 -11   3 27953.6 1159.22  10
  -4  11   3 23483.3 1023.50   9
  -4  11  -3 24377.1 1323.11   9
  11   4  -3 23876.0 2667.22   1
  11   4  -3 26724.0 1159.03  11
  11   4   3 29344.1 1453.95  11
   4 -11   3 24600.9 2215.27   3
   4 -11   5 25673.7 1000.13  10
  11   4   5 24698.1 1061.29  11
 -11  -4   5 25668.9 1254.88   6
   4 -11   7 6521.12 418.125  10
 -11  -4   7 6579.29 561.285   6
  11   5   0 2243.08 710.800   1
  -5  11   0 2664.49 455.043   9
  11   5   0 1982.58 458.710  11
   5 -11   2 534.897 254.650  10
  -5  11   2 424.682 207.202   9
  -5  11  -2 263.683 275.158   9
  11   5  -2 1301.43 637.298   1
  11   5   2 669.228 423.123   1
  11   5  -2 739.047 273.972  11
  11   5   2 609.383 352.317  11
 -11  -5   4 3407.83 483.857   6
   5 -11   4 3163.11 404.781  10
  -5  11   4 3177.15 384.736   9
  -5  11  -4 3401.64 515.850   9
  11   5   4 2825.65 440.437  11
   5 -11   6 5824.18 440.218  10
 -11  -5   6 4554.63 532.850   6
   5 -11   8 3751.88 255.441  10
 -11  -5   8 3600.22 292.461   6
  -6  11   1 212.043 222.515   9
  -6  11  -1 360.270 257.851   9
  11   6  -1 379.505 289.416  11
  11   6   1 515.442 338.793  11
   6 -11   3 150.405 156.889  10
  -6  11   3 133.935 169.921   9
  -6  11  -3 381.497 202.211   9
  11   6  -3-101.659 166.819  11
  11   6   3 23.9569 268.458  11
 -11  -6   5 64.4975 204.072   6
   6 -11   5 438.351 180.402  10
  -6  11   5 112.468 114.805   9
  11   6   5 314.342 161.473  11
   6 -11   7 6357.11 373.732  10
 -11  -6   7 6214.08 452.042   6
  -7  11   0 80.7291 186.276   9
  11   7   0 538.174 349.891  11
  -7  11   2 1521.56 320.677   9
  -7  11  -2 1119.58 327.305   9
  11   7  -2 1302.09 330.777  11
  11   7   2 1292.10 399.851  11
   7 -11   4 3093.68 368.550  10
  -7  11   4 2562.80 341.192   9
  -7  11  -4 3218.31 404.458   9
  11   7   4 2343.50 377.449  11
 -11  -7   4 2229.72 379.630   6
   7 -11   6 8501.33 471.012  10
 -11  -7   6 6846.02 536.786   6
  -8  11  -1 1099.68 225.042   5
  -8  11   1 285.118 222.894   9
  -8  11  -1 341.460 231.571   9
  11   8  -1 389.928 275.563  11
  11   8   1 394.390 286.828  11
 -11  -8   3 121.918 181.740   6
  -8  11   3 84.3543 154.258   9
  -8  11  -3-82.4148 172.423   9
  11   8  -3 462.140 201.014  11
  11   8   3 57.8351 204.033  11
 -11  -8   5 524.983 203.021   6
   8 -11   5 976.018 181.079  10
  -8  11   5 594.592 154.251   9
  11   8   5 486.368 118.358  12
  -9  11   0 23894.5 1183.88   9
  11   9   0 20743.6 1208.27  11
 -11  -9   2 8009.80 618.834   6
  -9  11  -2 7568.99 598.697   5
  -9  11   2 7858.34 622.775   9
  -9  11  -2 7757.60 667.871   9
  11   9  -2 7708.05 647.607  11
  11   9   2 8657.47 764.045  11
  -9  11  -4 1571.34 326.229   5
  -9  11   4 1199.19 213.009   9
  11   9   4 1149.87 246.454  11
 -11  -9   4 1428.26 269.547   6
  -9  11  -6-5.88279 117.786   5
 -11  -9   6 37.2089 74.4714   8
 -11  -9   6 242.547 273.869   7
 -11 -10   1 2125.23 333.380   6
 -10  11   1 2655.82 380.382   9
 -10  11  -1 1979.95 354.491   9
  11  10  -1 1947.71 378.461  11
  11  10   1 2165.79 412.186  11
 -11 -10   3 145.442 211.277   6
 -10  11  -3 350.745 170.309   5
 -10  11   3 453.902 169.514   9
  11  10  -3 671.892 146.894  11
  11  10   3 523.441 193.830  11
 -10  11  -5-51.0196 130.004   5
 -11  11   0 6058.06 523.582   9
  11  11   0 6703.62 608.765  11
 -11  11   2 2175.50 298.441   9
 -11  11  -2 1764.86 254.983   9
  11  11  -2 1904.84 286.843  11
  11  11   2 2856.44 370.430  11
 -12  11   1 5867.32 409.970   9
  11  12  -1 5745.34 479.788  11
  11  12   1 5849.74 500.530  11
 -12  10   0 2025.10 303.458   9
  10  12   0 1762.80 342.989  11
 -12  10   2 311.976 162.399   9
  10  12   2 165.901 139.810  11
 -12   9  -1 4325.52 419.363   5
 -12   9   1 3933.04 451.272   9
 -12   9  -1 3375.72 407.381   9
   9  12  -1 3812.49 507.192  11
   9  12   1 4388.65 529.287  11
 -12   9  -3 569.967 182.468   5
 -12   9   3 448.683 172.543   9
   9  12   3 497.520 101.601  12
   9  12  -3 403.106 148.215  11
   9  12   3 455.183 153.675  11
 -12   9  -5 23.8298 103.818   5
 -12   8   0 820.270 202.887   5
 -12   8   0 570.691 244.101   9
   8  12   0 1113.78 354.479  11
 -12   8  -2 133.458 161.211   5
 -12   8   2 425.361 214.908   9
   8  12   2 175.233 103.025  12
   8  12  -2 195.011 212.159  11
   8  12   2 315.583 214.481  11
 -12   8  -4 17.1082 160.551   5
 -12   8   4-32.4965 154.538   9
   8  12   4 36.7280 68.9385  12
   8  12   4-300.902 92.4105  11
 -12   7   1 3160.97 360.271   5
 -12   7  -1 3422.40 456.000   5
 -12   7   1 3753.60 528.712   9
 -12   7  -1 2621.86 419.787   9
   7  12   1 3248.29 314.467  12
   7  12  -1 3534.57 542.368  11
   7  12   1 3215.05 526.577  11
 -12   7  -3 898.039 290.118   5
 -12   7   3 798.834 253.819   9
   7  12   3 839.196 193.261  12
   7  12  -3 1217.17 321.382  11
   7  12   3 1130.93 276.164  11
 -12   7  -5-36.6809 145.631   5
   7  12   5 12.8375 95.2754  12
 -12   6   0 18177.5 975.619   5
   6  12   0 17409.5 689.917  12
   6  12   0 16146.9 1166.19  11
 -12   6   2 2673.61 345.615   5
 -12   6  -2 2003.70 406.658   5
 -12   6   2 2322.01 431.071   9
   6  12   2 2158.67 293.824  12
   6  12  -2 2360.04 450.192  11
   6  12   2 2600.07 467.443  11
 -12   6  -4 169.557 209.230   5
 -12   6   4 433.671 232.447   9
   6  12   4 222.689 152.740  12
   6  12  -4 187.935 158.016  11
   6  12   4 248.201 160.215  11
 -12   6  -6 1007.43 243.371   5
  -6 -12   6 588.130 152.448   8
   6  12   6 945.047 164.651  12
 -12   5   1 17661.1 943.302   5
 -12   5  -1 17375.0 1069.80   5
 -12   5  -1 15952.6 1033.78   9
 -12   5   1 18042.9 1165.48   9
   5  12   1 17056.3 754.085  12
   5  12  -1 16336.2 1180.05  11
   5  12   1 16834.0 1185.20  11
 -12   5  -3 11251.1 947.468   5
 -12   5   3 13498.9 872.212   9
   5  12   3 11326.9 665.510  12
   5  12  -3 12572.9 939.907  11
   5  12   3 12789.5 851.901  11
 -12   5  -5 4262.03 543.883   5
   5  12   5 3293.93 346.522  12
 -12   5  -7 123.745 98.0397   5
   5  12   7 121.050 73.2125  12
 -12   4   0 30317.4 1353.98   5
   4  12   0 27200.4 925.104  12
   4  12   0 28153.2 1599.63  11
 -12   4   2 9756.67 695.525   5
 -12   4  -2 9698.49 886.403   5
 -12   4   2 10530.9 857.917   9
   4  12   2 9385.29 598.368  12
   4  12  -2 10259.6 928.381  11
   4  12   2 10451.0 889.726  11
 -12   4  -4 1943.50 443.231   5
 -12   4   4 3021.18 440.474   9
   4  12   4 2175.08 327.708  12
   4  12  -4 2486.55 418.016  11
   4  12   4 2449.03 347.097  11
  12  -4   6 272.996 102.525  10
  -4 -12   6 235.615 123.957  10
 -12   4  -6 319.206 197.515   5
  -4 -12   6 196.449 135.004   8
   4  12   6 73.1444 110.520  12
  12  -4   6 152.872 106.546  11
 -12   3   1 25434.8 1198.16   5
 -12   3  -1 26420.7 1385.94   5
 -12   3  -1 25765.5 1260.25   9
 -12   3   1 23332.3 1324.11   9
   3  12   1 26376.4 1048.82   9
   3  12  -1 24043.1 865.636  12
   3  12   1 24228.0 926.473  12
   3  12  -1 24193.5 1481.13  11
   3  12   1 25295.4 1467.74  11
   3  12   3 32666.3 1134.66  12
   3  12  -3 34203.9 1616.72  11
   3  12   3 35392.9 1426.81  11
  12  -3   5 6779.72 534.261  10
   3  12   5 9734.25 590.013  12
  12  -3   7 87.1689 78.7337  10
   3  12  -7 231.386 128.346   9
   3  12   7 9.78993 78.5600  12
  -2 -12   0 26985.5 2224.80   3
 -12   2   0 27022.6 1343.20   5
 -12   2   0 21843.5 1243.37   9
   2  12   0 26633.4 942.066  12
   2  12   0 24891.3 1538.38  11
 -12   2   2 3994.86 493.311   5
 -12   2  -2 4117.23 629.396   5
 -12   2   2 4580.59 632.832   9
   2  12   2 4562.14 443.940   9
   2  12   2 3912.79 412.628  12
   2  12  -2 3953.31 623.232  11
   2  12   2 4857.78 620.706  11
 -12   2  -4 76.5117 224.359   5
   2  12   4 1.08733 147.889  12
  12  -2   6 528.598 159.337  10
  -2 -12   6 280.212 154.193  10
 -12   2  -6 703.147 221.156   5
   2  12   6 231.470 133.322  12
  12  -2   6 452.914 156.486  11
 -12   1   1 1167.91 314.648   5
 -12   1  -1 1281.09 362.041   5
   1  12   1 1190.31 269.553   9
  -1 -12   1 1261.86 485.267   3
  -1 -12  -1 1072.62 492.096   3
   1  12   1 1117.54 250.268  12
   1  12  -1 867.386 365.310  11
   1  12   1 1098.89 406.398  11
 -12   1  -3 9284.65 958.606   5
   1  12   3 11284.9 674.467  12
   1  12  -3 12410.2 1013.52  11
   1  12   3 11812.2 826.510  11
 -12   1   3 11585.6 731.670   6
  12  -1   5 9441.29 663.971  10
 -12   1  -5 19091.5 1203.80   5
  -1 -12   5 15902.8 751.272  10
   1  12   5 13499.5 664.981  12
  12  -1   5 15802.3 865.498  11
 -12   1   5 13031.2 768.904   6
  12  -1   7 6786.28 466.859  10
  -1 -12   7 6004.89 374.330  10
   1  12  -7 6172.65 445.369   9
   0 -12   0 17431.8 1877.80   3
 -12   0   0 15787.2 1082.87   5
   0  12   0 15591.6 898.844   9
   0  12   0 15173.5 731.279  12
   0  12   0 13455.3 1163.30  11
   0 -12   2 9027.15 1231.24   3
 -12   0  -2 10513.6 992.811   5
   0 -12  -2 12738.2 1743.34   3
   0  12   2 11570.9 726.472   9
   0  12  -2 11439.4 896.926   9
   0  12   2 10407.9 639.220  12
   0  12  -2 10707.7 1015.55  11
   0  12   2 10393.1 863.588  11
  12   0  -2 11855.1 866.500  11
  12   0   4 1756.28 298.634  10
 -12   0  -4 1282.14 388.193   5
   0  12  -4 1999.74 435.272   9
   0  12   4 1359.23 264.976  12
  12   0   4 1909.49 409.965  11
 -12   0   4 1619.70 328.991   6
  12   0   6 10867.4 690.541  10
   0 -12   6 11840.3 615.259  10
   0  12   6 10386.2 492.231  12
  12   0   6 10907.6 619.208  11
 -12   0   6 9836.15 640.054   6
   0 -12   8 13283.2 429.967  10
  12   0   8 15042.5 555.830  10
   1 -12   1 9182.95 1288.16   3
   1 -12  -1 10363.0 1620.29   3
 -12  -1  -1 9539.42 922.366   5
  -1  12   1 8933.42 670.245   9
  -1  12  -1 9689.85 778.407   9
  -1  12   1 9020.02 582.170  12
  -1  12   1 9431.17 914.225  11
  12   1  -1 12620.0 987.169  11
  12   1   1 9190.39 980.896  11
  -1  12   3 11009.2 674.189   9
  -1  12  -3 10769.1 905.262   9
  -1  12   3 9869.85 620.076  12
  12   1   3 12845.4 1013.66  11
 -12  -1  -5 3744.67 521.037   5
   1 -12   5 2077.41 325.948  10
  12   1   5 1384.06 271.936  10
  -1  12  -5 3192.72 461.290   9
  -1  12   5 1795.86 245.782  12
  12   1   5 2378.85 375.065  11
 -12  -1   5 1956.97 370.287   6
   1 -12   7 1846.22 227.825  10
 -12  -1   7 1636.54 248.504   6
  12   1   7 1836.12 276.028  10
   2 -12   0 61058.3 3652.60   3
  -2  12   0 54979.9 1726.03   9
  12   2   0 55021.3 2189.33  11
 -12  -2  -2 16291.2 1239.05   5
  -2  12   2 20101.6 979.294   9
  -2  12  -2 19159.3 1151.69   9
  -2  12   2 18235.7 817.968  12
  12   2  -2 13684.3 1881.23   1
  12   2  -2 19736.4 1105.34  11
  12   2   2 21855.7 1404.05  11
 -12  -2  -4 5289.37 684.253   5
   2 -12   4 3811.81 422.790  10
  -2  12  -4 4418.06 572.296   9
  -2  12   4 3396.99 348.029  12
  12   2   4 4101.93 538.336  11
  12   2   4 2855.14 399.402  10
 -12  -2   4 4029.23 496.910   6
 -12  -2   6 192.228 197.043   6
  12   2   6 409.821 213.665  10
   2 -12   6 546.366 190.692  10
  -2  12  -6 1001.01 250.061   9
 -12  -2   6 249.138 402.644   7
  12   2   6 235.227 88.3559  11
   2 -12   8 624.050 115.283  10
  12   3  -1 26814.1 2448.93   1
  12   3   1 23632.1 2142.24   1
  -3  12   1 32557.0 1347.88   9
  -3  12  -1 33011.3 1454.63   9
  12   3  -1 32776.1 1554.74  11
  12   3   1 30322.4 1665.27  11
   3 -12   3 2278.10 367.116  10
  -3  12   3 2015.72 314.604   9
  -3  12  -3 2211.78 450.201   9
  12   3  -3 1899.25 320.953  11
  12   3   3 2181.08 483.913  11
 -12  -3   5 52.8452 206.245   6
   3 -12   5 97.2434 173.924  10
  -3  12  -5 354.487 229.292   9
  12   3   5 40.7335 185.033  11
  12   3   5 80.1342 137.788  10
 -12  -3   7 36.1378 108.879   6
   3 -12   7 100.047 102.259  10
  -4  12   0 1637.30 388.942   9
  12   4   0 1549.74 423.517  11
   4 -12   2 642.003 249.631  10
  -4  12   2 514.773 220.627   9
  -4  12  -2 556.302 299.199   9
  12   4  -2 756.024 272.943  11
  12   4   2 495.223 368.832  11
 -12  -4   4 773.148 271.759   6
   4 -12   4 847.415 258.449  10
  -4  12   4 628.486 191.171   9
  -4  12  -4 823.796 339.225   9
  12   4   4 683.106 284.539  11
   4 -12   6 1381.92 228.544  10
 -12  -4   6 1133.96 285.379   6
  -5  12   1 1194.69 294.497   9
  -5  12  -1 1580.94 405.784   9
  12   5   1 1607.65 471.228  11
  12   5  -1 1018.54 318.475  11
   5 -12   3 436.422 230.102  10
  -5  12   3 243.982 181.321   9
  -5  12  -3 244.082 241.154   9
  12   5  -3 432.546 191.493  11
  12   5   3 166.075 250.928  11
 -12  -5   5 577.046 237.897   6
   5 -12   5 660.493 193.732  10
  -5  12  -5 810.276 225.922   9
  12   5   5 307.167 179.137  11
   5 -12   7 4824.76 303.011  10
 -12  -5   7 4453.26 523.406   7
 -12  -5   7 4895.95 366.918   6
  -6  12   0 134.254 214.676   9
  12   6   0-456.135 295.000  11
  -6  12   2 777.792 242.609   9
  -6  12  -2 430.188 258.706   9
  12   6  -2 838.940 289.705  11
  12   6   2 620.863 322.575  11
 -12  -6   4 952.964 278.999   6
   6 -12   4 841.539 200.273  10
  -6  12   4 595.783 185.891   9
  -6  12  -4 760.399 218.610   9
  12   6   4 684.706 258.007  11
   6 -12   6 4926.05 347.369  10
 -12  -6   6 4085.98 404.733   6
  -7  12   1 2851.73 417.319   9
  -7  12  -1 2544.64 436.329   9
  12   7  -1 2524.85 455.105  11
  12   7   1 2541.70 505.340  11
 -12  -7   3 437.159 231.064   6
  -7  12   3 425.809 183.509   9
  -7  12  -3 482.789 230.816   9
  12   7  -3 812.085 211.662  11
  12   7   3 308.599 263.131  11
 -12  -7   5 697.511 203.304   6
   7 -12   5 1536.24 217.234  10
  -8  12   0 528.932 245.908   9
  12   8   0 561.756 260.782  11
  -8  12   2 175.937 151.512   9
  -8  12  -2 223.842 214.696   9
  12   8  -2 381.561 190.361  11
  12   8   2 94.0319 202.970  11
 -12  -8   4 578.525 198.291   6
  -8  12  -4 526.879 203.293   5
  -8  12   4 353.569 134.316   9
  12   8   4 533.177 167.086  11
  -9  12   1 167.693 163.793   9
  -9  12  -1 428.597 212.470   9
  12   9  -1 112.476 220.262  11
  12   9   1-193.072 212.703  11
 -12  -9   3 556.937 175.658   6
  -9  12  -3-83.0126 98.2147   5
  -9  12   3 517.482 164.653   9
  -9  12  -3 141.812 140.257   9
  12   9   3 264.289 174.450  11
 -10  12   0 3600.22 408.690   9
  12  10   0 3484.18 438.135  11
 -12 -10   2 477.450 156.200   6
 -10  12   2 767.348 194.612   9
 -10  12  -2 1036.16 208.869   9
  12  10  -2 1115.56 205.767  11
  12  10   2 523.052 195.835  11
 -11  12   1 8703.53 505.760   9
  12  11  -1 7663.98 538.946  11
  12  11   1 8138.49 576.166  11
  10  13  -1 1781.98 275.755  11
  10  13   1 1573.88 269.263  11
 -13   9   0 171.278 123.203   9
   9  13   0-23.7496 153.578  11
 -13   9  -2 198.970 124.522   5
 -13   9   2 144.392 137.546   9
   9  13  -2 125.751 99.1526  11
   9  13   2 161.713 126.893  11
 -13   8  -1 3111.51 355.067   5
 -13   8  -1 2098.85 298.341   9
 -13   8   1 2807.67 371.667   9
   8  13  -1 2863.26 429.624  11
   8  13   1 3192.72 460.059  11
 -13   8  -3 256.679 149.635   5
 -13   8   3 93.9264 153.769   9
   8  13   3 394.583 99.8372  12
   8  13  -3 494.189 167.553  11
   8  13   3 37.7333 102.729  11
 -13   7   0 511.710 191.672   5
 -13   7   0 209.033 168.660   9
   7  13   0 508.573 267.743  11
 -13   7  -2 78.6377 157.028   5
 -13   7   2-31.1276 203.158   9
   7  13   2 171.142 98.7197  12
   7  13  -2 210.294 194.880  11
   7  13   2 46.2887 150.732  11
 -13   7  -4 427.728 144.295   5
   7  13   4 81.5777 84.7912  12
 -13   6   1 3851.97 406.667   5
 -13   6  -1 3615.47 474.553   5
 -13   6  -1 3072.29 399.036   9
 -13   6   1 3218.84 460.348   9
   6  13   1 3046.19 300.718  12
   6  13  -1 3356.45 535.249  11
   6  13   1 3863.92 555.829  11
 -13   6  -3 179.673 189.050   5
 -13   6   3 246.068 229.138   9
   6  13   3 143.216 115.077  12
   6  13  -3-194.971 161.140  11
   6  13   3 156.067 192.869  11
 -13   6  -5 44.6743 143.785   5
   6  13   5 196.049 102.901  12
 -13   5   0 8422.19 675.727   5
   5  13   0 8472.02 595.126   9
   5  13   0 7934.76 477.388  12
   5  13   0 7783.17 839.181  11
 -13   5  -2 9344.28 803.983   5
 -13   5   2 9566.99 746.529   9
   5  13   2 8142.19 514.808  12
   5  13  -2 8767.17 818.107  11
   5  13   2 9803.63 807.016  11
 -13   5  -4 9225.67 764.247   5
   5  13   4 6137.25 436.584  12
 -13   5  -6 200.636 135.120   5
   5  13  -6 191.797 115.955   9
   5  13   6 52.6811 69.1860  12
 -13   4   1 13714.0 840.591   5
 -13   4  -1 14316.7 987.991   5
 -13   4  -1 13694.0 826.805   9
 -13   4   1 10319.2 846.790   9
   4  13   1 14738.4 741.724   9
   4  13   1 13212.6 656.279  12
   4  13  -1 14136.4 1136.52  11
   4  13   1 14615.5 1091.47  11
 -13   4  -3 4596.33 602.571   5
 -13   4   3 6688.77 635.708   9
   4  13   3 4747.09 418.316  12
   4  13  -3 5399.89 627.873  11
   4  13   3 5388.15 536.677  11
  -4 -13   5 1034.91 185.841  10
   4  13   5 1167.70 196.857  12
 -13   3   0 29198.0 1349.01   5
 -13   3   0 22189.9 1156.55   9
   3  13   0 30490.0 1183.64   9
   3  13   0 26625.8 917.526  12
   3  13   0 25261.3 1522.12  11
 -13   3   2 1828.44 450.948   9
 -13   3  -2 1567.21 397.713   5
   3  13   2 1899.98 300.234  12
   3  13  -2 1998.33 457.935  11
   3  13   2 2274.44 461.044  11
  13  -3  -2 2873.98 435.490  11
 -13   3  -4 1634.32 393.692   5
   3  13   4 1669.43 266.241  12
  -3 -13   6 1011.76 155.828  10
   3  13  -6 1193.50 235.466   9
   3  13   6 967.748 156.584  12
 -13   2   1 23117.3 1169.80   5
 -13   2  -1 24040.9 1343.08   5
   2  13   1 23455.8 984.144   9
   2  13  -1 25196.1 1192.34   9
   2  13   1 21842.9 869.264  12
   2  13  -1 21453.1 1439.20  11
   2  13   1 23838.6 1432.38  11
   2  13   3 21668.2 886.017  12
   2  13  -3 24120.0 1342.28  11
   2  13   3 23586.6 1115.30  11
 -13   2  -5 12474.8 886.636   5
  -2 -13   5 9302.28 519.336  10
   2  13  -5 12253.3 822.327   9
   2  13   5 9028.06 502.507  12
  13  -2   5 11184.5 671.461  11
 -13   1   0 17235.0 1114.42   5
   1  13   0 16049.5 900.108   9
   1  13   0 14921.0 1212.62  11
  13  -1   0 16512.5 1283.81  11
 -13   1  -2 9706.85 922.261   5
   1  13   2 11234.1 694.537   9
   1  13  -2 10841.8 868.165   9
   1  13   2 9512.93 607.853  12
   1  13  -2 10096.1 976.434  11
   1  13   2 10954.4 879.428  11
  13  -1  -2 11890.2 858.945  11
 -13   1  -4 7274.19 787.098   5
   1  13  -4 8616.31 770.798   9
   1  13   4 6582.26 478.606  12
  13  -1   4 9080.89 735.708  11
  -1 -13   6 75.5880 107.160  10
 -13   1  -6-55.9466 125.723   5
   1  13  -6-33.6252 120.095   9
   1  13   6 18.0356 71.7284  12
  13  -1   6-195.487 100.106  11
 -13   0  -1 3977.23 595.482   5
   0  13   1 4053.40 457.061   9
   0  13  -1 4079.23 517.680   9
   0  13   1 3592.02 389.220  12
   0  13   1 3800.20 600.554  11
  13   0  -1 5304.23 675.155  11
  13   0   1 4008.70 695.655  11
 -13   0   3 420.452 173.661   6
 -13   0  -3 248.073 213.576   5
   0  13  -3 433.928 279.611   9
   0  13   3 531.414 198.735  12
  13   0   3 523.182 333.124  11
 -13   0   5 292.930 149.890   6
   0 -13   5 193.907 153.493  10
 -13   0  -5 516.784 234.273   5
   0  13  -5 578.505 243.415   9
   0  13   5 377.982 127.529  12
  13   0   5 267.537 179.664  11
   0 -13   7 2276.32 204.979  10
  -1  13   0 40601.4 1461.19   9
  13   1   0 41259.9 1925.14  11
 -13  -1  -2 8347.83 882.269   5
  -1  13   2 10087.3 677.411   9
  -1  13  -2 10416.0 853.407   9
  -1  13   2 8972.46 583.184  12
  13   1  -2 11186.7 837.594  11
  13   1   2 11478.0 1058.02  11
 -13  -1   4 483.455 192.271   6
   1 -13   4 516.447 211.432  10
 -13  -1  -4 701.395 285.905   5
  -1  13  -4 653.494 289.769   9
  -1  13   4 373.902 149.024  12
  13   1   4 513.897 260.933  11
 -13  -1   6-276.464 145.346   6
   1 -13   6 194.090 127.068  10
  -1  13  -6-61.8113 168.631   9
  13   1   6-267.688 87.1848  11
  -2  13   1 61419.4 1782.29   9
  -2  13  -1 62736.7 1952.81   9
  13   2  -1 61217.7 2105.68  11
  13   2   1 56650.3 2302.15  11
 -13  -2   3 23468.6 1051.88   6
  -2  13   3 23842.5 925.658   9
  -2  13  -3 24989.4 1317.96   9
   2 -13   5 10464.6 597.395  10
  13   2   5 9398.37 620.600  11
   2 -13   7 1613.95 177.734  10
  -3  13   0 3613.31 502.888   9
  13   3   0 3044.43 576.734  11
   3 -13   2 2828.59 437.929  10
  -3  13   2 1966.06 315.543   9
  -3  13  -2 2166.68 464.046   9
  13   3  -2 2140.55 376.896  11
  13   3   2 1566.32 464.616  11
   3 -13   4 2955.21 382.305  10
  -3  13  -4 4050.57 528.223   9
  13   3   4 3025.93 444.343  11
 -13  -3   4 2682.41 391.198   6
 -13  -3   6 196.123 133.748   6
   3 -13   6 446.652 144.619  10
   4 -13   1 12952.7 957.975  10
  -4  13   1 9837.85 709.240   9
  -4  13  -1 11216.1 862.478   9
  13   4  -1 10421.1 865.058  11
  13   4   1 10272.5 963.738  11
 -13  -4   3 4497.20 484.805   6
   4 -13   3 6636.26 596.122  10
  -4  13   3 4952.09 449.326   9
  -4  13  -3 5835.12 664.477   9
  13   4   3 5916.55 659.047  11
 -13  -4   5 457.568 198.799   6
   4 -13   5 922.646 210.658  10
  -4  13  -5 565.250 203.864   9
  13   4   5 826.996 213.610  11
  -5  13   0 32944.3 1326.80   9
  13   5   0 30823.5 1526.32  11
  -5  13   2 11244.4 696.027   9
  -5  13  -2 11392.1 847.085   9
  13   5  -2 11504.2 804.789  11
  13   5   2 12956.7 1003.94  11
   5 -13   4 3927.56 396.895  10
  -5  13  -4 3495.30 431.856   9
  13   5   4 3062.36 404.280  11
 -13  -5   4 2287.00 349.956   6
 -13  -5   6 214.179 117.956   6
   5 -13   6 233.342 94.1573  10
 -13  -5   6 74.9860 302.442   7
  -6  13   1 4466.91 488.492   9
  -6  13  -1 4296.37 520.328   9
  13   6  -1 4488.40 561.952  11
  13   6   1 4350.99 599.629  11
 -13  -6   3 498.910 223.985   6
  -6  13   3 424.207 163.270   9
  -6  13  -3 370.779 214.874   9
  13   6   3 313.764 229.738  11
 -13  -6   5 41.6212 140.231   6
   6 -13   5-210.169 111.425  10
  13   6   5-30.0780 68.8982  11
  -7  13   0 445.984 215.960   9
  13   7   0 248.143 210.537  11
  -7  13   2 133.510 151.009   9
  -7  13  -2 68.1416 158.482   9
  13   7  -2 74.6507 194.684  11
  13   7   2-67.5492 216.894  11
 -13  -7   4 489.226 182.642   6
  -7  13  -4 446.543 153.559   5
  -7  13   4 91.6541 79.4489   9
  13   7   4 208.250 140.821  11
  -8  13   1 15367.0 800.191   9
  -8  13  -1 13937.7 816.126   9
  13   8  -1 13807.9 839.525  11
  13   8   1 13048.0 883.951  11
  -8  13   3 2967.60 296.925   9
  -8  13  -3 3117.55 330.101   9
  13   8   3 3126.92 380.080  11
 -13  -8   3 2876.79 349.107   6
  -9  13   0 478.305 183.050   9
  13   9   0 356.047 171.795  11
 -13  -9   2 481.294 152.580   6
  -9  13   2 459.787 141.349   9
  -9  13  -2 378.492 112.910   9
  13   9  -2 462.531 158.907  11
  13   9   2 369.540 183.979  11
 -10  13   1 577.680 146.450   9
  13  10   1 339.243 161.576  11
   8  14   0 3009.91 396.765  11
   8  14  -2 789.081 177.146  11
   8  14   2 679.363 167.045  11
 -14   7  -1 1387.35 238.511   5
 -14   7   1 663.812 214.264   9
   7  14  -1 438.854 114.164   9
   7  14  -1 1420.41 320.837  11
   7  14   1 1622.20 311.760  11
 -14   7  -3 216.688 132.901   5
   7  14  -3 618.485 158.617   9
   7  14   3 552.737 97.1905  12
 -14   6   0 649.993 178.760   5
   6  14   0 589.269 260.142  11
 -14   6  -2 85.8192 137.733   5
   6  14  -2 108.907 150.098   9
   6  14   2 132.008 103.128  12
   6  14  -2 401.127 199.706  11
   6  14   2 324.268 177.496  11
 -14   6  -4 96.9990 113.634   5
   6  14  -4-153.856 136.412   9
   6  14   4 57.6423 63.3221  12
 -14   5  -1 3297.58 430.581   5
   5  14  -1 3744.42 403.748   9
   5  14  -1 2839.39 487.830  11
   5  14   1 3071.17 479.945  11
  14  -5  -1 3812.80 500.196  11
 -14   5  -3 1315.94 298.125   5
   5  14  -3 1702.26 309.906   9
   5  14   3 891.865 172.291  12
   5  14   3 967.020 220.055  11
 -14   5  -5 2756.50 318.494   5
   5  14  -5 2812.00 314.778   9
   5  14   5 1889.10 187.362  12
 -14   4   0 6032.43 566.176   5
   4  14   0 6101.73 484.699   9
   4  14   0 5282.34 655.236  11
 -14   4  -2 3340.64 471.812   5
   4  14  -2 3775.29 462.628   9
   4  14   2 2708.57 299.506  12
   4  14  -2 3143.56 490.623  11
   4  14   2 3637.41 476.636  11
 -14   4  -4 1989.07 356.321   5
   4  14  -4 1786.74 319.160   9
   4  14   4 1419.49 201.125  12
  14  -4   4 2137.69 333.873  11
 -14   3  -1 4939.50 574.364   5
   3  14   1 4821.42 423.975   9
   3  14  -1 4647.61 483.801   9
   3  14   1 4079.51 369.334  12
   3  14  -1 4039.08 614.021  11
   3  14   1 4791.36 650.179  11
  14  -3  -1 4993.21 615.461  11
 -14   3  -3 1490.00 357.753   5
   3  14  -3 2235.48 390.325   9
   3  14   3 1747.91 251.352  12
  -3 -14   5 592.385 141.029  10
 -14   3  -5 553.967 176.014   5
   3  14  -5 703.741 196.200   9
   3  14   5 441.789 120.103  12
  14  -3   5 527.851 159.796  11
 -14   2   0 9268.41 772.261   5
   2  14   0 9115.68 641.461   9
   2  14   0 7567.58 827.309  11
  14  -2   0 8780.58 904.811  11
 -14   2  -2 5000.74 639.448   5
   2  14  -2 5643.45 578.249   9
   2  14   2 5189.52 421.421  12
   2  14   2 5445.58 581.290  11
  14  -2  -2 7007.83 598.460  11
  14  -2   2 6601.75 789.315  11
 -14   2  -4 2761.74 448.331   5
   2  14  -4 2882.53 426.036   9
   2  14   4 2546.87 273.212  12
  14  -2   4 3365.95 427.096  11
  -2 -14   6 194.954 75.1528  10
 -14   1  -1 6433.52 727.812   5
   1  14   1 6421.35 534.173   9
   1  14  -1 6563.96 611.989   9
  14  -1  -1 7228.59 748.771  11
  14  -1   1 6552.90 814.156  11
 -14   1  -3 333.485 237.799   5
   1  14  -3 200.360 199.687   9
   1  14   3 193.543 134.729  12
  14  -1   3 268.314 232.716  11
 -14   1  -5 204.169 148.789   5
  -1 -14   5 125.806 119.459  10
   1  14  -5-300.548 183.545   9
   1  14   5 94.0351 87.2715  12
  14  -1   5 112.733 130.355  11
   0  14   0 12565.7 791.184   9
  14   0   0 12586.6 1060.18  11
 -14   0   2 766.475 195.675   6
 -14   0  -2 145.004 204.262   5
   0  14   2 860.437 212.107   9
   0  14  -2 1052.18 296.352   9
  14   0  -2 132.149 209.130  11
  14   0   2 1100.56 400.380  11
 -14   0  -4 813.669 269.943   5
   0 -14   4 670.647 201.190  10
   0  14  -4 625.498 245.242   9
   0  14   4 684.335 157.913  12
  14   0   4 861.809 279.088  11
   0 -14   6 1116.01 160.871  10
  -1  14   1 1689.32 322.682   9
  -1  14  -1 1408.63 334.607   9
  14   1  -1 1749.41 380.493  11
  14   1   1 997.004 352.521  11
   1 -14   3 3401.50 410.339  10
  -1  14  -3 2587.39 431.584   9
  14   1   3 3510.21 541.059  11
 -14  -1   3 2239.75 326.252   6
 -14  -1   5 146.582 80.0342   6
   1 -14   5 397.056 150.618  10
  -1  14  -5 623.467 198.863   9
  14   1   5 606.303 187.971  11
  -2  14   0 9241.83 727.648   9
  14   2   0 9168.30 892.080  11
  -2  14   2 3715.82 379.785   9
  -2  14  -2 5671.07 633.580   9
  14   2  -2 4374.79 497.198  11
  14   2   2 4475.41 630.078  11
   2 -14   4 2269.14 311.888  10
  -2  14  -4 2618.44 420.930   9
  14   2   4 1892.56 327.472  11
 -14  -2   4 1765.02 275.978   6
   2 -14   6 51.8930 79.3617  10
  -3  14   1 3768.54 420.352   9
  -3  14  -1 4673.34 550.195   9
  14   3  -1 4014.01 547.088  11
  14   3   1 3770.43 616.480  11
 -14  -3   3-18.1805 165.105   6
   3 -14   3 144.385 179.790  10
  -3  14   3 114.881 96.8373   9
  -3  14  -3 282.934 239.759   9
  14   3   3 50.4474 226.671  11
 -14  -3   5 143.045 119.171   6
   3 -14   5 341.555 129.974  10
  -3  14  -5 95.4797 107.068   9
  14   3   5 207.851 134.354  11
  -4  14   0 7581.21 614.293   9
  14   4   0 8086.44 774.695  11
   4 -14   2 3021.69 426.273  10
  -4  14   2 1631.90 270.529   9
  -4  14  -2 1806.56 369.963   9
  14   4  -2 2008.95 335.986  11
  14   4   2 2118.86 431.956  11
 -14  -4   4 149.010 142.103   6
   4 -14   4 164.910 145.858  10
  -4  14  -4 238.382 158.272   9
  14   4   4 138.170 151.803  11
  -5  14   1 3427.72 395.762   9
  -5  14  -1 3215.78 420.605   9
  14   5  -1 3201.51 464.784  11
  14   5   1 3066.11 492.776  11
 -14  -5   3 818.708 220.470   6
   5 -14   3 1397.00 223.672  10
  -5  14   3 862.746 180.161   9
  -5  14  -3 1156.80 266.208   9
  14   5   3 875.602 275.056  11
 -14  -5   5 155.132 128.568   6
  -6  14   0 2055.26 329.913   9
  14   6   0 1441.13 357.657  11
 -14  -6   2 207.354 172.333   6
  -6  14   2-32.1996 129.684   9
  -6  14  -2 31.8160 139.642   9
  14   6  -2 196.182 120.832  11
  14   6   2-15.0311 160.352  11
 -14  -6   4 573.995 172.241   6
  14   6   4 796.214 178.094  11
  -7  14   1 652.903 197.159   9
  -7  14  -1 898.834 217.726   9
  14   7  -1 706.559 192.433  11
  14   7   1 761.225 247.624  11
 -14  -7   3 393.793 157.378   6
  -7  14   3 354.168 112.286   9
  14   7   3 279.362 155.337  11
  -8  14   0 3151.05 341.891   9
  14   8   0 2680.66 360.858  11
  -8  14   2 1881.82 227.369   9
  14   8   2 2197.39 312.932  11
 -14  -8   2 2009.47 282.881   6
   7  15   0 1755.46 263.713  11
   6  15  -1 83.1545 150.418  11
  15  -6   1 211.302 160.926  11
   5  15   0 3674.46 458.661  11
  15  -5   0 4598.11 503.987  11
 -15   5  -2 1789.49 289.488   5
   5  15  -2 1891.68 265.511   9
  15  -5   2 1960.23 350.861  11
 -15   4  -1 11812.2 733.708   5
   4  15  -1 11879.6 626.383   9
   4  15   1 10874.5 753.259  11
  15  -4  -1 11973.1 729.718  11
  15  -4   1 9774.43 815.300  11
 -15   4  -3 6660.70 549.582   5
   4  15  -3 7702.96 545.772   9
   3  15   0 10880.3 601.810   9
  15  -3   0 10824.6 836.281  11
 -15   3  -2 4703.69 511.598   5
   3  15  -2 5167.73 474.097   9
  15  -3   2 5701.04 626.154  11
 -15   3  -4 2129.35 300.018   5
  -3 -15   4 1771.74 201.954  10
   3  15  -4 2304.82 308.672   9
  15  -3   4 2064.11 285.591  11
   2  15  -1 2240.11 330.754   9
  15  -2  -1 2385.90 388.864  11
  15  -2   1 1766.89 396.973  11
 -15   2  -3 1510.78 304.951   5
   2  15  -3 1696.65 307.453   9
   1  15   0 1099.13 246.814   9
  15  -1   0 1142.20 343.509  11
   1  15  -2 921.113 267.702   9
  15  -1   2 910.767 337.337  11
  -1 -15   4 953.914 184.515  10
   1  15  -4 948.212 230.911   9
  15  -1   4 838.623 211.680  11
   0  15   1 97.2141 127.421   9
   0  15  -1 182.459 193.112   9
  15   0  -1 18.1945 171.066  11
  15   0   1 337.927 254.237  11
   0 -15   3 75.4409 135.528  10
   0  15  -3 17.4194 156.935   9
  15   0   3-12.8480 176.854  11
   0 -15   5 290.288 97.7842  10
  -1  15   0 3476.84 407.542   9
  15   1   0 2981.21 483.982  11
   1 -15   2 519.237 214.631  10
  -1  15   2 331.972 88.2378   9
  -1  15  -2 407.816 238.483   9
  15   1   2 439.871 274.233  11
   1 -15   4 279.198 114.058  10
  -1  15  -4 55.4220 140.647   9
  15   1   4-62.9895 124.527  11
  -2  15   1 1811.68 274.166   9
  -2  15  -1 1605.22 313.704   9
  15   2  -1 1727.84 344.413  11
  15   2   1 1368.34 360.315  11
 -15  -2   3 2.17415 108.240   6
   2 -15   3-47.7068 157.976  10
  -2  15  -3-86.9827 147.308   9
  15   2   3 57.6841 168.726  11
  -3  15   0 3179.80 366.600   9
  15   3   0 2699.14 450.005  11
 -15  -3   2 305.534 157.464   6
  -3  15   2 389.570 133.747   9
  -3  15  -2 454.602 210.084   9
  15   3   2 278.860 226.176  11
 -15  -3   4-93.2245 106.392   6
   3 -15   4-97.4208 98.2207  10
  -3  15  -4 50.6665 113.899   9
  -4  15   1 683.620 173.861   9
  -4  15  -1 660.201 211.488   9
  15   4  -1 1055.98 249.618  11
  15   4   1 432.845 232.272  11
 -15  -4   3-43.2351 128.676   6
  -4  15  -3 150.326 135.739   9
  15   4   3-4.29907 113.484  11
  -5  15   0 13555.0 699.649   9
  15   5   0 12786.5 816.286  11
  -5  15   2 6520.00 410.018   9
  -5  15  -2 7020.74 516.904   9
  15   5   2 7077.14 593.331  11
 -15  -5   2 7040.81 496.701   6
 -15  -6   1 2160.63 304.936   6
  -6  15   1 2560.86 277.798   9
  -6  15  -1 2577.58 313.489   9
  15   6   1 2256.62 352.108  11
 -15  -7   0 864.592 211.391   6
  -7  15   0 1223.22 200.246   9
  16  -3   1 1953.68 300.031  11
  16  -2   0 32.0787 162.305  11
  -2 -16   2 25.8823 125.266  10
   2  16  -2 53.1542 120.697   9
  16  -2   2 404.604 170.515  11
   1  16  -1 459.013 155.501   9
  16  -1   1 6.39618 181.802  11
   1  16  -3 231.150 105.702   9
  16  -1   3 272.353 156.903  11
   0  16   0 6190.96 413.828   9
  16   0   0 5857.93 535.603  11
   0 -16   2 3084.27 342.535  10
   0  16  -2 2704.22 328.593   9
  16   0   2 2297.83 363.806  11
  -1  16  -1 1926.85 265.432   9
  16   1   1 1477.32 294.790  11
  -1  16  -3 206.753 106.170   9
  16   1   3 101.791 119.676  11
  -2  16   0 283.824 130.030   9
  16   2   0 189.621 139.306  11
  -2  16  -2 170.292 130.212   9
  16   2   2 154.088 126.156  11
  -3  16  -1 2723.92 302.227   9
  16   3   1 2223.05 337.707  11
  -4  16   0 8540.78 471.810   9
   0   0   0    0.00    0.00   0
TITL MA139_2 in I4/m
REM I4/m (#87 in standard setting)
CELL 1.54184  13.410753  13.410753   9.776635  90.0000  90.0000  90.0000
ZERR    8.00   0.000195   0.000195   0.000261   0.0000   0.0000   0.0000
LATT  2
SYMM -x,-y, z
SYMM -y, x, z
SYMM  y,-x, z
SFAC C H N O
UNIT 88.00 80.00 8.00 8.00
TREF
HKLF 4
END
;
_shelx_hkl_checksum              7086
loop_
_space_group_symop_operation_xyz
'x, y, z'
'-x, -y, z'
'-y, x, z'
'y, -x, z'
'x+1/2, y+1/2, z+1/2'
'-x+1/2, -y+1/2, z+1/2'
'-y+1/2, x+1/2, z+1/2'
'y+1/2, -x+1/2, z+1/2'
loop_
_atom_site_label
_atom_site_type_symbol
_atom_site_fract_x
_atom_site_fract_y
_atom_site_fract_z
_atom_site_U_iso_or_equiv
_atom_site_adp_type
_atom_site_occupancy
_atom_site_site_symmetry_order
_atom_site_calc_flag
_atom_site_refinement_flags_posn
_atom_site_refinement_flags_adp
_atom_site_refinement_flags_occupancy
_atom_site_disorder_assembly
_atom_site_disorder_group
Ti Ti 0.500000 0.500000 0.4373(2) 0.0348(17) Uani 0.469(10) 4 d S T P A 1
O1 O 0.500000 0.500000 0.2762(15) 0.043(4) Uani 0.469(10) 4 d S T P A 1
Ti' Ti 0.500000 0.500000 0.5535(2) 0.0382(15) Uani 0.531(10) 4 d S T P A 2
O1' O 0.500000 0.500000 0.7202(18) 0.060(4) Uani 0.531(10) 4 d S T P A 2
C1 C 0.63134(16) 0.68665(16) 0.4968(8) 0.0413(6) Uani 1 1 d . . . . .
C2 C 0.62506(18) 0.79380(16) 0.4966(9) 0.0495(7) Uani 1 1 d . . . . .
H2 H 0.678542 0.838198 0.497211 0.059 Uiso 1 1 calc R U . . .
C3 C 0.52720(19) 0.81812(17) 0.4954(10) 0.0510(7) Uani 1 1 d . . . . .
H3 H 0.500719 0.882377 0.493648 0.061 Uiso 1 1 calc R U . . .
C4 C 0.47159(16) 0.72645(16) 0.4973(8) 0.0419(6) Uani 1 1 d . . . . .
C5 C 0.36734(16) 0.72086(16) 0.4949(6) 0.0413(6) Uani 1 1 d . . . . .
C6 C 0.31001(16) 0.81625(17) 0.4968(8) 0.0429(6) Uani 1 1 d . . . . .
C7 C 0.2826(5) 0.8617(5) 0.3733(6) 0.0655(16) Uani 1 1 d . . . . .
H7 H 0.301554 0.833269 0.290427 0.079 Uiso 1 1 calc R U . . .
C8 C 0.2278(6) 0.9485(5) 0.3749(9) 0.0749(18) Uani 1 1 d . . . . .
H8 H 0.209047 0.978405 0.292986 0.090 Uiso 1 1 calc R U . . .
C9 C 0.2001(2) 0.9919(2) 0.4991(13) 0.0677(10) Uani 1 1 d . . . . .
H9 H 0.163421 1.050920 0.500370 0.081 Uiso 1 1 calc R U . . .
C10 C 0.2265(6) 0.9482(5) 0.6152(9) 0.080(2) Uani 1 1 d . . . . .
H10 H 0.207383 0.976122 0.698314 0.096 Uiso 1 1 calc R U . . .
C11 C 0.2830(5) 0.8605(5) 0.6135(7) 0.0692(17) Uani 1 1 d . . . . .
H11 H 0.302369 0.832019 0.696152 0.083 Uiso 1 1 calc R U . . .
N1 N 0.53663(13) 0.64708(13) 0.4963(6) 0.0394(5) Uani 1 1 d . . . . .
loop_
_atom_site_aniso_label
_atom_site_aniso_U_11
_atom_site_aniso_U_22
_atom_site_aniso_U_33
_atom_site_aniso_U_23
_atom_site_aniso_U_13
_atom_site_aniso_U_12
Ti 0.0297(16) 0.0297(16) 0.045(4) 0.000 0.000 0.000
O1 0.045(5) 0.045(5) 0.039(9) 0.000 0.000 0.000
Ti' 0.0333(14) 0.0333(14) 0.048(3) 0.000 0.000 0.000
O1' 0.055(5) 0.055(5) 0.070(12) 0.000 0.000 0.000
C1 0.0370(11) 0.0350(11) 0.0518(14) -0.001(3) 0.004(3) -0.0039(8)
C2 0.0428(12) 0.0353(11) 0.0704(18) 0.001(3) -0.002(4) -0.0063(9)
C3 0.0471(13) 0.0320(11) 0.0740(19) 0.003(3) -0.001(4) -0.0005(9)
C4 0.0407(12) 0.0332(11) 0.0519(14) 0.005(3) 0.001(3) 0.0018(8)
C5 0.0392(11) 0.0373(11) 0.0475(14) -0.002(3) 0.001(3) 0.0038(8)
C6 0.0374(11) 0.0357(11) 0.0556(15) 0.003(3) -0.003(3) 0.0018(8)
C7 0.086(4) 0.057(3) 0.053(3) 0.007(3) -0.010(3) 0.019(3)
C8 0.087(4) 0.057(3) 0.081(5) 0.013(4) -0.011(4) 0.018(3)
C9 0.0457(14) 0.0372(13) 0.120(3) 0.002(5) -0.005(5) 0.0054(10)
C10 0.081(4) 0.056(4) 0.102(6) -0.023(4) 0.021(4) 0.016(3)
C11 0.083(4) 0.060(3) 0.064(4) 0.000(3) 0.001(3) 0.024(3)
N1 0.0338(9) 0.0322(9) 0.0523(11) 0.002(2) 0.000(2) -0.0014(6)
loop_
_atom_type_symbol
_atom_type_description
_atom_type_scat_dispersion_real
_atom_type_scat_dispersion_imag
_atom_type_scat_source
C C 0.0181 0.0091 'International Tables Vol C Tables 4.2.6.8 and 6.1.1.4'
H H 0.0000 0.0000 'International Tables Vol C Tables 4.2.6.8 and 6.1.1.4'
N N 0.0311 0.0180 'International Tables Vol C Tables 4.2.6.8 and 6.1.1.4'
O O 0.0492 0.0322 'International Tables Vol C Tables 4.2.6.8 and 6.1.1.4'
Ti Ti 0.2191 1.8069 'International Tables Vol C Tables 4.2.6.8 and 6.1.1.4'
loop_
_geom_angle_atom_site_label_1
_geom_angle_atom_site_label_2
_geom_angle_atom_site_label_3
_geom_angle
_geom_angle_site_symmetry_1
_geom_angle_site_symmetry_3
O1 Ti N1 105.89(18) . 4_565
O1 Ti N1 105.89(18) . 2_665
N1 Ti N1 85.70(10) 4_565 2_665
O1 Ti N1 105.89(18) . 3_655
N1 Ti N1 148.2(4) 4_565 3_655
N1 Ti N1 85.70(10) 2_665 3_655
O1 Ti N1 105.89(18) . .
N1 Ti N1 85.70(10) 4_565 .
N1 Ti N1 148.2(4) 2_665 .
N1 Ti N1 85.70(10) 3_655 .
O1' Ti' N1 105.41(18) . 2_665
O1' Ti' N1 105.41(18) . 3_655
N1 Ti' N1 85.95(9) 2_665 3_655
O1' Ti' N1 105.41(18) . 4_565
N1 Ti' N1 85.95(9) 2_665 4_565
N1 Ti' N1 149.2(4) 3_655 4_565
O1' Ti' N1 105.41(18) . .
N1 Ti' N1 149.2(4) 2_665 .
N1 Ti' N1 85.95(9) 3_655 .
N1 Ti' N1 85.95(9) 4_565 .
N1 C1 C5 126.2(2) . 4_565
N1 C1 C2 109.32(19) . .
C5 C1 C2 124.4(2) 4_565 .
C3 C2 C1 107.31(19) . .
C3 C2 H2 126.3 . .
C1 C2 H2 126.3 . .
C2 C3 C4 107.3(2) . .
C2 C3 H3 126.4 . .
C4 C3 H3 126.4 . .
N1 C4 C5 126.2(2) . .
N1 C4 C3 109.42(19) . .
C5 C4 C3 124.3(2) . .
C4 C5 C1 124.1(2) . 3_655
C4 C5 C6 117.9(2) . .
C1 C5 C6 117.9(2) 3_655 .
C11 C6 C7 118.3(3) . .
C11 C6 C5 122.0(6) . .
C7 C6 C5 119.7(6) . .
C8 C7 C6 119.8(7) . .
C8 C7 H7 120.1 . .
C6 C7 H7 120.1 . .
C7 C8 C9 120.2(7) . .
C7 C8 H8 119.9 . .
C9 C8 H8 119.9 . .
C10 C9 C8 119.4(3) . .
C10 C9 H9 120.3 . .
C8 C9 H9 120.3 . .
C9 C10 C11 120.3(7) . .
C9 C10 H10 119.8 . .
C11 C10 H10 119.8 . .
C6 C11 C10 122.0(7) . .
C6 C11 H11 119.0 . .
C10 C11 H11 119.0 . .
C4 N1 C1 106.65(17) . .
C4 N1 Ti' 125.0(2) . .
C1 N1 Ti' 125.08(19) . .
C4 N1 Ti 125.21(19) . .
C1 N1 Ti 125.11(19) . .
loop_
_geom_bond_atom_site_label_1
_geom_bond_atom_site_label_2
_geom_bond_distance
_geom_bond_site_symmetry_2
Ti O1 1.575(15) .
Ti N1 2.108(3) 4_565
Ti N1 2.108(3) 2_665
Ti N1 2.108(3) 3_655
Ti N1 2.108(3) .
Ti' O1' 1.629(18) .
Ti' N1 2.104(2) 2_665
Ti' N1 2.104(2) 3_655
Ti' N1 2.104(2) 4_565
Ti' N1 2.104(2) .
C1 N1 1.373(3) .
C1 C5 1.399(3) 4_565
C1 C2 1.436(3) .
C2 C3 1.349(4) .
C2 H2 0.9300 .
C3 C4 1.435(3) .
C3 H3 0.9300 .
C4 N1 1.373(3) .
C4 C5 1.397(3) .
C5 C6 1.489(3) .
C6 C11 1.336(10) .
C6 C7 1.401(9) .
C7 C8 1.373(9) .
C7 H7 0.9300 .
C8 C9 1.397(14) .
C8 H8 0.9300 .
C9 C10 1.325(13) .
C9 H9 0.9300 .
C10 C11 1.395(9) .
C10 H10 0.9300 .
C11 H11 0.9300 .
