#------------------------------------------------------------------------------
#$Date: 2019-11-26 01:55:39 +0200 (Tue, 26 Nov 2019) $
#$Revision: 242341 $
#$URL: file:///home/coder/svn-repositories/cod/cif/4/13/23/4132357.cif $
#------------------------------------------------------------------------------
#
# This file is available in the Crystallography Open Database (COD),
# http://www.crystallography.net/
#
# All data on this site have been placed in the public domain by the
# contributors.
#
data_4132357
loop_
_publ_author_name
'Zhang, Jiajing'
'Zhang, Wentao'
'Xu, Minghui'
'Zhang, Yang'
'Fu, Xuefeng'
'Fang, Huayi'
_publ_section_title
;
 Production of Formamides from CO and Amines Induced by Porphyrin
 Rhodium(II) Metalloradical.
;
_journal_issue                   21
_journal_name_full               'Journal of the American Chemical Society'
_journal_page_first              6656
_journal_page_last               6660
_journal_paper_doi               10.1021/jacs.8b03029
_journal_volume                  140
_journal_year                    2018
_chemical_formula_moiety         'C52 H44 N5 O2 Rh'
_chemical_formula_sum            'C52 H44 N5 O2 Rh'
_chemical_formula_weight         873.83
_space_group_crystal_system      triclinic
_space_group_IT_number           2
_space_group_name_Hall           '-P 1'
_space_group_name_H-M_alt        'P -1'
_atom_sites_solution_hydrogens   mixed
_atom_sites_solution_primary     direct
_audit_creation_date             2015-06-12
_audit_creation_method
;
Olex2 1.2
(compiled 2015.01.26 svn.r3150 for OlexSys, GUI svn.r4998)
;
_cell_angle_alpha                62.96(3)
_cell_angle_beta                 75.66(3)
_cell_angle_gamma                68.08(3)
_cell_formula_units_Z            1
_cell_length_a                   9.813(2)
_cell_length_b                   11.262(2)
_cell_length_c                   11.590(2)
_cell_measurement_reflns_used    4007
_cell_measurement_temperature    173.1500
_cell_measurement_theta_max      27.4836
_cell_measurement_theta_min      2.1298
_cell_volume                     1053.6(5)
_computing_cell_refinement       'CrystalClear (Rigaku Inc., 2007)'
_computing_data_collection       'CrystalClear (Rigaku Inc., 2007)'
_computing_data_reduction        'CrystalClear (Rigaku Inc., 2007)'
_computing_molecular_graphics    'Olex2 (Dolomanov et al., 2009)'
_computing_publication_material  'CIFTAB (Sheldrick, 2013)'
_computing_structure_refinement  'SHELXL (Sheldrick, 2014)'
_computing_structure_solution
;
'SHELXT (Sheldrick, 2014)'
;
_diffrn_ambient_temperature      173.1500
_diffrn_detector_area_resol_mean 28.5714
_diffrn_measured_fraction_theta_full 0.996
_diffrn_measured_fraction_theta_max 0.995
_diffrn_measurement_details
;
scan:
	Number of images: 360
	           Slice: -110.0000 - 70.0000
	     Image width: 0.5000
	        Exp time: 10.0000
	   Rotation axis: Omega
	           Omega: 0.0000
	             Chi: 45.0000
	             Phi: 270.0000
	             XTD: 40.0977
	          2theta: -19.8472
scan:
	Number of images: 360
	           Slice: -110.0000 - 70.0000
	     Image width: 0.5000
	        Exp time: 10.0000
	   Rotation axis: Omega
	           Omega: 0.0000
	             Chi: 45.0000
	             Phi: 90.0000
	             XTD: 40.0977
	          2theta: -19.8472
scan:
	Number of images: 344
	           Slice: -110.0000 - 62.0000
	     Image width: 0.5000
	        Exp time: 10.0000
	   Rotation axis: Omega
	           Omega: 0.0000
	             Chi: 45.0000
	             Phi: 0.0000
	             XTD: 40.0977
	          2theta: -19.8472
;
_diffrn_measurement_device
;
Saturn724+ (2x2 bin mode)
;
_diffrn_measurement_device_details
;
AFC10: Fixed Chi 2 circle
;
_diffrn_measurement_device_type  'Saturn724+ CCD'
_diffrn_measurement_method       '\w scans at fixed \c = 45\%'
_diffrn_orient_matrix_type       d*Trek
_diffrn_orient_matrix_UB_11      0.0132
_diffrn_orient_matrix_UB_12      -0.0191
_diffrn_orient_matrix_UB_13      0.1079
_diffrn_orient_matrix_UB_21      -0.1023
_diffrn_orient_matrix_UB_22      -0.0065
_diffrn_orient_matrix_UB_23      -0.0209
_diffrn_orient_matrix_UB_31      0.0510
_diffrn_orient_matrix_UB_32      -0.0775
_diffrn_orient_matrix_UB_33      -0.0294
_diffrn_radiation_detector       CCD
_diffrn_radiation_monochromator  'Graphite Monochromator'
_diffrn_radiation_type           MoK\a
_diffrn_radiation_wavelength     0.71073
_diffrn_reflns_av_R_equivalents  0.0339
_diffrn_reflns_av_unetI/netI     0.0353
_diffrn_reflns_Laue_measured_fraction_full 0.996
_diffrn_reflns_Laue_measured_fraction_max 0.995
_diffrn_reflns_limit_h_max       12
_diffrn_reflns_limit_h_min       -12
_diffrn_reflns_limit_k_max       14
_diffrn_reflns_limit_k_min       -14
_diffrn_reflns_limit_l_max       15
_diffrn_reflns_limit_l_min       -14
_diffrn_reflns_number            13251
_diffrn_reflns_point_group_measured_fraction_full 0.996
_diffrn_reflns_point_group_measured_fraction_max 0.995
_diffrn_reflns_theta_full        25.242
_diffrn_reflns_theta_max         27.464
_diffrn_reflns_theta_min         2.588
_diffrn_source                   'Sealed Tube'
_diffrn_source_current           30.0000
_diffrn_source_power             1.5000
_diffrn_source_voltage           50.0000
_exptl_absorpt_coefficient_mu    0.454
_exptl_absorpt_correction_T_max  1.0000
_exptl_absorpt_correction_T_min  0.8929
_exptl_absorpt_correction_type   multi-scan
_exptl_absorpt_process_details   'CrystalClear (Rigaku Inc., 2007)'
_exptl_crystal_colour            red
_exptl_crystal_colour_primary    red
_exptl_crystal_density_diffrn    1.377
_exptl_crystal_description       plate
_exptl_crystal_F_000             452
_exptl_crystal_size_max          0.36
_exptl_crystal_size_mid          0.22
_exptl_crystal_size_min          0.07
_refine_diff_density_max         0.824
_refine_diff_density_min         -0.674
_refine_diff_density_rms         0.068
_refine_ls_extinction_method     none
_refine_ls_goodness_of_fit_ref   1.146
_refine_ls_hydrogen_treatment    constr
_refine_ls_matrix_type           full
_refine_ls_number_parameters     323
_refine_ls_number_reflns         4803
_refine_ls_number_restraints     183
_refine_ls_restrained_S_all      1.139
_refine_ls_R_factor_all          0.0416
_refine_ls_R_factor_gt           0.0412
_refine_ls_shift/su_max          0.001
_refine_ls_shift/su_mean         0.000
_refine_ls_structure_factor_coef Fsqd
_refine_ls_weighting_details
'w=1/[\s^2^(Fo^2^)+(0.0252P)^2^+1.2861P] where P=(Fo^2^+2Fc^2^)/3'
_refine_ls_weighting_scheme      calc
_refine_ls_wR_factor_gt          0.0943
_refine_ls_wR_factor_ref         0.0946
_reflns_Friedel_coverage         0.000
_reflns_number_gt                4770
_reflns_number_total             4803
_reflns_threshold_expression     'I > 2\s(I)'
_cod_data_source_file            ja8b03029_si_003.cif
_cod_data_source_block           (TPP)RhCONHPr
_cod_database_code               4132357
_shelx_space_group_comment
;
The symmetry employed for this shelxl refinement is uniquely defined
by the following loop, which should always be used as a source of
symmetry information in preference to the above space-group names.
They are only intended as comments.
;
_diffrn_number_total             4811
_olex2_refinement_description
;
1. Fixed Uiso
 At 1.2 times of:
  All C(H) groups, All C(H,H) groups, All N(H) groups
 At 1.5 times of:
  All C(H,H,H) groups
2. Restrained distances
 N3-C23 = N3-C24
 1.47 with sigma of 0.01
 O1-C23
 1.23 with sigma of 0.01
3. Uiso/Uaniso restraints and constraints
N3 \\sim C24 \\sim C23 \\sim O1 \\sim C27 \\sim C25 \\sim C28 \\sim C26 \\sim
C29 \\sim C30 \\sim O2: within 1.7A with sigma of 0.02 and sigma for terminal
atoms of 0.04
Uanis(C24) \\sim Ueq, Uanis(C25) \\sim Ueq, Uanis(C26) \\sim Ueq, Uanis(C29)
\\sim Ueq, Uanis(C30) \\sim Ueq, Uanis(N3) \\sim Ueq, Uanis(C23) \\sim Ueq,
Uanis(O1) \\sim Ueq, Uanis(C27) \\sim Ueq, Uanis(C28) \\sim Ueq, Uanis(O2)
\\sim Ueq: with sigma of 0.01 and sigma for terminal atoms of 0.02
4. Others
 Fixed Sof: N3(0.5) H3(0.5) C24(0.5) H24A(0.5) H24B(0.5) C23(0.5) O1(0.5)
 C27(0.5) H27A(0.5) H27B(0.5) C25(0.5) H25A(0.5) H25B(0.5) C28(0.5) H28A(0.5)
 H28B(0.5) C26(0.5) H26A(0.5) H26B(0.5) H26C(0.5) C29(0.5) H29A(0.5) H29B(0.5)
 C30(0.5) H30A(0.5) H30B(0.5) O2(0.5)
5.a Riding coordinates:
 N3(H3)
5.b Secondary CH2 refined with riding coordinates:
 C24(H24A,H24B), C27(H27A,H27B), C25(H25A,H25B), C28(H28A,H28B), C29(H29A,
 H29B), C30(H30A,H30B)
5.c Aromatic/amide H refined with riding coordinates:
 C2(H2), C0AA(H0AA), C13(H13), C14(H14), C11(H11), C8(H8), C22(H22), C20(H20),
 C7(H7), C18(H18), C10(H10), C19(H19), C21(H21), C9(H9)
5.d Idealised Me refined as rotating group:
 C26(H26A,H26B,H26C)
;
_shelx_res_file
;
    sa4168.res created by SHELXL-2014/7

TITL sa4168 in P-1
CELL 0.71073 9.813 11.262 11.59 62.96 75.66 68.08
ZERR 1 0.002 0.002 0.002 0.03 0.03 0.03
LATT 1
SFAC C H N O Rh
UNIT 52 44 5 2 1
DFIX 1.47 0.01 N3 C23 N3 C24
DFIX 1.23 0.01 O1 C23
SIMU 0.02 0.04 1.7 N3 C24 C23 O1 C27 C25 C28 C26 C29 C30 O2
ISOR 0.01 0.02 C24 C25 C26 C29 C30 N3 C23 O1 C27 C28 O2

L.S. 5
PLAN  -20
BOND $H
CONF
MORE -1
fmap 2
acta
OMIT -2 1 0
OMIT -2 -3 3
OMIT 5 2 0
OMIT 1 1 1
OMIT 0 1 0
OMIT 1 0 0
OMIT 0 0 1
OMIT 1 4 3
REM <olex2.extras>
REM <HklSrc "%.\\sa4168.hkl">
REM </olex2.extras>

WGHT    0.025200    1.286100
FVAR       0.87886
RH1   5    0.500000    0.500000    0.500000    10.50000    0.03167    0.02580 =
         0.02784   -0.01579   -0.00697   -0.00728
N2    3    0.375251    0.392299    0.497521    11.00000    0.03618    0.02706 =
         0.02731   -0.01459   -0.00598   -0.01060
N1    3    0.628944    0.473371    0.341662    11.00000    0.03982    0.02801 =
         0.02845   -0.01588   -0.00498   -0.01209
C17   1    0.077521    0.343027    0.779369    11.00000    0.03399    0.02826 =
         0.03105   -0.01734   -0.00363   -0.00905
C15   1    0.257703    0.359271    0.585405    11.00000    0.03682    0.02933 =
         0.02768   -0.01325   -0.00769   -0.01032
C6    1    0.517696    0.253456    0.234157    11.00000    0.04263    0.03245 =
         0.03293   -0.02005   -0.00412   -0.01457
C5    1    0.510877    0.330955    0.312812    11.00000    0.04224    0.02565 =
         0.02880   -0.01562   -0.00792   -0.00987
C2    1    0.814876    0.472826    0.176045    11.00000    0.04307    0.03987 =
         0.03486   -0.02371    0.00103   -0.01481
AFIX  43
H2    2    0.897487    0.490375    0.119443    11.00000   -1.20000
AFIX   0
C12   1    0.399666    0.328597    0.413963    11.00000    0.03960    0.02574 =
         0.03036   -0.01515   -0.00943   -0.00991
PART 1
N3    3    0.759994    0.264438    0.587552    10.50000    0.05683    0.04489 =
         0.04852   -0.00896   -0.00323   -0.02024
AFIX   3
H3    2    0.805144    0.320118    0.580572    10.50000   -1.20000
AFIX   0
PART 0
C1AA  1    0.617480    0.398033    0.280211    11.00000    0.04312    0.02787 =
         0.02877   -0.01649   -0.00675   -0.01010
PART 1
C24   1    0.848009    0.117764    0.656407    10.50000    0.05544    0.06629 =
         0.07362   -0.01904   -0.00918   -0.01642
AFIX  23
H24A  2    0.820152    0.089210    0.749229    10.50000   -1.20000
H24B  2    0.951660    0.111822    0.640896    10.50000   -1.20000
AFIX   0
PART 0
C16   1    0.200192    0.398003    0.690164    11.00000    0.03429    0.02827 =
         0.03042   -0.01409   -0.00548   -0.01008
C0AA  1    0.735280    0.397112    0.177824    11.00000    0.04652    0.03878 =
         0.03608   -0.02543   -0.00081   -0.01383
AFIX  43
H0AA  2    0.753237    0.352258    0.122737    11.00000   -1.20000
AFIX   0
PART 1
C23   1    0.609776    0.311322    0.628099    10.50000    0.03782    0.03821 =
         0.03631   -0.02064   -0.00604   -0.00917
PART 0
C1    1    0.747881    0.521653    0.278516    11.00000    0.03725    0.02910 =
         0.02950   -0.01577   -0.00416   -0.00995
C13   1    0.292477    0.255681    0.449722    11.00000    0.04925    0.03325 =
         0.03415   -0.01809   -0.00752   -0.01726
AFIX  43
H13   2    0.283905    0.205539    0.407932    11.00000   -1.20000
AFIX   0
C14   1    0.206638    0.273312    0.554963    11.00000    0.04309    0.03492 =
         0.03429   -0.01709   -0.00426   -0.01831
AFIX  43
H14   2    0.128897    0.236698    0.599549    11.00000   -1.20000
AFIX   0
C11   1    0.455527    0.322847    0.117112    11.00000    0.05259    0.03585 =
         0.03945   -0.02199   -0.01254   -0.00964
AFIX  43
H11   2    0.408832    0.418730    0.086939    11.00000   -1.20000
AFIX   0
C8    1    0.589987    0.040091    0.204511    11.00000    0.10824    0.03813 =
         0.06873   -0.03572   -0.03262   -0.00344
AFIX  43
H8    2    0.635565   -0.055964    0.234608    11.00000   -1.20000
AFIX   0
C22   1    0.106940    0.235544    0.900292    11.00000    0.03891    0.04405 =
         0.03522   -0.01374   -0.00593   -0.01115
AFIX  43
H22   2    0.201118    0.200896    0.927011    11.00000   -1.20000
AFIX   0
C20   1   -0.143458    0.230803    0.944482    11.00000    0.04925    0.05843 =
         0.04960   -0.03643    0.01187   -0.02859
AFIX  43
H20   2   -0.216991    0.192843    0.999549    11.00000   -1.20000
AFIX   0
C7    1    0.584359    0.111535    0.277503    11.00000    0.07177    0.03488 =
         0.04559   -0.02213   -0.01987   -0.00769
AFIX  43
H7    2    0.626041    0.062923    0.356333    11.00000   -1.20000
AFIX   0
PART 1
O1    4    0.556576    0.240901    0.730690    10.50000    0.05530    0.03803 =
         0.03369   -0.00924   -0.00340   -0.01498
PART 0
C18   1   -0.064714    0.394070    0.743489    11.00000    0.03800    0.04354 =
         0.04365   -0.01617   -0.01233   -0.00877
AFIX  43
H18   2   -0.087004    0.466940    0.662835    11.00000   -1.20000
AFIX   0
C10   1    0.461939    0.251116    0.043987    11.00000    0.05661    0.05791 =
         0.05218   -0.03620   -0.01861   -0.01092
AFIX  43
H10   2    0.420799    0.298870   -0.035073    11.00000   -1.20000
AFIX   0
C19   1   -0.174028    0.337727    0.826453    11.00000    0.03606    0.06501 =
         0.05697   -0.03433   -0.00297   -0.01775
AFIX  43
H19   2   -0.269021    0.373349    0.801176    11.00000   -1.20000
AFIX   0
C21   1   -0.002817    0.178934    0.982111    11.00000    0.05603    0.04785 =
         0.03774   -0.01221   -0.00031   -0.02068
AFIX  43
H21   2    0.018538    0.105647    1.062733    11.00000   -1.20000
AFIX   0
C9    1    0.529052    0.110073    0.089035    11.00000    0.07863    0.05804 =
         0.06880   -0.04748   -0.01946   -0.01564
AFIX  43
H9    2    0.533174    0.061580    0.040660    11.00000   -1.20000
AFIX   0
PART 2
C27   1    0.614150    0.170573    0.710715    10.50000    0.04162    0.04436 =
         0.05432   -0.01414   -0.00206   -0.01229
AFIX  23
H27A  2    0.542602    0.189358    0.779647    10.50000   -1.20000
H27B  2    0.567701    0.148936    0.660942    10.50000   -1.20000
AFIX   0
PART 0
PART 1
C25   1    0.825705    0.015780    0.611658    10.50000    0.07099    0.07208 =
         0.08407   -0.03812   -0.02948   -0.00410
AFIX  23
H25A  2    0.722444    0.020582    0.626192    10.50000   -1.20000
H25B  2    0.856984    0.040424    0.519643    10.50000   -1.20000
AFIX   0
PART 0
PART 2
C28   1    0.739154    0.056667    0.764241    10.50000    0.04955    0.06208 =
         0.08796   -0.00488   -0.00924   -0.02059
AFIX  23
H28A  2    0.739017   -0.026446    0.758261    10.50000   -1.20000
H28B  2    0.739339    0.036532    0.854965    10.50000   -1.20000
AFIX   0
PART 0
PART 1
C26   1    0.918859   -0.131373    0.691568    10.50000    0.09909    0.08342 =
         0.12682   -0.05780   -0.03353   -0.01276
AFIX 137
H26A  2    0.934992   -0.191437    0.648393    10.50000   -1.50000
H26B  2    0.868056   -0.166953    0.776252    10.50000   -1.50000
H26C  2    1.012082   -0.128225    0.700288    10.50000   -1.50000
AFIX   0
PART 0
PART 2
C29   1    0.876492    0.103113    0.682183    10.50000    0.04970    0.07326 =
         0.05591   -0.01365    0.00229   -0.01776
AFIX  23
H29A  2    0.929255    0.117363    0.733062    10.50000   -1.20000
H29B  2    0.943454    0.034742    0.648849    10.50000   -1.20000
AFIX   0
C30   1    0.808645    0.238320    0.573814    10.50000    0.05330    0.06174 =
         0.05146   -0.02064   -0.00128   -0.01967
AFIX  23
H30A  2    0.863975    0.303688    0.547200    10.50000   -1.20000
H30B  2    0.805185    0.222622    0.499082    10.50000   -1.20000
AFIX   0
O2    4    0.663956    0.289243    0.628465    10.50000    0.02926    0.03164 =
         0.03630   -0.01334   -0.00469   -0.01058
HKLF 4

REM  sa4168 in P-1
REM R1 =  0.0412 for    4770 Fo > 4sig(Fo)  and  0.0416 for all    4803 data
REM    323 parameters refined using    183 restraints

END

WGHT      0.0252      1.2861

REM Highest difference peak  0.824,  deepest hole -0.674,  1-sigma level  0.068
Q1    1   0.9438  0.0419  0.6115  11.00000  0.05    0.82
Q2    1   0.4229  0.4252  0.5075  11.00000  0.05    0.52
Q3    1   0.8182  0.3214  0.5245  11.00000  0.05    0.41
Q4    1   0.5209  0.2882  0.2811  11.00000  0.05    0.41
Q5    1   0.5374  0.5620  0.4243  11.00000  0.05    0.35
Q6    1   0.1367  0.3624  0.7391  11.00000  0.05    0.35
Q7    1   0.7861  0.5050  0.2285  11.00000  0.05    0.33
Q8    1   0.7242  0.0250  0.6732  11.00000  0.05    0.33
Q9    1   0.5166  0.2846  0.1738  11.00000  0.05    0.32
Q10   1   0.5362  0.3812  0.2906  11.00000  0.05    0.31
Q11   1   0.4565  0.3390  0.3566  11.00000  0.05    0.30
Q12   1   0.6255  0.4818  0.4709  11.00000  0.05    0.30
Q13   1   0.8331 -0.0007  0.5484  11.00000  0.05    0.30
Q14   1   0.4793  0.0852  0.1423  11.00000  0.05    0.28
Q15   1   0.5628  0.1992  0.2381  11.00000  0.05    0.28
Q16   1   0.6175  0.4194  0.4546  11.00000  0.05    0.27
Q17   1   0.3663  0.2789  0.4335  11.00000  0.05    0.27
Q18   1   0.7821  0.5452  0.3123  11.00000  0.05    0.27
Q19   1   0.6404  0.0248  0.2027  11.00000  0.05    0.26
Q20   1   0.6842  0.6240  0.4557  11.00000  0.05    0.26
;
_shelx_res_checksum              4298
_shelx_hkl_file
;
   0   0  -1    0.23    0.46
   0   0   1   -0.29    0.31
   0   0   1   -0.47    0.51
   0   0  -2   91.46    2.75
   0   0   2   72.94    2.10
   0   0   2   73.65    2.79
   0   0  -2   85.57    3.05
   0   0   3  190.35    5.24
   0   0   3  183.05    5.47
   0   0  -3  185.75    4.72
   0   0   3  177.56    4.57
   0   0   3  184.19    5.60
   0   0  -3  182.26    5.37
   0   0  -4 1633.94   15.51
   0   0   4 1639.73   15.43
   0   0  -4 1596.51   16.35
   0   0   5  845.99   16.61
   0   0  -5  899.63   16.49
   0   0   5  871.83   15.90
   0   0   5  890.92   17.39
   0   0  -5  859.83   16.69
   0   0  -6  134.59    7.33
   0   0   6  126.79    6.88
   0   0   6  143.10    8.61
   0   0  -6  130.34    7.79
   0   0   7  170.30   10.49
   0   0  -7  157.27    8.31
   0   0  -7  167.12    8.88
   0   0   7  172.15   10.09
   0   0   8   82.83    9.07
   0   0  -8   67.14    6.55
   0   0  -8   72.34    6.16
   0   0   8   75.67    7.13
   0   0   9  273.02   18.88
   0   0  -9  247.02   15.81
   0   0  -9  255.47   16.36
   0   0   9  262.05   17.68
   0   0  10  245.56   13.11
   0   0  10  251.51   12.57
   0   0  11   80.67    9.20
   0   0  11   76.07    6.44
   0   0  12  135.48   13.84
   0   0  12  107.45   10.73
   0   0  13  138.84   15.40
   0   0  13  118.13   11.89
   0  -1  12  176.42   14.51
   0  -1  12  146.84   10.60
   0  -1  11  108.08    9.57
   0  -1  11  102.27   11.34
   0  -1  10  151.43   11.23
   0  -1   9  296.49   13.81
   0  -1   9  268.60   11.91
   0  -1   8  189.38   13.01
   0  -1   8  183.10   11.79
   0  -1   7  262.57   13.92
   0   1  -7  250.59   11.54
   0  -1   7  240.66   12.50
   0  -1   6 1314.98   35.90
   0   1  -6 1254.61   32.44
   0   1  -6 1275.06   32.97
   0  -1   6 1288.44   34.68
   0  -1   5  591.08   19.52
   0   1  -5  581.76   17.71
   0  -1   5  587.79   17.89
   0  -1   5  581.24   18.78
   0   1  -5  566.05   18.11
   0  -1   4  407.30   10.84
   0   1  -4  471.11   11.45
   0  -1   4  455.66   11.08
   0  -1   4  477.46   12.71
   0   1  -4  473.51   12.47
   0  -1   3 1018.32   11.13
   0   1  -3 1043.94    9.61
   0  -1   3 1043.21    9.66
   0   1  -3 1023.89   11.01
   0  -1   2   15.12    2.20
   0   1  -2   16.02    0.99
   0  -1   2   13.20    0.82
   0  -1   2   18.95    2.33
   0   1  -2   11.47    1.98
   0   1  -1 1938.57   18.10
   0  -1   1 1836.49   17.14
   0  -1   1 1891.22   17.02
   0  -1   1 1867.78   17.34
   0   1  -1 1855.34   17.17
   0   1   0    0.30    0.31
   0  -1   0   -0.03    0.42
   0   1   0    0.53    0.45
   0  -1   0    1.06    0.46
   0   1   0    0.76    0.45
   0   1   2 1297.61   12.42
   0  -1  -2 1291.81   12.30
   0  -1  -2 1312.03   12.61
   0   1   2 1309.54   12.54
   0   1   2 1297.01   12.63
   0  -1  -2 1280.48   12.47
   0   1   3 3672.28   33.97
   0  -1  -3 3589.21   33.12
   0  -1  -3 3669.00   33.72
   0   1   3 3645.99   33.86
   0  -1  -3 3591.10   33.29
   0  -1  -4 1001.61   10.45
   0   1   4 1032.74   10.69
   0   1   4 1022.14   11.49
   0  -1  -4  987.72   11.00
   0   1   5 1306.34   24.38
   0  -1  -5 1372.19   25.07
   0   1   5 1325.97   24.07
   0  -1  -5 1314.10   24.52
   0   1   6  554.54   18.21
   0  -1  -6  576.36   18.20
   0   1   6  566.23   17.68
   0   1   6  570.53   18.44
   0  -1  -6  541.87   17.47
   0   1   7  133.79    9.17
   0  -1  -7  113.57    6.44
   0  -1  -7  127.59    7.76
   0   1   7  130.55    8.36
   0   1   8  148.00   11.72
   0  -1  -8  127.59    9.16
   0  -1  -8  135.90    9.51
   0   1   8  135.96    9.69
   0   1   9  451.03   13.60
   0  -1  -9  386.42   10.35
   0  -1  -9  437.38   11.15
   0   1   9  436.47   12.50
   0   1  10  220.59   11.60
   0  -1 -10  212.31    8.72
   0   1  10  221.42   10.55
   0   1  11  124.68   11.49
   0   1  11  119.28    9.08
   0   1  12  113.11   10.89
   0   1  12  118.32    9.33
   0   1  13  134.50   11.56
   0   1  13  114.47    8.66
   0  -2  12   47.37   10.01
   0  -2  12   44.87   10.27
   0  -2  11   60.69   10.37
   0  -2  11   64.83    9.61
   0  -2  10  115.66    8.74
   0  -2  10   93.86    7.32
   0  -2   9  277.81   14.91
   0  -2   9  264.85   12.64
   0  -2   8  147.14   14.16
   0  -2   8  141.78   13.23
   0  -2   7  730.76   24.07
   0  -2   7  721.03   23.31
   0  -2   6 1594.65   37.31
   0  -2   6 1560.45   36.22
   0  -2   5  358.52   12.76
   0  -2   5  381.67   13.20
   0   2  -5  333.78   11.23
   0   2  -4  260.36    7.98
   0   2  -4  291.74    7.24
   0  -2   4  265.51    6.58
   0  -2   4  279.82    8.47
   0   2  -4  263.09    7.53
   0  -2   3 1130.99   21.12
   0   2  -3 1226.13   11.38
   0  -2   3 1208.04   21.48
   0  -2   3 1232.42   13.50
   0   2  -3 1237.82   13.14
   0   2  -2  212.88    6.06
   0  -2   2  202.28    5.54
   0   2  -2  211.30    5.44
   0  -2   2  198.99    4.91
   0   2  -1  798.96    8.93
   0  -2   1  756.38   19.18
   0   2  -1  795.93    7.96
   0  -2   1  800.82    8.06
   0  -2   1  774.52    8.13
   0  -2   0  197.46    4.99
   0  -2   0  190.36    4.90
   0  -2   0  200.36    5.22
   0   2   0  221.85    5.70
   0  -2   0  199.65    5.10
   0  -2  -1 2348.26   21.24
   0  -2  -1 2366.04   22.02
   0  -2  -1 2338.69   21.92
   0   2   1 2308.34   21.66
   0  -2  -1 2311.97   21.53
   0   2   2  305.66    7.38
   0   2   2  315.38    8.05
   0  -2  -2  254.79    6.47
   0   2   3  673.75   15.86
   0  -2  -3  695.11   16.66
   0   2   3  661.27   15.84
   0   2   3  656.07   15.72
   0  -2  -3  655.83   15.68
   0   2   4 1494.58   15.38
   0  -2  -4 1492.85   15.05
   0  -2  -4 1545.14   15.85
   0   2   4 1504.96   15.27
   0   2   4 1495.70   15.60
   0  -2  -4 1447.62   15.08
   0   2   5 2461.95   44.35
   0   2   5 2502.48   45.21
   0  -2  -5 2489.44   44.83
   0   2   5 2513.24   45.04
   0   2   5 2536.22   45.98
   0  -2  -5 2451.24   44.39
   0   2   6 1723.06   41.48
   0   2   6 1862.92   45.21
   0   2   6 1828.76   44.34
   0   2   7  350.01   15.31
   0  -2  -7  335.98   14.06
   0  -2  -7  361.53   15.57
   0   2   7  341.76   14.96
   0   2   8  486.68   23.63
   0  -2  -8  450.70   21.22
   0  -2  -8  502.54   32.55
   0   2   8  514.84   14.04
   0   2   9  453.12   16.08
   0  -2  -9  371.78   13.15
   0  -2  -9  455.67   14.93
   0   2   9  415.87   14.35
   0   2  10  375.16   14.83
   0  -2 -10  297.53   19.19
   0  -2 -10  379.50   13.43
   0   2  10  383.76   14.43
   0   2  11   39.32    5.57
   0  -2 -11   44.92    4.91
   0   2  11   47.77    5.61
   0   2  12  218.37   16.00
   0   2  12  198.85    9.92
   0   2  13   66.61   11.12
   0   2  13   56.00   10.76
   0   2  14   41.11    9.39
   0   2  14   45.26    8.29
   0  -3  11    7.28    4.21
   0  -3  11    7.52    2.97
   0  -3  10  130.10   13.88
   0  -3  10  137.10   13.32
   0  -3   9   94.50    9.36
   0  -3   9   94.99    7.53
   0  -3   8   89.84    7.31
   0  -3   8  115.12    7.74
   0  -3   7  160.61   16.12
   0  -3   7  157.95   14.99
   0  -3   6  521.32   16.98
   0  -3   6  481.83   14.78
   0  -3   5  688.97   17.80
   0  -3   5  665.75   16.93
   0   3  -4  694.97   22.43
   0  -3   4  668.09   20.40
   0  -3   4  682.17   20.84
   0  -3   4  704.86   22.60
   0  -3   3  365.18    9.19
   0  -3   3  382.59    9.93
   0  -3   3  381.00   10.83
   0   3  -2  347.77   10.39
   0  -3   2  328.95    8.40
   0  -3   2  340.58    8.83
   0  -3   2  324.29    9.26
   0  -3   2  332.89    9.21
   0   3  -1  339.95    9.48
   0  -3   1  337.05    8.55
   0  -3   1  344.44    8.81
   0  -3   1  330.39    8.78
   0  -3   1  341.02    8.54
   0   3   0   10.28    1.29
   0  -3   0   13.75    1.23
   0  -3   0   13.62    1.92
   0  -3   0   13.54    1.87
   0  -3   0   14.24    2.41
   0   3   1  154.96    4.11
   0  -3  -1  144.49    3.86
   0  -3  -1  145.13    5.20
   0  -3  -1  156.67    5.63
   0   3   1  147.59    4.55
   0  -3  -1  141.86    4.10
   0   3   2 2793.76   25.44
   0  -3  -2 2678.28   24.41
   0  -3  -2 2739.54   25.97
   0  -3  -2 2754.59   26.55
   0   3   2 2681.99   25.59
   0  -3  -2 2644.69   25.11
   0   3   3  644.04   15.09
   0  -3  -3  594.65   13.93
   0  -3  -3  629.01   15.36
   0   3   3  647.01   15.73
   0   3   3  539.72   13.27
   0   3   4 1824.40   17.84
   0  -3  -4 1773.15   17.23
   0   3   4 1818.17   18.62
   0  -3  -4 1779.50   18.15
   0   3   5 2829.95   50.77
   0  -3  -5 2722.56   48.74
   0  -3  -5 2867.49   51.71
   0   3   5 2713.64   48.90
   0   3   5 2777.98   50.25
   0   3   6 1052.43   25.99
   0  -3  -6 1083.50   26.78
   0   3   6 1078.98   26.86
   0   3   7  373.49   16.26
   0  -3  -7  370.14   15.48
   0  -3  -7  383.93   16.63
   0   3   7  371.08   16.34
   0   3   8  453.80   22.34
   0  -3  -8  401.09   19.35
   0  -3  -8  460.49   22.41
   0   3   8  439.91   21.42
   0   3   9  599.69   20.08
   0  -3  -9  589.37   19.26
   0   3   9  628.51   20.83
   0   3  10   15.25    5.21
   0  -3 -10   17.30    3.97
   0   3  10   20.28    3.53
   0   3  11   30.26    6.47
   0  -3 -11   12.65    2.39
   0   3  12  417.05   21.28
   0  -3 -12  370.79   17.83
   0   3  12  412.43   20.35
   0   3  13  106.33   11.41
   0   3  13  112.88   11.09
   0   3  14   44.21   10.33
   0   3  14   51.99    7.38
   0  -4  11   15.85    6.26
   0  -4  11    8.96    3.10
   0  -4  10   23.76    6.86
   0  -4  10   18.51    4.22
   0  -4   9   41.72    5.70
   0  -4   9   42.95    4.38
   0  -4   8  172.37    9.58
   0  -4   8  161.57    7.05
   0  -4   7  244.73   12.15
   0  -4   7  239.76   10.97
   0  -4   6   13.99    4.40
   0  -4   6   13.52    4.70
   0  -4   5   34.37    4.69
   0  -4   5   28.19    2.09
   0  -4   5   26.36    3.05
   0  -4   5   35.81    4.63
   0   4  -4  711.39   17.77
   0  -4   4  682.30   15.48
   0  -4   4  723.68   16.50
   0  -4   4  613.36   15.61
   0   4  -3  373.38   14.11
   0  -4   3  378.77   11.95
   0  -4   3  396.63   12.66
   0  -4   3  349.91   11.71
   0  -4   3  386.89   13.15
   0   4  -2 2015.96   48.74
   0  -4   2 1836.61   44.29
   0  -4   2 1921.20   46.01
   0  -4   2 2005.89   47.86
   0  -4   2 1851.28   44.46
   0  -4   2 1948.92   47.04
   0   4  -1  508.72   14.13
   0  -4   1  485.18   12.61
   0  -4   1  495.60   12.79
   0  -4   1  480.79   12.51
   0  -4   1  469.24   12.24
   0   4   0  804.87   11.55
   0  -4   0  820.75    9.18
   0  -4   0  807.67    9.11
   0  -4   0  812.88    9.73
   0   4   0  836.64   10.90
   0  -4   0  786.90    9.23
   0   4   1  706.57   16.67
   0  -4  -1  699.78   16.39
   0  -4  -1  702.58   17.06
   0   4   2 1569.11   14.97
   0  -4  -2 1550.29   14.78
   0  -4  -2 1554.11   15.94
   0  -4  -2 1580.23   16.89
   0  -4  -2 1558.23   16.04
   0   4   3  741.38   17.21
   0  -4  -3  732.10   17.01
   0  -4  -3  710.51   17.56
   0  -4  -3  735.18   17.61
   0   4   4   64.62    2.91
   0  -4  -4   60.60    2.63
   0   4   4   50.11    2.89
   0  -4  -4   47.05    2.40
   0   4   5  461.59   11.97
   0  -4  -5  449.52   11.63
   0  -4  -5  439.50   11.75
   0   4   5  452.33   12.31
   0  -4  -5  410.33   11.15
   0   4   6  726.71   22.89
   0  -4  -6  719.24   22.55
   0  -4  -6  697.88   22.04
   0  -4  -6  715.89   23.31
   0   4   6  709.58   22.75
   0   4   7  548.96   23.02
   0  -4  -7  523.26   22.42
   0   4   7  574.25   24.27
   0   4   8  149.21    8.81
   0  -4  -8  146.64    9.37
   0   4   8  145.46    8.80
   0   4   9   44.50    6.05
   0  -4  -9   53.40    6.10
   0   4   9   43.15    4.81
   0   4  10   48.20    6.24
   0  -4 -10   54.84    7.14
   0   4  10   68.42    8.61
   0   4  11  191.36   10.28
   0  -4 -11  176.19    9.04
   0   4  11  198.27   10.38
   0   4  12   50.68    8.61
   0  -4 -12   39.63    6.50
   0   4  12   46.71    7.66
   0   4  13  109.71   11.58
   0  -4 -13   94.55    9.54
   0   4  13  101.05   10.51
   0   4  14   63.67   10.43
   0   4  14   46.46    7.94
   0  -5  10   11.42    4.59
   0  -5  10    9.35    3.22
   0  -5   9   48.30    7.87
   0  -5   9   40.96    6.39
   0  -5   8  102.95    9.07
   0  -5   8  114.80    7.06
   0  -5   7  248.87   10.29
   0  -5   7  276.57   14.30
   0  -5   6   27.62    5.71
   0  -5   6   14.00    3.34
   0  -5   5  128.27   12.82
   0  -5   5  115.98   10.46
   0  -5   5  124.01   11.29
   0  -5   5  115.74   11.53
   0   5  -4  167.13   11.78
   0  -5   4  144.50    9.51
   0  -5   4  148.33    9.90
   0  -5   4  142.16   10.41
   0   5  -3   40.57    6.57
   0  -5   3   47.27    2.93
   0  -5   3   40.02    3.24
   0  -5   3   38.01    3.98
   0   5  -2  110.66    8.90
   0  -5   2  118.95    9.17
   0  -5   2  126.62    7.52
   0  -5   2  113.35    9.55
   0  -5   2  118.82    7.49
   0   5  -1  983.06   24.52
   0  -5   1  938.48   23.15
   0  -5   1  941.72   23.03
   0  -5   1  984.92   24.42
   0   5   0  942.90   23.18
   0  -5   0  920.85   22.59
   0  -5   0  892.21   21.98
   0  -5   0  953.39   23.79
   0   5   0  934.26   23.48
   0  -5   0  922.49   22.79
   0   5   1  738.34   15.44
   0  -5  -1  725.61   13.78
   0  -5  -1  694.62   13.78
   0  -5  -1  717.09   14.52
   0   5   1  742.39   14.80
   0  -5  -1  696.34   13.63
   0   5   2  824.58   15.29
   0  -5  -2  799.48   14.82
   0  -5  -2  847.94   17.19
   0   5   3  979.28   17.85
   0  -5  -3  948.79   17.34
   0  -5  -3 1004.61   19.82
   0   5   4  322.14    8.40
   0  -5  -4  306.48    8.02
   0   5   4  289.21    8.60
   0   5   5  690.41   21.52
   0  -5  -5  655.29   20.36
   0   5   5  597.76   19.41
   0   5   6 1709.08   44.88
   0  -5  -6 1649.61   43.25
   0  -5  -6 1731.11   46.37
   0   5   6 1766.13   47.09
   0   5   7   40.23    4.32
   0  -5  -7   38.93    3.11
   0  -5  -7   42.53    4.41
   0   5   7   33.15    3.12
   0   5   8   72.83    6.30
   0  -5  -8   79.23    7.88
   0   5   8   84.15    6.72
   0   5   9   10.66    2.97
   0  -5  -9    4.29    3.57
   0   5   9   13.58    3.22
   0   5  10  188.98   13.55
   0  -5 -10  192.30   13.93
   0   5  10  172.80   15.88
   0   5  11  145.57    9.71
   0  -5 -11  123.60    8.93
   0   5  11  143.44    9.61
   0   5  12   67.67    6.88
   0  -5 -12   59.55    6.26
   0   5  12   76.69    6.71
   0   5  13   59.24   10.95
   0  -5 -13   50.22    9.23
   0   5  13   62.56    5.32
   0   5  14  113.38   12.24
   0   5  14  104.80   10.77
   0  -6   9   14.86    5.74
   0  -6   9   33.31    6.59
   0  -6   8   45.38    6.60
   0  -6   7   64.70    7.84
   0  -6   7   53.25    8.55
   0  -6   6  240.98   10.76
   0  -6   6  268.75   14.26
   0  -6   5   76.46    6.78
   0  -6   5   59.61    6.58
   0  -6   5   62.05    7.75
   0   6  -4   31.91    6.14
   0  -6   4   21.30    3.34
   0  -6   4   27.82    4.63
   0  -6   4   28.12    5.72
   0   6  -3  198.57   16.26
   0  -6   3  166.41   10.09
   0  -6   3  188.27   11.74
   0  -6   3  190.61   12.67
   0   6  -2  131.24   12.44
   0  -6   2   89.89    7.95
   0  -6   2  101.43    7.45
   0  -6   2  109.10    8.41
   0   6  -1  689.21   17.52
   0  -6   1  660.98   15.74
   0  -6   1  696.48   17.09
   0   6   0  169.77   12.62
   0  -6   0  154.14    8.75
   0  -6   0  141.36    8.15
   0  -6   0  150.50    9.19
   0   6   0  174.52   12.08
   0   6   1  110.03    6.97
   0  -6  -1  103.81    5.90
   0  -6  -1   95.51    6.32
   0   6   1  115.90    8.98
   0   6   2  528.69   17.18
   0  -6  -2  515.39   16.20
   0  -6  -2  539.87   18.00
   0   6   2  512.50   17.22
   0   6   3  218.16   11.51
   0  -6  -3  197.61   10.44
   0  -6  -3  216.59   12.53
   0   6   3  206.60   15.03
   0   6   4  253.88   13.29
   0  -6  -4  242.29   12.72
   0  -6  -4  239.91   13.56
   0   6   5   19.57    1.88
   0  -6  -5   13.08    1.56
   0  -6  -5   16.83    4.20
   0   6   5   19.01    2.91
   0   6   6  938.16   25.05
   0  -6  -6  867.43   23.15
   0  -6  -6  943.54   26.92
   0   6   6  831.63   23.35
   0   6   7  321.05   15.51
   0  -6  -7  295.20   14.18
   0  -6  -7  337.95   17.70
   0   6   7  310.17   15.51
   0   6   8  391.42   18.94
   0  -6  -8  354.04   16.98
   0  -6  -8  391.81   14.82
   0   6   8  402.20   32.81
   0   6   9  216.83   13.05
   0  -6  -9  224.45   14.59
   0   6   9  193.98   12.20
   0   6  10  715.85   26.72
   0  -6 -10  695.89   26.67
   0   6  10  732.95   27.76
   0   6  11  407.54   19.92
   0  -6 -11  393.96   19.86
   0   6  11  408.01   20.41
   0   6  12  103.13    6.41
   0  -6 -12  111.60    7.78
   0   6  12  115.95    7.44
   0   6  13   14.72    4.69
   0  -6 -13   27.69    6.74
   0   6  13   14.50    3.83
   0   6  14   62.11   10.73
   0  -6 -14   61.19   10.32
   0   6  14   82.16   12.19
   0  -7   8   49.24    9.10
   0  -7   8   51.59    8.73
   0  -7   7   65.18   10.50
   0  -7   7   69.92   10.84
   0  -7   6   93.54   11.41
   0  -7   6   98.10   11.41
   0  -7   5   15.32    4.52
   0  -7   5   17.32    3.46
   0  -7   4  124.95    9.02
   0  -7   4  119.51   10.66
   0  -7   4  131.62    8.87
   0   7  -3  482.14   17.48
   0  -7   3  368.03   12.52
   0  -7   3  445.66   15.73
   0  -7   3  444.85   16.31
   0   7  -2  280.92   16.93
   0  -7   2  275.36   16.27
   0  -7   2  271.22   16.38
   0   7  -1  209.21   18.56
   0  -7   1  211.10   17.61
   0   7   0  656.71   18.91
   0  -7   0  659.25   19.08
   0   7   0  713.38   20.49
   0   7   1  121.04   10.66
   0  -7  -1  113.67    6.36
   0  -7  -1  101.79    6.98
   0   7   1  125.83    8.95
   0   7   2   96.54    8.01
   0  -7  -2   71.54    4.34
   0  -7  -2   86.38    6.27
   0   7   2   84.57    8.18
   0   7   3  247.36   12.27
   0  -7  -3  222.40   10.68
   0  -7  -3  247.98   13.44
   0   7   3  244.48   17.28
   0   7   4  513.54   12.07
   0  -7  -4  479.25   22.39
   0  -7  -4  524.73   14.55
   0   7   4  476.29   23.03
   0   7   5 1014.67   22.96
   0  -7  -5  942.86   21.37
   0  -7  -5  996.47   24.48
   0   7   6  174.30   11.54
   0  -7  -6  169.10   11.15
   0  -7  -6  197.21   14.86
   0   7   6  167.55   11.77
   0   7   7  361.12   17.23
   0  -7  -7  322.06   15.41
   0  -7  -7  361.00   18.64
   0   7   7  330.57   16.57
   0   7   8   76.38    6.85
   0  -7  -8   73.97    6.49
   0  -7  -8   77.53    8.93
   0   7   8   84.62    8.49
   0   7   9  575.73   19.59
   0  -7  -9  589.37   21.36
   0   7   9  595.25   21.19
   0   7  10  811.51   29.87
   0  -7 -10  793.25   30.24
   0   7  10  834.99   31.47
   0   7  11  462.51   22.22
   0  -7 -11  447.54   22.37
   0   7  11  482.91   23.78
   0   7  12  155.06    8.27
   0  -7 -12  157.74    9.34
   0   7  12  150.09    8.13
   0   7  13   65.51    9.86
   0  -7 -13   93.01   10.28
   0   7  13   79.35   15.17
   0   7  14   21.11    6.18
   0  -7 -14   10.86    4.19
   0  -8   7   40.44    8.37
   0  -8   7   41.31    7.82
   0  -8   6   34.90    7.32
   0  -8   6   32.16    6.73
   0  -8   5   64.48    7.68
   0  -8   5   70.83    8.84
   0  -8   4  110.29    9.12
   0  -8   4  104.26    7.62
   0  -8   4  117.14    9.11
   0   8  -3  288.26   13.87
   0  -8   3  285.56   12.98
   0  -8   3  275.05   13.43
   0   8  -2  356.78   21.23
   0  -8   2  353.32   13.89
   0  -8   2  360.56   14.98
   0   8  -1  384.06   13.85
   0  -8   1  358.36   13.18
   0   8   0  880.79   21.92
   0  -8   0  832.81   21.50
   0   8   0  902.44   23.49
   0   8   1  440.83   15.50
   0  -8  -1  398.41   12.89
   0  -8  -1  443.41   15.44
   0   8   1  410.31   14.51
   0   8   2   23.26    3.42
   0  -8  -2   18.05    2.01
   0  -8  -2   24.45    4.17
   0   8   2   23.46    4.16
   0   8   3  128.90   10.21
   0  -8  -3  108.80    7.37
   0  -8  -3  148.66   11.02
   0   8   3  130.59   12.18
   0   8   4 1182.84   32.11
   0  -8  -4 1190.87   33.59
   0   8   4 1164.75   34.77
   0   8   5 1252.69   37.70
   0  -8  -5 1121.19   33.78
   0  -8  -5 1218.64   38.40
   0   8   5 1251.45   38.89
   0   8   6   12.75    1.68
   0  -8  -6   10.92    1.60
   0  -8  -6   10.26    3.89
   0   8   7  251.50   14.38
   0  -8  -7  225.39   12.90
   0  -8  -7  258.66   16.37
   0   8   7  255.83   15.60
   0   8   8  105.49    9.59
   0  -8  -8   81.39    7.50
   0  -8  -8   88.51    9.39
   0   8   8   95.52    9.53
   0   8   9  311.39   12.08
   0  -8  -9  311.54   14.57
   0   8   9  315.37   13.46
   0   8  10  173.64    6.56
   0  -8 -10  196.82   10.48
   0   8  10  171.41    7.94
   0   8  11  153.34    6.53
   0  -8 -11  143.01    9.23
   0   8  11  153.09    7.90
   0   8  12  165.96   12.09
   0  -8 -12  160.38   12.70
   0   8  12  193.44    9.56
   0   8  13   71.00   11.05
   0  -8 -13   77.71   10.32
   0   8  13   66.76   10.64
   0   8  14  128.78   10.40
   0  -8 -14  123.54   11.22
   0   8  14  146.04   12.10
   0  -9   6   32.91    7.32
   0  -9   6   22.99    6.07
   0  -9   5   26.17    6.13
   0  -9   4  178.58   12.56
   0  -9   4  165.46   12.13
   0  -9   3   87.24    7.46
   0  -9   3   81.95    6.42
   0  -9   3   72.56    6.38
   0   9  -2  134.94    6.70
   0  -9   2  122.37    9.11
   0  -9   2  129.97   18.89
   0   9  -1  258.77   14.49
   0  -9   1  261.67   12.73
   0   9   0  189.24   12.88
   0  -9   0  177.43    8.49
   0   9   0  219.27   10.03
   0   9   1  342.01   13.80
   0  -9  -1  332.01   13.36
   0   9   1  348.02   21.90
   0   9   2  167.10   18.18
   0  -9  -2  152.07   13.52
   0  -9  -2  186.07   13.80
   0   9   2  200.23   16.53
   0   9   3  447.37   13.40
   0  -9  -3  401.36   10.26
   0  -9  -3  444.20   14.18
   0   9   3  451.32   13.92
   0   9   4  822.66   19.83
   0  -9  -4  727.17   17.41
   0  -9  -4  830.14   22.54
   0   9   4  791.34   22.29
   0   9   5  283.02   17.41
   0  -9  -5  263.55   14.96
   0  -9  -5  285.42   18.19
   0   9   5  292.18   23.09
   0   9   6  994.94   32.15
   0  -9  -6  871.48   28.18
   0  -9  -6  993.94   34.70
   0   9   6  951.84   33.02
   0   9   7   28.77    3.45
   0  -9  -7   16.39    2.16
   0  -9  -7   22.92    4.88
   0   9   8   90.86    5.15
   0   9   8   90.09   10.03
   0   9   9  125.80    7.62
   0  -9  -9  119.59   10.11
   0   9   9  134.93    9.55
   0   9  10  154.58    6.13
   0  -9 -10  151.98    8.65
   0   9  10  157.12    7.61
   0   9  11   93.71   10.12
   0  -9 -11   75.84   10.07
   0   9  11  121.72    9.89
   0  -9 -12   74.86    7.07
   0   9  12   63.51    5.37
   0  -9 -13  103.83   12.89
   0   9  13  104.89   12.49
   0 -10   4   59.26   10.40
   0 -10   4   39.87    7.96
   0 -10   3   29.12    6.03
   0 -10   3   11.83    3.19
   0 -10   2   34.74    6.72
   0 -10   2   16.69    3.99
   0 -10   2   20.09    5.33
   0  10  -1   79.38    6.55
   0 -10   1   71.30    6.47
   0 -10   1   61.62    5.68
   0  10   0   79.69   14.66
   0 -10   0  106.86    8.50
   0  10   1  275.78   13.90
   0 -10  -1  257.46   31.55
   0  10   1  280.26   22.22
   0  10   2  241.92   13.49
   0 -10  -2  231.78   12.28
   0  10   2  263.62   14.28
   0  10   3   77.29   11.04
   0 -10  -3   94.86    8.34
   0  10   3   96.49   11.40
   0  10   4  142.34    9.85
   0 -10  -4  141.95    9.88
   0  10   4  168.88   14.94
   0  10   5  978.61   36.71
   0 -10  -5  948.52   37.27
   0  10   5 1011.22   89.69
   0  10   6  840.40   31.59
   0 -10  -6  874.26   35.18
   0  10   6  859.51   35.02
   0  10   7   45.58    4.00
   0 -10  -7   48.73    7.93
   0  10   7   49.38    7.24
   0 -10  -8  186.25    9.06
   0 -10  -9  279.60   16.45
   0  10   9  293.97   16.53
   0 -10 -10  141.46   12.76
   0  10  10  141.29   11.29
   0 -10 -11  101.70   11.40
   0  10  11   88.02   14.97
   0 -10 -12  116.01   10.35
   0  10  12  126.20    9.80
   0 -10 -13   53.91    9.26
   0  10  13   74.33   10.59
   0 -11   3   31.46    6.55
   0 -11   3   38.59    7.93
   0 -11   2   15.95    5.23
   0 -11   2   12.04    4.79
   0 -11   1   72.64   10.98
   0 -11   1   80.22   15.28
   0 -11   1   62.76    9.79
   0 -11   0  188.69   13.02
   0  11   1   25.63    5.59
   0 -11  -1   41.77    5.30
   0  11   1   33.87    6.00
   0  11   2   99.72   11.21
   0 -11  -2  108.66    7.63
   0  11   2  121.62   14.65
   0  11   3  179.16    8.18
   0 -11  -3  174.81    9.97
   0  11   3  203.20   15.58
   0  11   4   52.80    9.44
   0 -11  -4   74.96    8.03
   0  11   4   79.27   12.12
   0 -11  -5  399.31   22.76
   0  11   5  475.30   33.87
   0 -11  -6  217.84   31.15
   0  11   6  234.63   23.11
   0 -11  -7  128.63    8.68
   0  11   7  145.66   13.49
   0 -11  -8   91.73    8.18
   0  11   8  101.88   10.86
   0 -11  -9  380.50   17.21
   0 -11 -10  112.69   12.93
   0  11  10  104.49   15.60
   0 -11 -11  185.19   14.58
   0  11  11  195.44   20.47
   0 -11 -12  116.41   24.64
   0  11  12  123.19   23.39
   0 -12   1   37.52    7.40
   0 -12   0  146.52   15.04
   0 -12  -1   53.45    9.54
   0 -12  -2   57.01    9.62
   0  12   2   39.06   10.86
   0 -12  -3   34.33    7.62
   0  12   3   39.19    8.44
   0 -12  -4   33.92    8.40
   0  12   4   22.00    6.71
   0 -12  -5  248.25   17.47
   0  12   5  206.08   24.93
   0 -12  -6   80.15    7.81
   0  12   6   91.32   11.97
   0 -12  -7   12.22    4.34
   0  12   7   11.78    3.80
   0 -12  -8  107.34   11.66
   0  12   8   86.33   11.01
   0 -12  -9   43.45    8.28
   0  12   9   69.72   12.79
   0  12  10  117.91   19.83
   0 -12 -11  251.65   20.51
   0  12  11  256.70   33.34
   0 -13  -2   29.87    6.47
   0  13   2   23.06    5.54
   0 -13  -3   42.27    9.44
   0  13   3   16.08    6.00
   0 -13  -4   58.38   10.71
   0  13   4   46.41   10.92
   0 -13  -5   18.48    6.39
   0  13   5   15.33    4.89
   0 -13  -6   20.30    6.54
   0  13   6   20.57    6.28
   0 -13  -7   50.76    9.98
   0  13   7   48.50   10.75
   0 -13  -8   24.65    7.85
   0  13   8   30.77    8.07
   0 -13  -9   22.13    6.74
   0  13   9   26.20    7.37
   1 -13  -7   91.06    8.75
  -1  13   7   70.90   16.43
   1 -13  -6   29.42    6.89
  -1  13   6   29.95    6.65
   1 -13  -5   49.30    7.95
  -1  13   5   29.47    7.72
   1 -13  -4  106.00   10.40
  -1  13   4   77.21   17.33
   1 -12 -10  188.55   16.90
  -1  12  10  151.66   19.71
   1 -12  -9   64.82   14.44
   1 -12  -8  129.48   10.97
  -1  12   8  112.33   14.18
   1 -12  -7   39.53    7.59
  -1  12   7   64.00   12.51
   1 -12  -6   46.72    8.09
  -1  12   6   48.75    8.39
   1 -12  -5  404.84   25.17
  -1  12   5  432.67   83.34
   1 -12  -4  214.12   15.18
  -1  12   4  223.56   23.36
   1 -12  -3   42.84    8.41
  -1  12   3   30.52    9.16
   1 -12  -2   66.76   11.54
  -1  12   2   39.78   10.01
   1 -12  -1  110.94   11.88
   1 -12   0   38.19    7.59
   1 -12   0   38.05    7.97
   1 -11 -11  105.98   13.00
  -1  11  11  108.26   17.09
   1 -11 -10   74.69   19.02
  -1  11  10   54.56    9.92
   1 -11  -9  168.69   12.24
  -1  11   9  154.27   18.09
   1 -11  -8  173.44   13.11
   1 -11  -7   47.92    6.67
  -1  11   7   63.02    9.19
   1 -11  -6   72.35   10.02
  -1  11   6   67.85   10.43
   1 -11  -5  300.25   16.69
  -1  11   5  313.81   23.94
  -1  11   4  330.22   16.26
   1 -11  -4  420.34   21.48
  -1  11   4  472.98   23.25
  -1  11   3  299.11   13.38
   1 -11  -3  332.18   14.89
  -1  11   3  320.15   23.93
  -1  11   2   84.39   13.82
   1 -11  -2  122.08   10.28
  -1  11   2   98.28   16.79
  -1  11   1   56.18   14.27
   1 -11  -1  108.11   11.40
  -1  11   0   24.34    7.05
   1 -11   0   58.31    9.33
  -1  11  -1   36.54    9.53
   1 -11   1   66.43   10.91
   1 -11   1   74.51   17.97
  -1  11  -2   57.89    8.43
   1 -11   2   53.77    8.17
   1 -10 -12   81.43   12.80
  -1  10  12   62.11   15.37
   1 -10 -11   74.24   11.59
  -1  10  11   59.03   11.38
   1 -10 -10   95.14   11.85
  -1  10  10  101.71   14.70
  -1  10   9  155.53   18.09
  -1  10   8  285.96   13.65
   1 -10  -8  294.36   16.92
  -1  10   8  263.69   28.07
  -1  10   7    8.36    1.76
   1 -10  -7    9.48    4.68
  -1  10   6   39.64    4.05
   1 -10  -6   51.47    8.20
  -1  10   6   40.44    7.77
  -1  10   5  228.13   12.95
   1 -10  -5  257.93   31.70
  -1  10   5  270.35   23.12
  -1  10   4  297.10   14.63
   1 -10  -4  304.30   16.19
  -1  10   4  310.97   16.85
  -1  10   3  383.45   20.48
   1 -10  -3  372.07   19.09
  -1  10   3  410.50   25.64
  -1  10   2  161.72   16.86
   1 -10  -2  175.15    8.18
  -1  10   2  198.74   17.21
  -1  10   1  224.14   16.55
   1 -10  -1  240.93   14.22
  -1  10   1  246.90   19.71
  -1  10   0  130.73   16.38
   1 -10   0  152.66    8.38
  -1  10  -1   76.87   16.17
   1 -10   1  106.56    8.33
   1 -10   1  101.57   11.96
  -1  10  -2  101.61   17.19
   1 -10   2  146.37    9.99
   1 -10   2  156.10   11.31
  -1  10  -3   34.40    6.19
   1 -10   3   37.25    6.72
   1 -10   4   55.12    8.31
   1 -10   4   46.54    9.39
   1  -9 -13  136.01   12.01
  -1   9  13  134.77   11.29
  -1   9  12   14.87    3.35
   1  -9 -12   15.01    5.58
  -1   9  12   13.71    3.77
  -1   9  11  138.18   12.97
   1  -9 -11  124.96   13.41
  -1   9  11  118.39   11.70
  -1   9  10  143.73    6.96
   1  -9 -10  141.69    9.35
  -1   9  10  158.03   16.35
  -1   9   9  280.49   14.96
   1  -9  -9  278.16   16.99
  -1   9   9  292.26   31.95
  -1   9   8  145.93   10.21
   1  -9  -8  156.17   20.31
  -1   9   8  156.94   24.21
  -1   9   7   98.01    6.11
   1  -9  -7  104.96    9.81
  -1   9   7  125.93   14.35
  -1   9   6  392.44   14.73
   1  -9  -6  346.53   15.16
  -1   9   5  132.39    7.44
   1  -9  -5  108.46    6.17
   1  -9  -5  128.16   10.25
  -1   9   5  127.96   10.85
  -1   9   4  282.73   21.76
   1  -9  -4  227.83   14.92
   1  -9  -4  287.67   20.25
  -1   9   4  298.10   20.20
  -1   9   3  244.34   17.71
   1  -9  -3  242.96   17.48
  -1   9   3  248.09   17.26
  -1   9   2  184.96    9.80
   1  -9  -2  166.15   14.45
  -1   9   2  190.44   10.02
  -1   9   1   95.09   11.39
   1  -9  -1   85.39    6.91
  -1   9   1   97.01   13.21
  -1   9   0  152.63   16.61
   1  -9   0  175.41    9.35
  -1   9  -1  379.51   23.95
   1  -9   1  371.46   18.35
  -1   9  -2  126.65   17.60
   1  -9   2  156.74   13.14
   1  -9   2  147.07    8.82
  -1   9  -3  179.61   13.95
   1  -9   3  172.89    7.54
   1  -9   3  205.00   10.62
  -1   9  -4  135.90    9.87
   1  -9   4  127.21    9.86
   1  -9   5   35.20    7.13
   1  -9   5   24.70    7.09
  -1   8  13   67.87   10.28
   1  -8 -13   67.98   10.76
  -1   8  13   75.05   11.50
  -1   8  12   75.03   11.15
   1  -8 -12   74.49   11.58
  -1   8  12   77.41   11.46
  -1   8  11   66.50    6.89
   1  -8 -11   62.20    8.06
  -1   8  11   67.21    7.43
  -1   8  10  286.79   15.57
   1  -8 -10  296.23   18.01
  -1   8  10  305.88   17.32
  -1   8   9  675.15   25.87
   1  -8  -9  594.09   28.10
  -1   8   9  633.50   25.36
  -1   8   8  452.99   17.00
   1  -8  -8  406.04   17.55
  -1   8   8  460.56   19.41
  -1   8   7  358.67   12.55
   1  -8  -7  278.53   18.08
   1  -8  -7  328.78   13.55
  -1   8   7  297.46   20.04
  -1   8   6   15.82    2.76
   1  -8  -6   16.78    2.92
   1  -8  -6   24.02    5.74
  -1   8   6   12.43    3.42
  -1   8   5  293.19   16.82
   1  -8  -5  260.45   14.95
   1  -8  -5  284.61   18.01
  -1   8   4 1153.76   35.18
   1  -8  -4  982.28   30.01
   1  -8  -4 1094.68   35.26
  -1   8   4 1094.54   34.46
  -1   8   3  141.42   12.76
   1  -8  -3  121.66   10.18
   1  -8  -3  126.70   11.62
  -1   8   3  128.02   21.65
  -1   8   2  126.40   15.41
   1  -8  -2  118.14   10.75
  -1   8   2  139.00   19.58
  -1   8   1   28.05    5.88
   1  -8  -1   12.34    5.01
  -1   8   1   32.26    6.53
  -1   8   0  210.58   19.37
   1  -8   0  214.64   15.58
  -1   8   0  236.40   20.92
  -1   8  -1  367.18   22.45
   1  -8   1  343.96   13.93
  -1   8  -2  126.33   17.11
   1  -8   2  140.21    9.06
   1  -8   2  122.27    9.10
  -1   8  -3  179.39   11.29
   1  -8   3  188.13    7.18
   1  -8   3  174.23    8.47
  -1   8  -4  111.53   19.70
   1  -8   4  140.23   10.78
   1  -8   5   15.60    5.34
   1  -8   6    8.07    4.23
   1  -8   6   20.68    5.86
   1  -8   7   11.68    4.61
   1  -8   7    8.23    3.47
  -1   7  14   37.17    7.42
   1  -7 -14   33.78    7.10
  -1   7  14   33.11    6.47
  -1   7  13  103.36   12.11
   1  -7 -13  121.80   10.12
  -1   7  13  114.71    9.11
  -1   7  12  126.06   12.47
   1  -7 -12  126.77   13.39
  -1   7  12  128.69   12.77
  -1   7  11   52.42    7.25
   1  -7 -11   71.46    7.71
  -1   7  11   69.05    6.67
  -1   7  10  482.72   23.09
   1  -7 -10  490.71   24.48
  -1   7  10  540.64   26.44
  -1   7   9  443.22   17.07
   1  -7  -9  434.36   18.31
  -1   7   9  458.88   18.44
  -1   7   8  179.48   16.12
   1  -7  -8  168.02   16.63
  -1   7   8  191.20   13.47
  -1   7   7   58.89    5.62
   1  -7  -7   53.10    4.97
   1  -7  -7   63.57    7.96
  -1   7   7   70.79    6.98
  -1   7   6  178.94   12.06
   1  -7  -6  152.15   10.36
   1  -7  -6  188.90   14.19
  -1   7   6  150.47   14.07
  -1   7   5 1167.46   31.65
   1  -7  -5 1053.21   28.53
   1  -7  -5 1170.10   33.27
  -1   7   5 1192.14   35.13
  -1   7   4  260.90   12.65
   1  -7  -4  249.75   12.15
   1  -7  -4  253.93   13.86
  -1   7   3   66.67    4.52
   1  -7  -3   51.40    3.38
   1  -7  -3   62.21    5.53
  -1   7   3   76.68   10.04
  -1   7   2   18.87    2.90
   1  -7  -2    8.31    1.34
   1  -7  -2   21.02    4.34
  -1   7   2   23.54    4.30
  -1   7   1  258.54   15.39
   1  -7  -1  253.30   13.49
  -1   7   1  276.43   18.38
  -1   7   0  137.50   14.61
   1  -7   0  117.42    9.33
  -1   7   0  128.22   15.89
  -1   7  -1  291.40   21.18
   1  -7   1  265.21   16.45
  -1   7  -2  252.46   25.21
   1  -7   2  207.83   12.63
   1  -7   2  213.26   13.63
  -1   7  -3  171.33   14.54
   1  -7   3  158.02   10.49
   1  -7   3  156.85   10.16
  -1   7  -4  202.29   15.71
   1  -7   4  224.34   10.29
   1  -7   4  200.78   10.78
  -1   7  -5   28.61    5.38
   1  -7   5   15.82    5.39
   1  -7   6    9.82    4.04
   1  -7   6   19.17    4.25
   1  -7   7   12.24    4.86
   1  -7   7   15.65    4.69
   1  -7   8   39.78    8.90
   1  -7   8   51.65    7.58
  -1   6  14    1.79    3.38
   1  -6 -14   10.98    3.72
  -1   6  14    6.42    2.87
  -1   6  13  133.44   10.00
   1  -6 -13  132.29    9.87
  -1   6  13  123.31   12.07
  -1   6  12   46.60    6.00
   1  -6 -12   46.72    6.87
  -1   6  12   44.28    9.46
  -1   6  11  256.92   14.77
   1  -6 -11  262.19   15.52
  -1   6  11  295.86   16.75
  -1   6  10  285.19   13.38
   1  -6 -10  306.58   14.65
  -1   6  10  293.30   26.72
  -1   6   9   67.08    8.33
   1  -6  -9   81.81    8.62
  -1   6   9   75.71    7.91
  -1   6   8   13.37    2.88
   1  -6  -8   14.24    4.45
  -1   6   8   11.98    3.09
  -1   6   7   77.76    6.20
   1  -6  -7   65.82    5.09
   1  -6  -7   78.23    7.28
  -1   6   7   83.44    7.13
  -1   6   6   84.71    5.47
   1  -6  -6   67.09    4.21
  -1   6   6   76.15    5.33
  -1   6   5  393.79   18.74
   1  -6  -5  366.82   17.45
   1  -6  -5  393.30   19.77
  -1   6   5  378.57   18.73
  -1   6   4  318.98   13.45
   1  -6  -4  307.09   13.00
   1  -6  -4  336.85   15.22
  -1   6   4  319.66   14.73
  -1   6   3  245.76   10.59
   1  -6  -3  240.76   10.33
   1  -6  -3  251.87   12.23
  -1   6   2  180.84   10.15
   1  -6  -2  170.31    9.55
   1  -6  -2  181.71   11.06
  -1   6   2  192.27   15.14
  -1   6   1  599.85   18.06
   1  -6  -1  558.02   23.03
   1  -6  -1  607.29   17.98
  -1   6   1  613.63   17.51
  -1   6   0  159.17   11.14
   1  -6   0  132.06    7.36
   1  -6   0  151.03    9.37
  -1   6   0  163.39   15.08
  -1   6  -1  192.31   14.57
   1  -6   1  167.82    9.33
   1  -6   1  179.95   10.38
  -1   6  -2  400.70   32.58
   1  -6   2  375.22   18.49
   1  -6   2  397.60   32.14
   1  -6   2  400.66   32.77
  -1   6  -3  305.52   19.60
   1  -6   3  238.95   16.64
   1  -6   3  289.05   17.46
   1  -6   3  289.12   18.32
  -1   6  -4   57.55   10.95
   1  -6   4   54.50    5.95
   1  -6   4   58.38    6.90
   1  -6   4   60.27    8.13
  -1   6  -5  303.01   19.88
   1  -6   5  286.73   12.33
   1  -6   5  322.96   14.52
  -1   6  -6   65.76    6.65
   1  -6   6   72.62    6.91
   1  -6   7   24.65    5.17
   1  -6   7   28.46    4.06
   1  -6   8   24.12    5.73
   1  -6   8   21.97    5.27
   1  -6   9   38.01    8.06
   1  -6   9   31.04    6.44
  -1   5  14   11.48    3.77
  -1   5  13   85.34    9.68
   1  -5 -13   83.69    8.95
  -1   5  13   77.63   11.40
  -1   5  12   50.04    6.98
   1  -5 -12   49.50    6.11
  -1   5  12   51.37    6.03
  -1   5  11   63.05    7.20
   1  -5 -11   67.43    7.68
  -1   5  11   61.15    6.85
  -1   5  10   81.22    6.31
   1  -5 -10   96.00    7.18
  -1   5  10   76.90    5.67
  -1   5   9   17.20    4.93
   1  -5  -9    9.86    4.12
  -1   5   9   12.75    4.35
  -1   5   8  166.31   10.92
   1  -5  -8  186.47   12.92
  -1   5   8  164.31   11.05
  -1   5   7   92.57    6.10
   1  -5  -7  103.45    7.16
  -1   5   7  100.61    6.50
  -1   5   6  461.64   19.37
   1  -5  -6  438.79   18.42
   1  -5  -6  488.35   21.90
  -1   5   6  499.35   21.59
  -1   5   5  461.89   14.95
   1  -5  -5  434.85   14.03
   1  -5  -5  447.91   15.43
  -1   5   5  455.84   15.30
  -1   5   4  569.70   18.01
   1  -5  -4  545.21   17.23
   1  -5  -4  520.49   17.55
  -1   5   4  519.74   17.18
  -1   5   3   71.09    4.31
   1  -5  -3   69.62    4.25
   1  -5  -3   79.75    6.76
  -1   5   3   84.91    9.00
  -1   5   2  978.56   23.91
   1  -5  -2  958.59   23.39
   1  -5  -2  914.74   23.31
  -1   5   1  299.09   10.10
   1  -5  -1  276.76   15.08
   1  -5  -1  282.74    9.47
   1  -5  -1  276.29   15.76
  -1   5   0  871.79   21.76
   1  -5   0  811.68   20.21
   1  -5   0  780.67   19.36
   1  -5   0  818.73   20.90
  -1   5   0  865.87   21.93
  -1   5  -1   47.70    5.73
   1  -5   1   30.50    2.47
   1  -5   1   37.35    4.98
   1  -5   1   26.90    2.60
  -1   5  -2  359.49   15.63
   1  -5   2  347.50   14.69
   1  -5   2  367.35   15.73
   1  -5   2  351.09   15.79
  -1   5  -3  144.09   11.79
   1  -5   3  129.57    8.21
   1  -5   3  135.96    7.78
   1  -5   3  131.01    8.70
  -1   5  -4  136.03   12.71
   1  -5   4  132.41    7.96
   1  -5   4  135.53    9.14
   1  -5   4  142.13   10.07
  -1   5  -5  635.12   17.02
   1  -5   5  663.21   15.41
   1  -5   5  684.89   16.05
   1  -5   5  735.17   19.68
  -1   5  -6   69.32    5.67
   1  -5   6   77.73    7.46
   1  -5   7   33.50    5.43
   1  -5   7   48.13    5.97
   1  -5   8  179.25   10.17
   1  -5   8  160.34   12.15
   1  -5   9   71.99   12.38
   1  -5   9   81.90    8.83
   1  -5  10   43.37    9.37
   1  -5  10   34.47    6.90
  -1   4  14   23.41    6.79
  -1   4  14   34.33    6.55
  -1   4  13   13.80    5.46
   1  -4 -13    8.04    3.37
  -1   4  13    9.89    2.96
  -1   4  12  154.70    9.19
   1  -4 -12  148.29    7.87
  -1   4  12  142.11    7.50
  -1   4  11  317.44   16.77
   1  -4 -11  291.07   14.93
  -1   4  11  290.80   14.80
  -1   4  10   22.50    5.26
   1  -4 -10   17.18    4.93
  -1   4  10   12.45    3.79
  -1   4   9    5.90    3.64
   1  -4  -9    9.91    3.83
  -1   4   9    5.57    4.11
  -1   4   8  360.39   17.90
   1  -4  -8  381.93   19.48
  -1   4   8  353.07   17.45
  -1   4   7  826.99   20.06
   1  -4  -7  851.53   21.21
  -1   4   7  820.11   20.08
  -1   4   6 1009.72   27.34
   1  -4  -6 1023.75   28.29
  -1   4   6 1003.46   27.51
  -1   4   5  540.37   17.39
   1  -4  -5  504.87   16.07
   1  -4  -5  524.71   17.43
  -1   4   5  535.07   17.58
  -1   4   4 2697.02   48.44
   1  -4  -4 2560.72   45.93
   1  -4  -4 2713.84   49.51
  -1   4   4 2613.88   47.49
  -1   4   3  434.09   11.29
   1  -4  -3  417.76   10.83
   1  -4  -3  416.15   11.98
  -1   4   3  373.42   11.31
   1  -4  -3  364.58    9.94
  -1   4   2   56.45    2.70
   1  -4  -2   59.76    2.53
   1  -4  -2   51.67    3.38
  -1   4   2   59.17    3.21
   1  -4  -2   54.55    2.71
  -1   4   1 2020.30   36.48
   1  -4  -1 1932.38   34.84
   1  -4  -1 1982.18   36.33
  -1   4   1 1955.66   35.70
   1  -4  -1 1792.58   32.72
  -1   4   0  901.76   17.42
   1  -4   0  859.56   16.42
   1  -4   0  899.10   17.56
  -1   4  -1  140.25    9.48
   1  -4   1  105.89    4.04
   1  -4   1  118.67    3.92
   1  -4   1  108.33    4.11
   1  -4   1  109.71    8.21
  -1   4  -2   38.21    4.43
   1  -4   2   20.09    1.84
   1  -4   2   22.32    2.33
   1  -4   2   22.66    2.28
   1  -4   2   23.74    3.17
   1  -4   2   22.33    3.26
  -1   4  -3   70.45    8.53
   1  -4   3   54.37    5.06
   1  -4   3   55.41    3.89
   1  -4   3   60.34    5.60
  -1   4  -4  312.68   23.21
   1  -4   4  246.97   11.76
   1  -4   4  269.06   13.97
  -1   4  -5   65.60    9.88
   1  -4   5   52.77    6.29
  -1   4  -6  204.74   12.82
   1  -4   6  181.02   17.45
   1  -4   7  387.72   16.77
   1  -4   7  376.03   15.42
   1  -4   8  324.91   18.86
   1  -4   8  312.67   17.80
   1  -4   9  185.26   10.61
   1  -4   9  160.43   12.04
   1  -4  10   64.57   11.35
   1  -4  10   53.91    8.90
  -1   3  14   53.07    8.46
  -1   3  14   61.54    8.36
  -1   3  13   33.91    6.05
  -1   3  12  303.84   13.82
  -1   3  12  274.77   11.63
  -1   3  11  362.09   18.77
   1  -3 -11  330.47   16.53
  -1   3  11  313.53   15.93
  -1   3  10    0.70    4.98
   1  -3 -10    3.56    2.93
  -1   3  10    8.06    2.64
  -1   3   9  332.29   35.61
   1  -3  -9  357.84   11.43
  -1   3   9  344.76   10.71
  -1   3   8  690.08   20.24
   1  -3  -8  671.46   20.31
  -1   3   8  686.64   19.92
  -1   3   7 1206.14   32.82
   1  -3  -7 1189.02   32.52
  -1   3   7 1214.38   32.94
  -1   3   6   77.71    5.66
   1  -3  -6   71.37    4.91
   1  -3  -6   67.57    5.06
  -1   3   6   74.78    5.10
  -1   3   6   75.69    5.40
  -1   3   5 2207.16   40.28
   1  -3  -5 2055.79   37.37
   1  -3  -5 2157.91   39.74
  -1   3   5 2078.83   38.05
  -1   3   5 2139.63   39.22
  -1   3   4 1930.02   35.02
   1  -3  -4 1845.84   33.42
   1  -3  -4 1937.59   35.68
  -1   3   4 1871.90   34.39
  -1   3   4 1978.75   36.20
  -1   3   3 1620.46   16.30
   1  -3  -3 1535.77   15.34
  -1   3   3 1585.03   16.52
  -1   3   3 1578.47   16.48
  -1   3   2  134.76    4.08
   1  -3  -2  141.28    4.16
   1  -3  -2  134.77    5.13
  -1   3   2  148.56    5.19
  -1   3   2  137.45    9.08
   1  -3  -2  124.64    4.21
  -1   3   1   79.18    3.06
   1  -3  -1   77.04    2.83
   1  -3  -1   80.19    4.41
   1  -3  -1   83.16    8.10
  -1   3   0   78.60    3.11
   1  -3   0   82.75    3.14
  -1   3   0   77.99    3.34
   1  -3   0   77.20    4.97
  -1   3  -1 4721.47   44.10
   1  -3   1 4628.03   42.65
  -1   3  -1 4673.45   42.79
   1  -3   2 1289.90   23.36
   1  -3   2 1332.10   24.21
   1  -3   2 1307.37   24.25
   1  -3   3   24.04    2.46
   1  -3   3   22.12    1.97
   1  -3   3   18.30    2.74
   1  -3   3   24.67    3.64
  -1   3  -4  384.00   17.06
   1  -3   4  343.80   13.92
   1  -3   4  351.82   14.29
   1  -3   4  363.24   16.26
  -1   3  -5  144.38   15.44
   1  -3   5  122.89    8.36
   1  -3   6  248.21   15.80
   1  -3   7  206.11   13.26
   1  -3   8  149.82   10.75
   1  -3   8  153.02   14.66
   1  -3   9  296.14   17.35
   1  -3   9  287.88   16.24
   1  -3  10  284.94   19.79
   1  -3  10  295.69   19.45
   1  -3  11  155.54   14.14
   1  -3  11  124.03    9.40
  -1   2  13  118.14   11.59
  -1   2  13   97.68   11.27
  -1   2  12  127.34   10.68
  -1   2  12  123.83    9.33
  -1   2  11  325.75   17.67
   1  -2 -11  313.90   15.30
  -1   2  11  294.64   14.88
  -1   2  10  323.04   13.81
   1  -2 -10  331.09   13.01
  -1   2  10  337.55   13.84
  -1   2   9  104.64   10.51
   1  -2  -9  109.80   10.92
  -1   2   9  111.93   10.84
  -1   2   8  461.79   14.42
   1  -2  -8  489.06   14.75
  -1   2   8  435.76   12.81
  -1   2   8  510.50   15.55
  -1   2   7  220.72   12.94
   1  -2  -7  216.98   12.93
  -1   2   7  222.19   12.43
  -1   2   7  237.38   13.21
  -1   2   6  152.97    9.37
   1  -2  -6  167.45    9.79
  -1   2   6  164.90    9.12
  -1   2   6  161.74    9.14
   1  -2  -6  163.77    9.09
  -1   2   5 1286.87   24.40
   1  -2  -5 1196.85   22.42
   1  -2  -5 1304.32   24.61
  -1   2   5 1205.96   22.63
   1  -2  -5 1218.75   22.85
  -1   2   4 1104.46   12.50
   1  -2  -4 1082.01   12.03
   1  -2  -4 1126.94   12.65
  -1   2   4 1078.52   12.00
  -1   2   4 1112.01   12.34
   1  -2  -4 1073.24   11.76
  -1   2   3 1534.45   15.54
   1  -2  -3 1553.57   16.21
  -1   2   3 1531.88   15.78
  -1   2   3 1585.47   16.22
  -1   2   2 1686.70   16.50
  -1   2   2 1650.41   16.56
  -1   2   2 1630.49   16.20
   1  -2  -2 1620.25   16.07
   1  -2  -1  240.99    6.28
   1  -2  -1  244.68    6.95
  -1   2   1  238.19    6.43
   1  -2  -1  244.10    6.52
   1  -2   0 2036.08   19.48
   1  -2   0 2036.76   19.73
   1  -2   0 2043.94   19.77
  -1   2  -1 9594.74  229.31
   1  -2   1 9462.34   85.04
   1  -2   1 9440.26   84.30
   1  -2   1 9469.07   85.26
   1  -2   2 4435.69   41.53
   1  -2   2 4486.81   40.52
   1  -2   2 4546.32   42.62
   1  -2   3  107.75   10.07
   1  -2   3  109.70    3.60
   1  -2   3   99.39    2.86
  -1   2  -4 1063.63   26.47
   1  -2   4 1141.23   28.42
  -1   2  -4 1032.86   25.48
  -1   2  -5  733.84   20.66
   1  -2   5  813.51   23.03
  -1   2  -6  494.57   24.37
   1  -2   6  510.59   13.85
   1  -2   7  456.00   15.75
   1  -2   8   28.84    5.47
   1  -2   8   40.31    5.86
   1  -2   9   20.72    6.26
   1  -2   9   11.78    2.77
   1  -2  10  237.14   14.22
   1  -2  10  234.76   12.65
   1  -2  11  132.45   10.79
   1  -2  11  136.79    9.79
   1  -2  12   97.46   22.75
   1  -2  12   49.25    8.45
  -1   1  13   40.00    8.95
  -1   1  13   35.13    6.74
  -1   1  12  106.64   11.43
  -1   1  12   93.30    9.41
  -1   1  11  260.76   16.01
   1  -1 -11  228.02   12.22
  -1   1  11  243.45   13.49
  -1   1  10  495.84   21.00
   1  -1 -10  507.21   19.66
  -1   1  10  479.48   19.20
  -1   1   9   94.08   10.01
   1  -1  -9  110.04   10.60
  -1   1   9   79.15    7.51
  -1   1   9  100.22   10.00
  -1   1   8  309.73   16.33
   1  -1  -8  330.48   16.30
  -1   1   8  303.45   14.67
  -1   1   8  333.29   16.43
  -1   1   7   47.27    5.42
   1  -1  -7   53.87    4.16
  -1   1   7   51.24    3.55
  -1   1   7   40.36    3.41
  -1   1   6  346.87   12.20
   1  -1  -6  339.46   11.58
  -1   1   6  327.62   10.82
  -1   1   6  330.66   11.32
   1  -1  -6  334.80   11.20
   1  -1  -5  698.14   14.02
  -1   1   5  658.30   12.85
  -1   1   5  676.69   13.43
   1  -1  -5  665.12   13.23
  -1   1   4 1382.55   14.92
   1  -1  -4 1379.94   14.66
   1  -1  -4 1410.80   14.87
  -1   1   4 1378.05   14.19
   1  -1  -4 1371.25   14.33
  -1   1   3  312.11    8.60
   1  -1  -3  296.38    7.91
   1  -1  -3  302.75    8.01
  -1   1   3  297.45    7.61
   1  -1  -3  300.12    7.65
   1  -1  -2 8285.81   74.19
  -1   1   2 8395.02   75.31
   1  -1  -2 8175.46   73.13
   1  -1  -1  404.72    9.64
   1  -1  -1  348.36    8.71
  -1   1   1  414.95    9.95
   1  -1  -1  410.74    9.75
   1  -1   0 1090.98   10.68
   1  -1   0 1101.50   10.81
  -1   1   0 1079.25   10.76
   1  -1   0 1104.66   10.81
   1  -1   2 7008.11   63.53
   1  -1   2 6955.77   61.73
   1  -1   2 7155.07   64.93
   1  -1   3  817.31    9.60
   1  -1   3  860.67   10.56
  -1   1  -3  828.28    9.69
  -1   1  -4   60.35    3.16
   1  -1   4   58.49    8.18
  -1   1  -4   71.66    3.61
  -1   1  -5 2389.81   57.73
   1  -1   5 2289.03   55.30
  -1   1  -6  743.99   21.09
   1  -1   6  718.10   20.62
   1  -1   7  513.28   16.35
   1  -1   7  410.89   13.11
   1  -1   8  131.97   13.34
   1  -1   8  121.44   11.86
   1  -1   9   18.98    5.84
   1  -1  10   53.96    6.50
   1  -1  11  193.55   10.75
   1  -1  11  202.46    9.54
   1  -1  12   77.57   10.11
   1  -1  12   77.88    9.46
  -1   0  13   66.65   11.04
  -1   0  13   70.01    9.35
  -1   0  12  120.01   13.91
  -1   0  12   78.07   11.25
  -1   0  11   92.20    8.18
  -1   0  11  112.45    6.74
  -1   0  10  124.37    9.17
   1   0 -10  119.67    7.10
  -1   0  10  115.03    7.53
  -1   0   9  516.79   19.00
   1   0  -9  529.65   17.65
  -1   0   9  509.78   16.98
  -1   0   9  566.68   19.74
  -1   0   8  311.90   19.64
   1   0  -8  325.08   19.38
  -1   0   8  321.13   19.05
  -1   0   8  327.66   19.94
  -1   0   7  191.26   11.70
   1   0  -7  188.13   10.24
  -1   0   7  188.97   10.21
  -1   0   7  189.40   10.56
   1   0  -6   76.79    5.01
  -1   0   6   71.34    4.51
  -1   0   6   79.85    5.35
   1   0  -6   68.54    4.58
   1   0  -5 1878.38   34.01
  -1   0   5 1811.27   32.65
   1   0  -5 1841.51   33.61
  -1   0   4 1202.70   13.68
   1   0  -4 1156.49   12.84
   1   0  -4 1156.32   12.15
  -1   0   4 1167.72   12.43
   1   0  -4 1144.34   12.21
   1   0  -3 2459.80   23.84
   1   0  -3 2479.73   23.49
  -1   0   3 2463.41   23.23
   1   0  -3 2434.33   22.94
   1   0  -2 1466.64   14.54
  -1   0   2 1459.67   14.21
  -1   0   2 1441.75   13.70
   1   0  -2 1464.45   13.93
  -1   0   0   -0.07    0.65
   1   0   0   -0.51    0.65
  -1   0   0   -0.17    0.46
  -1   0  -2   19.50    2.42
  -1   0  -2   16.88    0.95
   1   0   2    7.84    1.97
  -1   0  -2   18.70    2.23
  -1   0  -3    2.22    1.09
   1   0   3    1.20    1.35
   1   0   3    2.95    0.48
  -1   0  -3    4.36    0.90
   1   0   3    4.99    2.91
  -1   0  -3    5.91    4.55
  -1   0  -4  663.49   16.24
  -1   0  -4  625.50   14.24
  -1   0  -4  644.02   14.72
   1   0   4  633.60   15.76
  -1   0  -5 1380.85   28.11
  -1   0  -5 1339.63   23.65
  -1   0  -5 1350.33   25.37
  -1   0  -6  711.25   22.95
  -1   0  -6  692.47   20.99
  -1   0  -6  681.92   20.70
   1   0   6  712.51   22.98
   1   0   7  613.07   15.97
  -1   0  -7  552.34   12.14
   1   0   7  648.12   16.60
   1   0   8  359.67   18.40
   1   0   8  353.43   17.73
   1   0   9  144.48   13.92
   1   0   9  132.90   12.73
   1   0  10  236.64   12.60
   1   0  10  220.25   11.60
   1   0  11  177.99   10.80
   1   0  11  161.47    8.38
   1   0  12   28.51    7.67
   1   0  12   18.07    4.59
   1   0  13  131.25   13.97
   1   0  13  115.37   11.62
  -1  -1  12   89.50   11.98
  -1  -1  12   74.39   11.54
  -1  -1  11  113.17   11.17
  -1  -1  11  101.14   10.96
  -1  -1  10   13.64    2.79
  -1  -1   9  447.42   18.81
   1   1  -9  422.24   15.27
  -1  -1   9  432.69   16.80
  -1  -1   8  526.62   15.38
   1   1  -8  521.80   12.62
  -1  -1   8  540.73   13.02
  -1  -1   8  549.41   14.50
  -1  -1   7  197.96   14.70
   1   1  -7  206.42   13.48
  -1  -1   7  207.99   13.60
  -1  -1   7  231.37   11.97
  -1  -1   6  912.39   25.73
   1   1  -6  923.36   24.43
  -1  -1   6  933.15   25.34
   1   1  -6  873.32   23.73
  -1  -1   5 1834.03   44.71
   1   1  -5 1842.54   43.89
  -1  -1   5 1832.88   43.64
  -1  -1   5 1906.52   45.89
   1   1  -5 1828.83   43.98
  -1  -1   4  178.84    5.51
  -1  -1   4  156.46    6.26
   1   1  -4  193.39    5.41
  -1  -1   4  189.72    5.57
  -1  -1   4  187.45    5.68
   1   1  -4  180.51    5.42
  -1  -1   3  416.62   10.80
   1   1  -3  422.50   10.17
  -1  -1   3  432.33   10.44
  -1  -1   3  431.60   10.53
   1   1  -3  431.96   10.57
  -1  -1   2  131.74    5.13
   1   1  -2  125.90    3.89
  -1  -1   2  113.77    3.58
  -1  -1   2  123.07    3.63
   1   1  -2  128.81    3.75
  -1  -1   1 2556.75   23.71
   1   1  -1 2530.48   23.41
   1   1  -1 2503.02   22.98
  -1  -1   1 2479.02   22.77
  -1  -1   1 2534.15   22.67
   1   1  -1 2591.92   23.20
  -1  -1   0 2842.87   25.79
  -1  -1  -1    0.24    0.50
   1   1   1   -0.16    0.72
   1   1   2 4590.68   41.35
  -1  -1  -2 4554.27   41.32
  -1  -1  -3  785.91    8.62
  -1  -1  -3  756.49   18.37
   1   1   3  732.03   17.53
  -1  -1  -4  309.51    8.09
  -1  -1  -4  306.66    7.63
  -1  -1  -4  323.95    7.91
   1   1   4  302.37    8.24
  -1  -1  -4  312.42    8.33
  -1  -1  -5    8.22    1.61
   1   1   5    2.54    1.74
  -1  -1  -5   10.51    1.17
  -1  -1  -5   12.47    1.47
   1   1   5   10.08    4.43
   1   1   6 2307.25   55.67
  -1  -1  -6 2331.78   55.19
  -1  -1  -6 2363.83   56.02
   1   1   7  931.46   25.96
  -1  -1  -7  945.57   25.11
  -1  -1  -7  951.04   25.12
   1   1   7  987.31   27.32
   1   1   8  268.64   14.14
  -1  -1  -8  267.93   12.65
  -1  -1  -8  268.78   12.84
   1   1   8  275.93   14.10
   1   1   9  578.10   16.68
  -1  -1  -9  494.07   11.86
  -1  -1  -9  514.41   12.42
   1   1   9  543.17   15.34
   1   1  10  423.37   17.99
  -1  -1 -10  419.74   15.12
   1   1  10  418.50   17.14
   1   1  11   66.82    8.79
   1   1  11   76.73   10.37
   1   1  12   81.59    9.95
   1   1  12   74.97    8.72
   1   1  13   77.61   11.49
   1   1  13   84.47   10.00
  -1  -2  12   99.71   10.27
  -1  -2  12   98.23    7.84
  -1  -2  11   14.92    5.77
  -1  -2  11   13.24    2.81
  -1  -2  10    9.57    3.91
  -1  -2  10   10.42    3.36
  -1  -2   9  102.18    9.11
  -1  -2   9   92.55    6.34
  -1  -2   8  263.57   18.74
   1   2  -8  284.32   18.08
  -1  -2   8  296.45   19.67
  -1  -2   7  195.13   12.91
   1   2  -7  201.70   11.89
  -1  -2   7  193.80   11.51
  -1  -2   7  214.60   13.56
  -1  -2   6 1272.11   30.21
   1   2  -6 1259.94   28.05
  -1  -2   6 1290.29   29.93
   1   2  -6 1144.53   26.35
  -1  -2   5  276.63   12.98
   1   2  -5  277.07   11.46
  -1  -2   5  272.20   11.39
  -1  -2   5  266.60   11.69
   1   2  -5  268.56   11.69
  -1  -2   4  287.20    8.82
   1   2  -4  275.31    7.16
  -1  -2   4  264.45    7.08
  -1  -2   4  275.44    7.82
   1   2  -4  276.77    7.68
  -1  -2   3  569.79   29.48
  -1  -2   3  580.52   30.19
   1   2  -3  580.00   29.75
  -1  -2   3  570.20   29.27
  -1  -2   3  567.25   14.36
   1   2  -3  572.15   29.44
  -1  -2   2  705.83   16.78
  -1  -2   2  720.65   17.37
   1   2  -2  727.63   16.94
  -1  -2   2  716.21   16.66
  -1  -2   2  732.63   17.14
   1   2  -2  704.29   16.41
  -1  -2   1  116.28    3.67
  -1  -2   1  121.33    4.43
   1   2  -1  121.76    3.64
  -1  -2   1  118.55    3.11
  -1  -2   1  123.69    3.71
  -1  -2   0   16.45    1.22
   1   2   0   28.12    2.85
  -1  -2   0   19.46    1.39
   1   2   0   22.90    2.14
  -1  -2   0   17.80    0.93
  -1  -2  -1  113.00    2.71
   1   2   1  114.73    2.78
  -1  -2  -1  127.25    3.49
   1   2   1  104.91    2.88
  -1  -2  -1  116.49    3.26
   1   2   2 1032.14    9.60
   1   2   2 1070.64   10.78
   1   2   2 1025.51   10.74
  -1  -2  -2 1035.15   10.55
  -1  -2  -3 5763.66   52.48
   1   2   4  228.61    5.98
   1   2   4  234.17    6.52
  -1  -2  -4  227.28    5.87
  -1  -2  -4  221.87    6.22
   1   2   4  232.77    6.97
   1   2   5  151.61    4.68
   1   2   5  156.71    5.46
  -1  -2  -5  170.70    7.01
  -1  -2  -5  165.49    5.07
   1   2   5  154.14    5.41
  -1  -2  -5  156.99    5.22
   1   2   6  654.14   21.57
   1   2   6  688.67   22.00
  -1  -2  -6  708.64   21.93
  -1  -2  -6  703.30   13.66
   1   2   6  682.46   14.30
   1   2   7 1597.81   42.68
  -1  -2  -7 1528.89   39.99
  -1  -2  -7 1589.85   41.78
   1   2   7 1608.33   43.13
   1   2   8   62.86    4.95
  -1  -2  -8   57.38    6.02
  -1  -2  -8   74.58    5.31
   1   2   8   63.78    5.40
   1   2   9  327.75   20.72
  -1  -2  -9  301.98   18.08
  -1  -2  -9  301.67   18.12
   1   2   9  315.81   19.55
   1   2  10  405.62   15.33
  -1  -2 -10  360.45   12.67
  -1  -2 -10  433.77   14.81
   1   2  10  427.82   16.15
   1   2  11    2.94    5.37
  -1  -2 -11    5.19    1.43
   1   2  11    7.75    3.15
   1   2  12   38.10    7.66
   1   2  12   30.20    5.55
   1   2  13  100.24   11.28
   1   2  13   56.96    8.75
   1   2  14   60.09    9.41
  -1  -3  11    5.95    4.53
  -1  -3  11    4.43    2.90
  -1  -3  10    1.16    3.99
  -1  -3  10   12.05    3.20
  -1  -3   9   23.68    5.95
  -1  -3   9   23.06    3.69
  -1  -3   8   41.30    6.64
  -1  -3   8   39.97    5.15
  -1  -3   7  208.83   14.00
   1   3  -7  188.15   10.47
  -1  -3   7  203.66   11.33
  -1  -3   7  196.96   11.92
  -1  -3   6  356.90   18.23
   1   3  -6  373.30   17.45
  -1  -3   6  345.12   16.14
  -1  -3   6  320.35   15.94
  -1  -3   5  378.27   19.08
   1   3  -5  375.83   17.99
  -1  -3   5  371.01   17.39
  -1  -3   5  361.75   17.55
   1   3  -5  354.12   16.94
  -1  -3   4  314.96   11.43
   1   3  -4  327.84   10.54
  -1  -3   4  313.11   10.04
  -1  -3   4  308.46   10.51
   1   3  -4  289.73    9.63
  -1  -3   3  363.51   10.59
   1   3  -3  360.81    9.42
  -1  -3   3  336.42    8.77
  -1  -3   3  344.73    9.48
  -1  -3   2  305.28    8.26
  -1  -3   2  319.00    9.07
   1   3  -2  344.09    8.97
  -1  -3   2  300.73    7.85
  -1  -3   2  317.81    8.58
  -1  -3   1 1091.18   11.31
   1   3  -1 1184.52   12.43
  -1  -3   1 1098.60   11.21
  -1  -3   1 1150.50   11.60
  -1  -3   0  680.05   15.82
   1   3   0  714.87   16.94
  -1  -3   0  704.19   16.48
  -1  -3  -1  546.44   12.59
  -1  -3  -1  551.82   12.76
  -1  -3  -1  552.58   13.20
   1   3   2  363.54    9.28
  -1  -3  -2  427.85   10.35
   1   3   3 7514.53   68.43
   1   3   3 7439.71   67.50
  -1  -3  -3 7295.30   66.11
   1   3   4 2217.53   20.75
   1   3   4 2241.79   21.12
  -1  -3  -4 2170.39   21.03
  -1  -3  -4 2213.64   21.95
   1   3   5  365.53    9.50
   1   3   5  363.13    9.66
  -1  -3  -5  360.89    9.62
  -1  -3  -5  375.60   10.27
   1   3   5  380.17   10.59
  -1  -3  -5  366.83   10.08
   1   3   6   95.39    3.66
   1   3   6   88.81    4.05
  -1  -3  -6   92.32    8.15
  -1  -3  -6   99.36    4.34
   1   3   6  116.39   12.39
   1   3   7  725.09   19.82
   1   3   7  756.39   21.10
  -1  -3  -7  701.45   19.43
  -1  -3  -7  751.19   20.62
   1   3   7  736.39   20.68
   1   3   8  158.73    9.47
  -1  -3  -8  141.48    8.47
  -1  -3  -8  145.12    8.40
   1   3   8  158.33    9.81
   1   3   9  252.97   16.22
  -1  -3  -9  213.30   12.96
  -1  -3  -9  250.47   15.44
   1   3   9  275.33   17.98
   1   3  10   18.48    5.20
  -1  -3 -10    3.07    1.55
  -1  -3 -10    8.45    3.39
   1   3  10   15.55    5.00
   1   3  11   19.69    5.28
  -1  -3 -11    8.12    2.82
   1   3  11   11.22    4.30
   1   3  12   68.09    6.57
  -1  -3 -12   92.62    6.85
   1   3  12  108.95    8.73
   1   3  13  150.11   11.87
   1   3  13  130.28   12.87
   1   3  14   31.81    7.34
   1   3  14   35.89    7.31
  -1  -4  10    9.04    4.15
  -1  -4  10   10.72    2.72
  -1  -4   9   31.76    5.82
  -1  -4   9   37.10    3.98
  -1  -4   8   37.35    6.87
  -1  -4   8   30.89    4.16
  -1  -4   7  131.59    9.37
  -1  -4   7  115.89    7.05
  -1  -4   6   67.72   11.61
   1   4  -6   49.71    8.21
  -1  -4   6   47.85    6.99
  -1  -4   6   56.57    9.05
  -1  -4   5   92.72    8.90
   1   4  -5   92.07    7.66
  -1  -4   5   78.01    5.38
  -1  -4   5   88.97    7.32
  -1  -4   4  505.12   33.20
   1   4  -4  501.02   23.52
  -1  -4   4  505.69   32.39
  -1  -4   4  482.11   22.76
  -1  -4   4  514.06   13.00
  -1  -4   3  824.06   21.72
   1   4  -3  793.38   19.37
  -1  -4   3  792.81   19.36
  -1  -4   3  765.07   18.92
  -1  -4   3  822.50   20.64
  -1  -4   2  519.47   13.51
  -1  -4   2  530.77   14.19
   1   4  -2  530.50   13.59
  -1  -4   2  516.83   13.09
  -1  -4   2  544.41   14.13
  -1  -4   1  133.25    4.17
  -1  -4   1  142.72    5.17
   1   4  -1  144.06    4.62
  -1  -4   1  129.80    4.05
  -1  -4   1  132.91    4.52
   1   4   0  903.96    9.77
  -1  -4   0  870.40    9.27
   1   4   0  904.00   10.08
  -1  -4   0  873.65   11.53
  -1  -4   0  870.28    9.36
   1   4   1 1585.32   15.29
  -1  -4  -1 1594.95   15.11
  -1  -4  -1 1563.87   16.19
   1   4   1 1621.79   16.19
  -1  -4  -1 1589.91   15.83
   1   4   2   56.95    2.18
  -1  -4  -2   46.39    1.41
   1   4   2   68.84    7.22
  -1  -4  -2   56.29    6.55
   1   4   2   48.73    2.55
   1   4   3   88.38    2.18
   1   4   3  100.33    3.88
   1   4   3   88.71    3.48
  -1  -4  -3   84.19    3.16
   1   4   4 3344.17   30.42
   1   4   4 3358.22   30.51
  -1  -4  -4 3256.83   31.04
   1   4   4 3346.69   32.27
  -1  -4  -4 3310.47   31.81
   1   4   5  219.90    6.09
   1   4   5  225.04    6.47
  -1  -4  -5  213.86    6.27
  -1  -4  -5  223.42    7.17
   1   4   5  227.21    7.13
  -1  -4  -5  208.90    6.59
   1   4   6 1093.96   26.46
   1   4   6 1133.89   27.69
  -1  -4  -6 1123.71   27.49
  -1  -4  -6 1157.04   28.68
   1   4   6 1156.77   28.83
   1   4   7  529.31   21.84
   1   4   7  527.77   22.01
  -1  -4  -7  500.61   20.86
  -1  -4  -7  566.76   23.93
   1   4   7  513.86   21.88
   1   4   8  658.49   16.59
  -1  -4  -8  627.73   15.82
   1   4   8  652.18   16.58
   1   4   9   16.63    5.01
  -1  -4  -9   22.96    4.07
   1   4   9    8.89    2.79
   1   4  10   25.67    4.86
  -1  -4 -10   22.50    3.69
   1   4  10   15.09    4.84
   1   4  11  361.97   15.73
  -1  -4 -11  323.57   13.46
   1   4  11  335.33   14.38
   1   4  12  156.96    7.89
  -1  -4 -12  124.82    9.14
   1   4  12  135.31    6.95
   1   4  13  156.51   11.59
   1   4  13  157.75   11.30
   1   4  14   62.41   10.66
   1   4  14   34.95    5.90
  -1  -5  10   48.48    8.82
  -1  -5   9   23.05    6.79
  -1  -5   9   15.29    3.23
  -1  -5   8  176.05   10.53
  -1  -5   8  168.37    8.32
  -1  -5   7  175.83    9.67
  -1  -5   7  136.73   10.29
  -1  -5   6   26.52    5.15
  -1  -5   6   23.01    2.63
  -1  -5   6   29.02    3.31
  -1  -5   6   35.83    4.80
  -1  -5   5   17.29    4.75
  -1  -5   5    8.86    2.19
  -1  -5   5    8.41    1.97
  -1  -5   5   22.84    4.60
  -1  -5   4   36.52    4.88
   1   5  -4   46.10    5.32
  -1  -5   4   38.58    2.92
  -1  -5   4   36.57    5.21
  -1  -5   4   48.69    5.04
  -1  -5   3  181.05   10.49
   1   5  -3  171.74   10.02
  -1  -5   3  173.38    9.17
  -1  -5   3  155.93    8.49
  -1  -5   3  172.94    9.81
  -1  -5   2  441.97   19.15
   1   5  -2  449.21   18.61
  -1  -5   2  452.83   18.68
  -1  -5   2  444.43   18.49
  -1  -5   2  467.47   19.66
  -1  -5   1  470.90   15.04
   1   5  -1  472.89   15.17
  -1  -5   1  481.43   15.35
  -1  -5   1  468.27   14.98
   1   5   0 2694.64   48.33
  -1  -5   0 2545.73   45.79
   1   5   0 2570.08   46.32
  -1  -5   0 2468.41   44.46
   1   5   0 2659.44   48.58
  -1  -5   0 2544.16   45.65
   1   5   1  337.52    8.79
  -1  -5  -1  339.32    8.78
   1   5   1  334.87    9.25
  -1  -5  -1  317.40    9.00
   1   5   1  352.95    9.57
  -1  -5  -1  329.35    8.82
   1   5   2  560.33   13.84
  -1  -5  -2  542.92   13.32
   1   5   2  555.47   14.61
  -1  -5  -2  537.40   14.21
   1   5   2  544.27   14.65
  -1  -5  -2  552.64   14.19
   1   5   3  103.87    3.17
  -1  -5  -3   99.92    2.66
  -1  -5  -3   89.10    3.54
   1   5   4   50.44    1.67
  -1  -5  -4   51.29    1.73
  -1  -5  -4   56.63    5.44
  -1  -5  -4   56.18    4.08
   1   5   4   56.61    3.44
  -1  -5  -4   45.33    2.65
   1   5   5  225.88   11.73
   1   5   5  223.88   11.72
  -1  -5  -5  207.65   11.63
   1   5   5  238.75   13.18
   1   5   6  587.10   18.26
   1   5   6  575.14   18.09
  -1  -5  -6  592.31   19.65
   1   5   6  601.31   19.75
   1   5   7  469.96   19.40
   1   5   7  483.86   20.15
  -1  -5  -7  503.80   21.84
   1   5   7  479.78   20.51
   1   5   8  333.09   15.93
   1   5   8  358.37   17.58
  -1  -5  -8  353.25   17.68
   1   5   8  331.98   16.53
   1   5   9  238.91   14.87
  -1  -5  -9  234.92   15.18
   1   5   9  233.11   14.78
   1   5  10  395.59   14.70
  -1  -5 -10  405.15   14.85
   1   5  10  401.58   15.19
   1   5  11  446.55   18.36
  -1  -5 -11  463.70   18.80
   1   5  11  473.56   19.47
   1   5  12  233.75   13.74
  -1  -5 -12  218.87   31.05
   1   5  12  236.89   13.97
   1   5  13  174.18   12.40
  -1  -5 -13  153.32   10.69
   1   5  13  175.05   12.14
   1   5  14   99.56   12.11
   1   5  14   99.88   11.78
  -1  -6   9   19.21    6.95
  -1  -6   8   42.58    7.03
  -1  -6   8   50.12    7.05
  -1  -6   7  135.25   10.59
  -1  -6   7  120.06    7.10
  -1  -6   6  353.74   18.78
  -1  -6   6  330.78   16.33
  -1  -6   5  132.27    9.34
  -1  -6   5  122.54    7.86
  -1  -6   4  106.53   11.19
  -1  -6   4  102.67    9.44
  -1  -6   4  117.28   13.26
  -1  -6   4  133.18   12.95
  -1  -6   3   76.44    7.04
  -1  -6   3   67.17    4.76
  -1  -6   3   83.59    6.40
  -1  -6   3   72.42    6.72
  -1  -6   2  446.00   21.80
   1   6  -2  451.42   21.39
  -1  -6   2  412.41   19.51
  -1  -6   2  384.65   18.46
  -1  -6   2  426.90   20.71
  -1  -6   1  922.85   24.94
  -1  -6   1  891.95   23.96
   1   6   0  481.85   15.50
  -1  -6   0  415.52   13.54
   1   6   0  455.27   14.84
  -1  -6   0  413.91   13.41
   1   6   0  461.33   16.05
   1   6   1 1837.73   44.04
  -1  -6  -1 1737.62   41.49
   1   6   1 1897.39   45.91
   1   6   1 1946.87   47.11
  -1  -6  -1 1790.21   43.06
   1   6   2  856.67   20.80
  -1  -6  -2  807.01   19.50
  -1  -6  -2  797.32   20.71
   1   6   2  823.78   20.71
  -1  -6  -2  732.35   39.04
   1   6   3   65.69    4.45
  -1  -6  -3   60.33    3.35
  -1  -6  -3   74.78    6.44
   1   6   3   61.43    5.53
  -1  -6  -3   62.18    3.89
   1   6   4   32.84    1.89
  -1  -6  -4   31.60    1.90
  -1  -6  -4   43.89    4.87
   1   6   4   34.12    3.72
   1   6   5 2273.42   53.67
  -1  -6  -5 2253.41   53.20
  -1  -6  -5 2350.81   57.10
   1   6   6  257.62   10.89
   1   6   6  256.88   10.75
  -1  -6  -6  292.26   13.90
   1   6   6  268.13   12.26
   1   6   7  594.53   13.83
   1   6   7  641.80   15.23
  -1  -6  -7  627.66   16.74
   1   6   7  643.96   16.36
   1   6   8  270.49   13.89
   1   6   8  289.63   14.13
  -1  -6  -8  286.07   15.15
   1   6   8  303.22   15.24
   1   6   9  264.11   16.15
  -1  -6  -9  254.31   16.40
   1   6   9  258.62   16.40
   1   6  10  423.88   15.02
  -1  -6 -10  414.25   16.20
   1   6  10  466.44   17.43
   1   6  11  434.20   17.66
  -1  -6 -11  441.87   18.41
   1   6  11  435.54   18.23
   1   6  12  428.97   22.98
  -1  -6 -12  433.47   23.74
   1   6  12  458.90   24.93
   1   6  13   77.92    6.41
  -1  -6 -13   64.11    5.77
   1   6  13   77.14    6.22
   1   6  14   67.13   11.11
  -1  -6 -14   57.45    9.47
   1   6  14   61.70   10.09
  -1  -7   8   28.98    6.88
  -1  -7   7  157.18   11.19
  -1  -7   7  174.80   11.32
  -1  -7   6  253.91   14.16
  -1  -7   6  223.44   15.61
  -1  -7   5  121.90   10.23
  -1  -7   5   96.75    7.02
  -1  -7   5   90.77    7.41
  -1  -7   4  170.16    9.27
  -1  -7   4  171.44    7.49
  -1  -7   4  165.28    9.78
  -1  -7   3  240.02   16.48
  -1  -7   3  182.16   19.34
  -1  -7   3  239.75   16.07
  -1  -7   3  227.73   15.56
  -1  -7   2  348.60   12.32
  -1  -7   2  335.84   20.31
  -1  -7   2  315.65   19.30
  -1  -7   1  319.89   15.85
  -1  -7   1  329.90   16.49
   1   7   0  391.57   18.83
  -1  -7   0  362.14   17.25
  -1  -7   0  401.61   20.05
   1   7   0  384.83   18.99
   1   7   1 1715.63   39.48
  -1  -7  -1 1694.86   37.95
  -1  -7  -1 1784.76   41.05
   1   7   1 1805.42   43.49
   1   7   2 1056.23   28.43
  -1  -7  -2  995.03   26.24
  -1  -7  -2 1006.32   27.94
   1   7   2  992.56   28.98
   1   7   3  514.54   21.17
  -1  -7  -3  495.20   20.11
  -1  -7  -3  491.48   21.02
   1   7   3  509.58   21.53
   1   7   4   82.11    6.08
  -1  -7  -4   74.46    4.18
  -1  -7  -4   78.26    5.90
   1   7   4   97.92   10.58
   1   7   5 1194.74   30.97
  -1  -7  -5 1165.87   30.23
  -1  -7  -5 1138.99   31.62
   1   7   5 1145.05   31.18
   1   7   6 1665.14   36.84
   1   7   7  110.69    8.95
   1   7   7  115.68    7.78
  -1  -7  -7  116.26    9.24
   1   7   7  131.40    9.54
   1   7   8  110.75    9.80
   1   7   8  125.08   10.47
  -1  -7  -8  126.87   11.60
   1   7   8  126.03   11.14
   1   7   9   88.40    8.53
   1   7   9  111.80   10.70
  -1  -7  -9  130.26   13.57
   1   7   9  106.55   10.51
   1   7  10  588.50   21.93
  -1  -7 -10  593.46   23.57
   1   7  10  581.49   22.45
   1   7  11  204.03    7.60
  -1  -7 -11  221.11    9.40
   1   7  11  222.24    9.10
   1   7  12  161.26    8.67
  -1  -7 -12  158.97    8.76
   1   7  12  160.62    8.96
   1   7  13   57.91   10.59
  -1  -7 -13   65.17    6.66
   1   7  13   73.07    6.25
   1   7  14   22.75    5.36
  -1  -7 -14   28.80    5.78
   1   7  14    9.72    2.88
  -1  -8   7   76.07   12.23
  -1  -8   6  145.69   10.97
  -1  -8   6  149.32    9.93
  -1  -8   5  105.76    9.27
  -1  -8   5   99.51   11.58
  -1  -8   4  218.83   31.14
  -1  -8   4  234.82   12.90
  -1  -8   4  214.25    9.11
  -1  -8   3  304.28   13.86
  -1  -8   3  318.13   12.98
  -1  -8   3  308.43   13.23
  -1  -8   2  374.08   13.90
  -1  -8   2  382.74   13.77
  -1  -8   2  367.89   13.70
  -1  -8   1  135.91   12.93
  -1  -8   1  147.91   14.26
  -1  -8   0  251.38   15.79
   1   8   0  255.76   15.94
   1   8   1  284.65   13.82
  -1  -8  -1  253.30   12.23
  -1  -8  -1  278.77   14.56
   1   8   1  296.91   14.74
   1   8   2  580.55   17.48
  -1  -8  -2  570.79   15.75
  -1  -8  -2  570.53   17.29
   1   8   2  614.10   17.99
   1   8   3  169.27   11.27
  -1  -8  -3  150.51    9.87
  -1  -8  -3  161.23   11.79
   1   8   3  162.97   11.46
   1   8   4 1592.05   42.06
  -1  -8  -4 1556.08   41.10
  -1  -8  -4 1560.34   43.11
   1   8   4 1616.02   44.04
   1   8   5  804.00   21.36
  -1  -8  -5  812.33   21.50
  -1  -8  -5  825.82   24.13
   1   8   5  804.00   24.43
   1   8   6 1148.17   30.33
  -1  -8  -6 1130.65   31.93
   1   8   6 1134.58   31.74
   1   8   7  360.22   11.16
   1   8   7  388.27   11.98
   1   8   8    9.77    2.26
   1   8   8    6.87    1.98
  -1  -8  -8   17.28    4.79
   1   8   8   10.80    2.83
   1   8   9  199.00   13.18
   1   8   9  252.95   16.52
  -1  -8  -9  253.28   18.64
   1   8   9  263.38   17.98
   1   8  10  141.86    8.70
  -1  -8 -10  114.13    8.28
   1   8  10  139.59    9.37
   1   8  11  222.36    7.90
  -1  -8 -11  225.11   10.51
   1   8  11  229.24    9.80
   1   8  12  125.73    6.86
  -1  -8 -12  120.14    8.49
   1   8  12  128.12    7.70
   1   8  13  102.70   10.14
  -1  -8 -13  115.23   11.81
   1   8  13  101.76   10.19
   1   8  14   71.92   10.72
  -1  -8 -14   82.47   12.62
   1   8  14   81.56   12.13
  -1  -9   6   29.54    6.86
  -1  -9   5   56.42    9.60
  -1  -9   5   44.05    7.06
  -1  -9   4   80.75    6.92
  -1  -9   4   87.76   14.70
  -1  -9   3  177.86    9.03
  -1  -9   3  168.11    8.16
  -1  -9   3  179.75    9.10
  -1  -9   2   95.79    7.85
  -1  -9   2   92.79    7.68
  -1  -9   2   92.27    7.54
  -1  -9   1   71.21    7.30
  -1  -9   1   73.64    5.33
  -1  -9   0  113.21    6.76
  -1  -9   0  115.15    7.79
   1   9   0  131.67   12.72
  -1  -9  -1  192.38   13.67
   1   9   1  196.28   14.87
   1   9   2  195.00   11.40
  -1  -9  -2  168.43   15.25
  -1  -9  -2  206.01   13.72
   1   9   2  205.95   18.07
   1   9   3  494.87   12.65
  -1  -9  -3  467.95   11.45
  -1  -9  -3  485.94   14.81
   1   9   3  534.98   15.91
   1   9   4  285.91   16.07
  -1  -9  -4  279.55   16.42
  -1  -9  -4  274.24   16.85
   1   9   4  304.26   19.50
   1   9   5   86.62    8.06
  -1  -9  -5   81.42    7.34
  -1  -9  -5   90.82   10.78
   1   9   5   84.99   11.50
  -1  -9  -6 1725.06   42.36
   1   9   6 1744.03   43.16
   1   9   7 1402.97  146.66
   1   9   7 1557.57  162.82
  -1  -9  -7 1634.44  171.62
   1   9   7 1614.18  169.31
   1   9   8    7.06    1.59
   1   9   8   13.20    1.72
  -1  -9  -8   10.86    4.66
   1   9   8    7.51    2.49
   1   9   9   81.38    4.92
  -1  -9  -9   84.77    7.17
   1   9   9  100.84    7.55
   1   9  10  269.17   12.89
  -1  -9 -10  292.34   16.24
   1   9  10  291.78   15.23
   1   9  11  278.67   13.43
  -1  -9 -11  320.84   17.63
   1   9  11  348.21   17.83
  -1  -9 -12   76.43   10.00
   1   9  12   90.34   10.47
  -1  -9 -13  185.66   13.99
   1   9  13  207.14   14.83
  -1  -9 -14  158.09   13.21
   1   9  14  165.38   13.08
  -1 -10   4   29.25    5.79
  -1 -10   4   25.99    5.63
  -1 -10   3  105.18   10.81
  -1 -10   2  107.41    8.42
  -1 -10   2  125.43    9.75
  -1 -10   2  126.09    9.75
  -1 -10   1    6.22    2.44
  -1 -10   1    9.77    3.55
  -1 -10   1    2.23    2.55
  -1 -10   0  104.70    8.18
  -1 -10   0   98.00    8.42
  -1 -10  -1  326.14   13.29
  -1 -10  -1  318.63   13.91
   1  10   1  334.74   19.25
  -1 -10  -2   77.71    4.83
  -1 -10  -2   77.65    6.27
   1  10   2   94.31   11.65
  -1 -10  -3  273.58   13.32
   1  10   3  295.88   19.20
  -1 -10  -4   12.46    1.60
  -1 -10  -4   19.63    4.37
   1  10   4   31.95    6.20
  -1 -10  -5  335.39   11.98
  -1 -10  -5  374.59   16.06
   1  10   5  355.02   16.03
  -1 -10  -6  704.70   27.35
   1  10   6  796.58   33.01
  -1 -10  -7  530.71   21.66
   1  10   7  562.77   35.56
  -1 -10  -8  186.77   10.33
   1  10   8  204.11   20.68
  -1 -10  -9   23.10    4.84
   1  10   9   31.98    4.82
  -1 -10 -10  540.54   27.03
   1  10  10  581.00   28.04
  -1 -10 -11   92.02   11.05
   1  10  11  118.23    9.52
  -1 -10 -12  223.73   15.62
   1  10  12  236.98   15.40
  -1 -10 -13  109.31   12.08
   1  10  13   99.50   22.24
  -1 -11   3   51.17    7.75
  -1 -11   3   50.30    7.30
  -1 -11   2  108.36   25.61
  -1 -11   2   96.86   11.29
  -1 -11   2   98.17   11.75
  -1 -11   1   84.81    6.35
  -1 -11   1   86.77   14.65
  -1 -11   0  265.87   11.05
  -1 -11   0  288.45   12.85
  -1 -11  -1  135.19    7.02
  -1 -11  -1  164.71    9.57
   1  11   1  161.86   12.84
  -1 -11  -2   35.99    5.05
  -1 -11  -2   46.81    7.51
   1  11   2   41.03    8.35
  -1 -11  -3  125.62    8.59
  -1 -11  -3  144.36    7.95
   1  11   3  119.48   15.10
  -1 -11  -4  115.72   10.41
   1  11   4  127.28   15.47
  -1 -11  -5   17.06    5.35
   1  11   5   13.52    3.32
  -1 -11  -6  119.66   11.22
   1  11   6   81.14   13.47
  -1 -11  -7  248.95   14.99
   1  11   7  253.39   15.13
  -1 -11  -8  152.57    8.36
   1  11   8  185.48   17.32
   1  11   9   67.65    8.97
  -1 -11 -10   73.67   11.20
   1  11  10   77.32    9.39
  -1 -11 -11  133.54   10.75
   1  11  11  121.64   11.86
  -1 -11 -12  195.89   15.09
   1  11  12  190.72   13.75
  -1 -11 -13  158.93   13.30
   1  11  13  160.85   12.70
  -1 -12   1   92.62    7.98
  -1 -12   1   80.30    7.29
  -1 -12   0  125.45    9.83
  -1 -12  -1   70.04   10.89
  -1 -12  -2   68.22    7.51
   1  12   2   51.68   11.57
  -1 -12  -3   34.29    5.55
   1  12   3   40.65    6.37
  -1 -12  -4   48.73    6.07
   1  12   4   65.99   10.60
  -1 -12  -5   47.49    7.83
   1  12   5   46.95   12.47
  -1 -12  -6   25.42    4.98
   1  12   6   23.28    4.29
  -1 -12  -7   30.97    5.33
   1  12   7   18.89    4.09
  -1 -12  -8   71.72    8.11
   1  12   8   72.10    8.56
  -1 -12  -9  152.97   12.64
   1  12   9  115.41   16.74
  -1 -12 -10   14.16    6.38
  -1 -12 -11  218.34   22.24
   1  12  11  187.70   23.63
  -1 -12 -12  171.24   15.25
   1  12  12  138.78   24.30
  -1 -13  -1   13.58    4.22
  -1 -13  -2   21.58    6.31
   1  13   2    8.11    3.78
  -1 -13  -3   88.90   13.76
   1  13   3   60.62   12.86
  -1 -13  -4  119.06    9.95
   1  13   4  110.96   14.19
  -1 -13  -5   98.39   12.50
   1  13   5   65.41   15.20
  -1 -13  -6   25.00    6.77
   1  13   6   26.24    6.61
  -1 -13  -7   51.10    9.27
   1  13   7   32.06    6.66
  -1 -13  -8   26.11    6.76
   1  13   8   34.60    9.26
  -1 -13  -9  190.73   19.91
  -1 -13 -10  155.57   13.28
   1  13  10  115.49   17.79
   2 -12  -8  102.99   10.02
   2 -12  -7   79.60   13.67
  -2  12   7   60.64   11.81
   2 -12  -6   28.57    8.01
  -2  12   6   24.35    8.65
   2 -12  -5   88.22   13.95
  -2  12   5   73.70   15.06
   2 -12  -4  290.42   28.47
  -2  12   4  259.88   25.53
   2 -12  -3  183.66   18.87
  -2  12   3  110.58   24.41
   2 -12  -2   46.24    9.52
   2 -11 -10   35.70    8.56
  -2  11  10   31.62    7.77
   2 -11  -9   32.09    7.32
  -2  11   9   43.69    9.56
   2 -11  -8  155.64   12.80
  -2  11   8  123.98   15.46
   2 -11  -7   83.34   10.25
   2 -11  -6   33.02    9.03
  -2  11   6    8.83    3.49
   2 -11  -5   38.32    8.28
  -2  11   5   23.07    6.44
  -2  11   4  123.12   17.05
   2 -11  -4  150.60   12.13
  -2  11   4  126.77   20.36
  -2  11   3  259.91   21.93
   2 -11  -3  322.00   21.71
  -2  11   3  288.71   31.36
  -2  11   2   59.33   12.36
   2 -11  -2   98.54   10.80
  -2  11   2   64.78   14.94
  -2  11   1   69.23   14.67
   2 -11  -1  118.74   10.08
  -2  11   0   35.84    9.11
   2 -11   0   76.35    9.49
  -2  11  -1   48.74   12.55
   2 -11   1   60.61    8.55
   2 -11   1   76.39   11.36
   2 -10 -11   29.58    7.86
  -2  10  11   22.68    6.68
   2 -10 -10   98.57   13.50
  -2  10  10   92.62   14.56
  -2  10   9   91.64   11.77
  -2  10   8  240.86    9.71
   2 -10  -8  205.23   11.32
  -2  10   8  265.04   20.41
  -2  10   7  206.70    9.11
   2 -10  -7  213.49   12.09
  -2  10   7  214.50   24.96
  -2  10   6   29.80    4.66
   2 -10  -6   35.61    7.46
  -2  10   5   30.59    4.37
   2 -10  -5   37.62    7.65
  -2  10   5   29.07    5.08
  -2  10   4  151.99   13.37
   2 -10  -4  183.89    9.88
  -2  10   4  180.34   22.96
  -2  10   3  357.58   24.57
   2 -10  -3  413.42   23.21
  -2  10   3  432.65   34.50
  -2  10   2  109.90   12.95
   2 -10  -2  126.38    8.63
  -2  10   2  113.82   17.83
  -2  10   1   65.82    8.15
   2 -10  -1   71.08    7.47
  -2  10   1   62.96    8.11
  -2  10   0   39.46    6.64
   2 -10   0   44.74    5.79
  -2  10  -1   68.66   15.26
   2 -10   1   96.11   10.49
  -2  10  -2   81.53   16.71
   2 -10   2  118.54    9.91
  -2  10  -3   40.68   11.25
   2 -10   3   62.02   11.28
   2  -9 -12   70.71   12.16
  -2   9  12   55.57   11.54
  -2   9  11   46.75    6.44
   2  -9 -11   31.94    8.25
  -2   9  11   44.58    7.74
  -2   9  10   89.00    8.78
   2  -9 -10  113.55   13.25
  -2   9  10  108.40   13.86
  -2   9   9  408.89   19.57
   2  -9  -9  412.21   21.40
  -2   9   9  406.94   32.66
  -2   9   8  318.70   16.98
   2  -9  -8  305.59   18.27
  -2   9   8  303.06   26.24
  -2   9   7  375.62   18.04
   2  -9  -7  384.66   20.31
  -2   9   7  367.97   29.44
  -2   9   6  385.97   15.28
   2  -9  -6  359.31   16.37
  -2   9   6  389.41   26.89
  -2   9   5   10.92    2.30
   2  -9  -5    7.20    4.06
  -2   9   4  100.22    6.52
   2  -9  -4   97.98    7.86
  -2   9   4  105.71   13.54
  -2   9   3  209.63   15.33
   2  -9  -3  209.95   11.83
  -2   9   3  224.35   22.52
  -2   9   2  355.02   23.02
   2  -9  -2  329.14   14.82
  -2   9   2  348.94   15.02
  -2   9   1   56.38    7.98
   2  -9  -1   46.26    5.97
  -2   9   1   50.11    8.64
  -2   9   0    4.09    2.53
   2  -9   0   17.46    5.77
  -2   9  -1  109.98   12.46
   2  -9   1  125.35    7.42
  -2   9  -2  126.64   18.84
   2  -9   2  148.79   11.67
   2  -9   2  151.97   12.03
  -2   9  -3   37.39   11.62
   2  -9   3   54.26   10.62
  -2   9  -4   78.92   14.97
   2  -9   4  105.29   13.19
  -2   9  -5   45.12    9.26
   2  -9   5   24.89    7.11
  -2   8  13   24.82    6.20
   2  -8 -13   24.02    7.08
  -2   8  13   27.52    6.79
  -2   8  12   67.75   10.62
   2  -8 -12   63.88   11.44
  -2   8  12   78.69    9.57
  -2   8  11   99.03    9.76
   2  -8 -11   81.89    8.40
  -2   8  11   98.17   12.52
  -2   8  10   40.88    6.40
   2  -8 -10   25.71    5.95
  -2   8  10   31.96    6.32
  -2   8   9  408.69   21.61
   2  -8  -9  430.29   23.92
  -2   8   9  393.60   34.86
  -2   8   8  286.63   13.04
   2  -8  -8  316.39   14.58
  -2   8   8  316.84   22.37
  -2   8   7  351.49   13.59
   2  -8  -7  400.38   18.39
  -2   8   7  366.01   15.12
  -2   8   6   84.99    8.07
   2  -8  -6   75.88    9.70
  -2   8   6   84.33   12.18
  -2   8   5  149.62   13.54
   2  -8  -5  169.21   16.81
  -2   8   5  170.24   25.39
  -2   8   4  524.59   17.93
   2  -8  -4  493.45   18.75
  -2   8   3  196.68   13.25
   2  -8  -3  173.18   16.81
  -2   8   3  174.29   21.62
  -2   8   2   39.68    6.26
   2  -8  -2   30.59    5.30
  -2   8   2   42.53    7.68
  -2   8   1   21.54    3.64
   2  -8  -1   25.98    4.97
  -2   8   1   27.12    5.21
  -2   8   0  125.27   13.60
   2  -8   0  127.54    8.78
  -2   8  -1  174.19   12.42
   2  -8   1  182.75    9.30
  -2   8  -2   91.53   10.75
   2  -8   2   90.25    7.32
   2  -8   2  102.66    9.56
  -2   8  -3  111.26   15.85
   2  -8   3  105.13    8.04
   2  -8   3   91.57    8.41
  -2   8  -4   42.06    8.74
   2  -8   4   54.83    7.14
  -2   8  -5   39.53    9.28
   2  -8   5   35.20    7.49
  -2   8  -6   48.33    9.13
   2  -8   6   54.79   10.08
  -2   7  13   39.02    7.74
   2  -7 -13   48.00    8.46
  -2   7  13   36.13    7.10
  -2   7  12   96.83    9.83
   2  -7 -12  102.50   11.54
  -2   7  12  118.34   11.66
  -2   7  11   31.31    4.07
   2  -7 -11   40.54    6.53
  -2   7  11   38.39    4.86
  -2   7  10  106.30    8.24
   2  -7 -10   99.21    8.83
  -2   7  10  124.81    9.71
  -2   7   9  139.18    8.96
   2  -7  -9  139.77   11.36
  -2   7   9  129.51    8.76
  -2   7   8  154.66    8.91
   2  -7  -8  166.38   14.90
  -2   7   8  174.69   16.50
  -2   7   7    5.14    2.07
  -2   7   7    7.92    3.59
  -2   7   6   35.66    5.70
   2  -7  -6   37.41    7.77
  -2   7   6   34.52    7.44
  -2   7   5  603.87   19.23
   2  -7  -5  643.90   23.10
  -2   7   5  610.37   33.52
  -2   7   4   81.64    7.42
   2  -7  -4   79.14    8.17
  -2   7   4   72.96   10.91
  -2   7   3  305.43   18.43
   2  -7  -3  307.73   19.53
  -2   7   2  107.55    9.61
   2  -7  -2   93.27    8.99
  -2   7   2  112.47   13.97
  -2   7   1  147.59   14.33
   2  -7  -1  109.73   10.40
  -2   7   1  146.87   15.52
  -2   7   0  231.68   17.30
   2  -7   0  210.88   13.74
  -2   7   0  238.83   15.71
  -2   7  -1  196.78   15.70
   2  -7   1  175.52   16.47
  -2   7  -2  195.56   19.13
   2  -7   2  165.63   15.16
   2  -7   2  158.90   15.49
  -2   7  -3  188.65   20.23
   2  -7   3  167.69    8.37
   2  -7   3  159.33    9.37
  -2   7  -4   73.94   10.41
   2  -7   4   56.82    5.90
   2  -7   4   53.54    7.51
  -2   7  -5   50.03   11.62
   2  -7   5   81.83    8.11
  -2   7  -6   46.38   13.12
   2  -7   6   49.30    9.38
   2  -7   7   26.58    6.26
  -2   6  13    6.57    3.63
   2  -6 -13    8.08    3.65
  -2   6  13   10.43    3.65
  -2   6  12   98.88   10.58
   2  -6 -12   94.90   10.31
  -2   6  12  100.67   10.25
  -2   6  11  127.79    7.45
   2  -6 -11  105.69    7.88
  -2   6  11  122.19    7.22
  -2   6  10  255.63   31.16
   2  -6 -10  242.83   10.89
  -2   6  10  251.69    9.74
  -2   6   9   12.80    4.59
   2  -6  -9    6.76    3.88
  -2   6   9   10.48    2.81
  -2   6   8   12.24    4.41
   2  -6  -8   17.44    7.82
  -2   6   8    9.41    3.00
  -2   6   7   48.38    5.00
   2  -6  -7   48.50    6.27
  -2   6   7   66.34    9.43
  -2   6   6  304.31   15.03
   2  -6  -6  325.07   17.31
  -2   6   6  299.71   15.22
  -2   6   5  260.44   13.00
   2  -6  -5  224.95   11.11
   2  -6  -5  240.77   13.79
  -2   6   5  251.51   12.96
  -2   6   4  420.54   20.12
   2  -6  -4  382.65   18.30
   2  -6  -4  414.84   20.70
  -2   6   4  426.04   28.86
  -2   6   3  388.73   18.69
   2  -6  -3  328.05   15.78
   2  -6  -3  376.22   18.84
  -2   6   3  400.97   20.19
  -2   6   2  348.70   16.91
   2  -6  -2  297.85   14.44
   2  -6  -2  328.25   16.60
  -2   6   1  268.28   13.28
   2  -6  -1  269.65   14.42
  -2   6   1  280.76   16.02
  -2   6   0  341.69   16.87
   2  -6   0  365.29   18.26
  -2   6   0  364.50   18.54
  -2   6  -1  197.24   19.08
   2  -6   1  189.98   13.23
  -2   6  -2  186.94   13.77
   2  -6   2  150.90   10.06
   2  -6   2  154.52   11.25
  -2   6  -3  381.23   15.74
   2  -6   3  294.80   17.12
   2  -6   3  360.72   10.18
   2  -6   3  335.00   11.45
  -2   6  -4   36.76    6.28
   2  -6   4   37.96    4.80
   2  -6   4   30.27    5.65
  -2   6  -5   81.11   15.34
   2  -6   5   69.37    6.46
   2  -6   5   97.03    8.88
  -2   6  -6  194.80   15.13
   2  -6   6  233.85   16.97
  -2   6  -7   59.65   10.96
   2  -6   7   36.62    7.66
   2  -6   8   16.54    4.51
   2  -6   8   23.81    5.91
  -2   5  13   18.03    5.25
   2  -5 -13   19.55    5.07
  -2   5  13   10.68    3.11
  -2   5  12   14.95    5.44
   2  -5 -12   18.36    5.22
  -2   5  12    7.73    2.88
  -2   5  11  238.77   14.02
   2  -5 -11  270.26   15.92
  -2   5  11  273.71   15.58
  -2   5  10  405.31   16.89
   2  -5 -10  399.45   17.01
  -2   5  10  375.37   15.71
  -2   5   9  166.15   15.45
   2  -5  -9  174.80   16.58
  -2   5   9  175.27   16.09
  -2   5   8    3.30    4.17
   2  -5  -8   14.97    6.23
  -2   5   8    7.43    3.23
  -2   5   7  214.98   17.89
   2  -5  -7  235.89   13.92
  -2   5   7  222.35   11.67
  -2   5   6  518.70   13.36
   2  -5  -6  506.10   33.47
  -2   5   6  532.90   13.95
  -2   5   5  433.22   18.35
   2  -5  -5  362.43   15.36
   2  -5  -5  391.61   17.85
  -2   5   5  418.28   21.37
  -2   5   4 1081.75   29.10
   2  -5  -4  992.88   26.71
   2  -5  -4 1060.03   29.44
  -2   5   4 1071.62   30.32
  -2   5   3  948.41   25.63
   2  -5  -3  887.26   24.00
   2  -5  -3  904.10   25.54
  -2   5   3  956.41   26.88
  -2   5   2  597.54   19.14
   2  -5  -2  566.80   18.94
  -2   5   2  605.04   19.91
  -2   5   1  205.82   11.68
   2  -5  -1  178.22   10.09
   2  -5  -1  208.81   12.43
  -2   5   0  333.06   15.04
   2  -5   0  343.91   15.24
  -2   5   0  402.35   17.47
  -2   5  -1  181.96   12.93
   2  -5   1  143.90    8.13
   2  -5   1  142.71    8.66
  -2   5  -2  231.38   19.24
   2  -5   2  208.14   14.31
   2  -5   2  244.77   12.43
   2  -5   2  220.69   12.28
  -2   5  -3   63.92    7.19
   2  -5   3   48.57    4.11
   2  -5   3   59.94    4.97
   2  -5   3   58.19    5.81
  -2   5  -4   60.22   10.98
   2  -5   4   41.60    6.52
   2  -5   4   50.59    7.60
   2  -5   4   70.61   11.47
  -2   5  -5  339.26   19.38
   2  -5   5  302.02   19.27
   2  -5   5  321.82   10.71
   2  -5   5  343.75   14.07
  -2   5  -6   99.13   13.16
   2  -5   6  105.28    8.62
  -2   5  -7  155.12   12.84
   2  -5   7  141.38    7.92
   2  -5   8   47.38    9.04
   2  -5   9  106.17   13.64
   2  -5   9   98.70   12.05
  -2   4  13  130.34   10.90
   2  -4 -13  100.70   11.70
  -2   4  13  109.84   25.71
  -2   4  12    8.78    4.15
   2  -4 -12    3.51    2.90
  -2   4  12    3.13    2.68
  -2   4  11  273.99   15.81
   2  -4 -11  270.33   15.46
  -2   4  11  239.83   13.62
  -2   4  10  310.93   13.81
   2  -4 -10  295.10   13.03
  -2   4  10  297.22   13.12
  -2   4   9  270.95   18.51
   2  -4  -9  237.55   16.50
  -2   4   9  278.77   18.92
  -2   4   8  125.63   11.33
   2  -4  -8  131.04    9.94
  -2   4   8  142.26    9.86
  -2   4   7 1121.61   31.44
   2  -4  -7 1090.50   30.97
  -2   4   7 1179.22   32.87
  -2   4   6 1446.39   33.57
   2  -4  -6 1427.63   33.96
  -2   4   6 1400.76   32.64
  -2   4   5   96.40    6.58
   2  -4  -5   82.53    5.41
   2  -4  -5   80.16    6.28
  -2   4   5   86.73    5.69
  -2   4   4 1116.36   27.53
   2  -4  -4 1070.33   26.35
   2  -4  -4 1140.70   28.96
  -2   4   4 1117.54   28.79
  -2   4   3 1397.22   33.93
   2  -4  -3 1336.64   32.53
   2  -4  -3 1364.51   33.93
  -2   4   3 1368.43   33.96
  -2   4   2  204.37    6.25
   2  -4  -2  193.91    5.89
   2  -4  -2  200.94    7.07
  -2   4   2  208.79    7.33
  -2   4   1 1778.11   32.68
   2  -4  -1 1666.28   30.60
  -2   4   0  175.41    9.81
   2  -4   0  133.16    7.50
   2  -4   0  158.95    9.56
  -2   4   0  163.68    9.31
  -2   4  -1  190.93   10.97
   2  -4   1  177.46    9.77
   2  -4   1  169.04    9.41
  -2   4  -1  170.62    9.62
  -2   4  -2  576.07   24.50
   2  -4   2  581.74   24.12
   2  -4   2  588.66   25.15
  -2   4  -3  488.61   29.09
   2  -4   3  460.43   22.06
   2  -4   3  483.78   22.84
   2  -4   3  504.84   33.19
  -2   4  -4  403.17   19.13
   2  -4   4  390.44   18.33
   2  -4   4  397.96   31.94
   2  -4   4  396.39   32.53
  -2   4  -5   46.46    6.81
   2  -4   5   31.63    2.69
   2  -4   5   38.28    3.33
   2  -4   5   38.12    6.08
  -2   4  -6  104.64   16.41
   2  -4   6  116.76   11.99
  -2   4  -7  437.38   24.20
   2  -4   7  438.81   18.64
  -2   4  -8  301.76   17.29
   2  -4   8  277.40   16.17
   2  -4   9   96.06   10.49
   2  -4   9  109.82   11.45
   2  -4  10   13.68    4.70
   2  -4  10   19.19    4.95
  -2   3  13  121.34   10.81
  -2   3  13   98.37   11.33
  -2   3  12  224.62   15.82
   2  -3 -12  223.05   14.89
  -2   3  12  202.94   13.47
  -2   3  11   31.21    5.48
   2  -3 -11   32.54    5.15
  -2   3  11   25.43    4.06
  -2   3  10  327.00   14.37
   2  -3 -10  343.45   14.59
  -2   3  10  337.77   14.21
  -2   3   9  213.35   15.30
   2  -3  -9  203.66   14.28
  -2   3   9  216.81   14.77
  -2   3   8  351.35   12.90
   2  -3  -8  382.64   14.26
  -2   3   8  393.15   13.41
  -2   3   7  694.34   17.71
   2  -3  -7  671.67   17.50
  -2   3   7  689.85   17.07
  -2   3   6  206.53   12.26
   2  -3  -6  220.27   13.40
  -2   3   6  201.44   11.65
  -2   3   5  287.71   10.36
   2  -3  -5  254.55   13.70
   2  -3  -5  292.21   11.37
  -2   3   5  277.57   15.51
   2  -3  -4 1534.45   28.38
  -2   3   3  899.50   17.32
   2  -3  -3  867.99   16.58
  -2   3   3  799.97   15.66
  -2   3   3  896.25   17.71
  -2   3   2  490.73   12.84
   2  -3  -2  491.23   12.80
   2  -3  -2  488.45   13.26
  -2   3   2  508.23   15.72
  -2   3   1 1124.54   12.46
   2  -3  -1 1103.20   12.21
   2  -3  -1 1076.40   12.87
  -2   3   1 1114.43   15.52
  -2   3   0  739.41   14.60
   2  -3   0  714.53   13.98
   2  -3   0  716.30   14.36
  -2   3   0  710.07   13.93
   2  -3   0  702.96   13.94
  -2   3  -1 1843.65   33.92
   2  -3   1 1782.95   32.69
   2  -3   1 1870.73   34.19
  -2   3  -1 1804.39   32.74
   2  -3   2 3760.77   66.99
  -2   3  -2 3715.50   65.97
   2  -3   2 3701.26   66.88
  -2   3  -3 1270.18   33.46
   2  -3   3 1230.52   29.71
   2  -3   3 1185.15   30.00
  -2   3  -4   16.18    2.75
   2  -3   4    7.73    1.13
   2  -3   4    4.71    1.43
   2  -3   4   11.59    5.49
  -2   3  -5  115.69    9.37
   2  -3   5  123.51    9.68
   2  -3   6  510.43   17.75
  -2   3  -7  218.33   18.88
   2  -3   7  200.86   14.60
  -2   3  -8  493.27   20.53
   2  -3   8  454.56   19.32
   2  -3   9   93.24    9.04
   2  -3   9   91.84    8.02
   2  -3  10   34.00    8.51
   2  -3  10   50.91    9.57
   2  -3  11   46.47    8.98
   2  -3  11   51.38    9.03
  -2   2  13  101.13   22.83
  -2   2  13  102.64   10.28
  -2   2  12  251.51   17.31
   2  -2 -12  204.36   13.47
  -2   2  12  237.24   15.52
  -2   2  11    9.64    3.84
   2  -2 -11   21.31    3.39
  -2   2  11   22.05    3.67
  -2   2  10  378.21   16.48
   2  -2 -10  365.22   15.14
  -2   2  10  367.24   15.11
  -2   2   9  275.26   18.96
   2  -2  -9  281.53   18.97
  -2   2   9  283.80   18.85
  -2   2   8  206.85   13.64
   2  -2  -8  221.16   14.17
  -2   2   8  219.20   13.75
  -2   2   7  351.59   17.63
   2  -2  -7  353.14   17.54
  -2   2   7  342.22   16.66
  -2   2   6   33.07    4.03
   2  -2  -6   34.87    4.13
  -2   2   6   40.36    3.56
  -2   2   5  584.68   19.04
   2  -2  -5  594.69   19.59
  -2   2   5  563.24   18.23
  -2   2   5  615.89   19.69
   2  -2  -5  569.57   18.07
  -2   2   4  631.35   13.12
   2  -2  -4  618.70   12.52
  -2   2   4  661.02   13.24
   2  -2  -4  604.84   12.04
  -2   2   3 1679.15   17.54
   2  -2  -3 1608.51   16.57
  -2   2   3 1606.71   16.90
  -2   2   3 1672.82   17.40
   2  -2  -3 1601.74   16.36
  -2   2   2  638.40   15.50
   2  -2  -2  553.68   14.23
  -2   2   2  623.72   15.62
   2  -2  -1  583.62   14.15
   2  -2  -1  577.22   14.55
  -2   2   1  596.41   16.20
   2  -2   0  630.49   15.14
   2  -2   0  637.71   15.65
  -2   2   0  618.56   15.08
  -2   2   0  675.44   16.51
  -2   2  -1 6061.63   55.92
   2  -2   1 5934.39   54.60
   2  -2   1 6078.65   55.56
  -2   2  -1 5838.38   53.15
   2  -2   1 5841.20   53.80
   2  -2   2 9361.58  476.35
   2  -2   2 9964.71  506.84
  -2   2  -2 9770.81  496.93
   2  -2   2 9467.01  482.05
   2  -2   2 9999.00  508.87
   2  -2   3 4586.90   81.83
   2  -2   3 4903.07   86.45
  -2   2  -3 4950.88  251.88
   2  -2   3 5093.62  259.63
  -2   2  -4  138.62   12.14
   2  -2   4  123.90    6.82
   2  -2   4  121.44    6.43
   2  -2   4  137.02    8.95
  -2   2  -5  253.01   12.38
   2  -2   5  236.03   13.70
  -2   2  -6  318.44   16.12
   2  -2   6  303.66   15.57
  -2   2  -7  128.04   20.06
   2  -2   7   90.55    8.89
  -2   2  -8  116.91   11.30
   2  -2   8  141.45   14.18
   2  -2   9  130.31   11.76
   2  -2   9  115.46    9.81
   2  -2  10   37.79    8.07
   2  -2  10   27.28    5.68
   2  -2  11   97.99   11.11
   2  -2  11  101.18   10.54
   2  -2  12   65.01    9.85
   2  -2  12   64.86    9.14
  -2   1  13   69.85   10.39
  -2   1  13   71.07    9.47
  -2   1  12   66.07   10.44
  -2   1  12   69.28   10.22
  -2   1  11  561.70   28.51
   2  -1 -11  489.50   23.06
  -2   1  11  483.40   23.12
  -2   1  10   85.43    8.67
   2  -1 -10  112.08    7.42
  -2   1  10  106.06    7.00
  -2   1   9  175.68   16.87
   2  -1  -9  172.71   15.75
  -2   1   9  158.66   14.41
  -2   1   8  363.46   13.56
   2  -1  -8  329.57   20.01
  -2   1   8  355.12   11.94
  -2   1   7  583.17   16.07
   2  -1  -7  547.47   14.08
  -2   1   7  500.11   23.68
  -2   1   7  548.14   13.73
  -2   1   6  201.82   12.04
   2  -1  -6  203.71   11.98
  -2   1   6  189.48   10.74
  -2   1   6  198.12   11.37
   2  -1  -6  187.29   10.54
   2  -1  -5  299.22   10.53
  -2   1   5  306.18   10.59
  -2   1   5  299.05   10.14
   2  -1  -5  287.18    9.57
  -2   1   4 1769.09   32.77
   2  -1  -4 1665.05   30.65
   2  -1  -4 1775.51   32.78
  -2   1   4 1717.00   31.51
  -2   1   4 1818.50   33.09
   2  -1  -4 1709.10   31.09
  -2   1   3  788.40    9.84
   2  -1  -3  764.71    9.12
  -2   1   3  776.95    9.50
  -2   1   3  816.17    9.33
   2  -1  -3  767.68    8.63
   2  -1  -2 2838.11   27.05
   2  -1  -2 2928.07   28.36
  -2   1   2 2890.68   27.71
  -2   1   2 2968.34   27.87
   2  -1  -2 2889.73   27.12
   2  -1  -1  648.08   15.48
   2  -1  -1  610.10   15.03
  -2   1   1  646.41   15.42
  -2   1   0   44.03    2.36
   2  -1   0   32.53    2.17
   2  -1   0   36.70    3.36
  -2   1   0   40.56    2.97
  -2   1   0   54.09    6.24
   2  -1   1 2460.13   23.67
  -2   1  -1 2441.67   23.19
   2  -1   2 6493.15   59.38
   2  -1   2 6593.35   59.35
  -2   1  -2 6515.52   58.57
   2  -1   2 6649.06   61.25
   2  -1   3 2389.73   23.75
   2  -1   3 2369.82   21.97
  -2   1  -3 2366.67   21.87
   2  -1   3 2497.32   25.54
  -2   1  -4  141.27    8.62
   2  -1   4  164.77    4.23
  -2   1  -4  176.56    4.57
   2  -1   4  193.87    7.44
  -2   1  -5  402.08   13.78
   2  -1   5  371.52   13.16
  -2   1  -6  670.58   20.72
   2  -1   6  654.23   19.32
  -2   1  -7  382.86   19.79
   2  -1   7  388.20   19.46
  -2   1  -8  251.75   15.40
   2  -1   8  260.47   16.29
   2  -1   9   65.09    8.15
   2  -1  10   15.52    4.10
   2  -1  10   13.55    3.24
   2  -1  11  208.60   11.68
   2  -1  11  190.33    9.43
   2  -1  12  129.22   10.61
   2  -1  12  127.44    9.88
  -2   0  12   34.93    6.63
  -2   0  12   48.67    7.66
  -2   0  11  289.42   13.62
  -2   0  11  274.44   11.35
  -2   0  10   90.96    8.96
   2   0 -10   76.97    9.55
  -2   0  10   89.48    7.08
  -2   0   9   36.15    5.48
   2   0  -9   35.61    4.64
  -2   0   9   39.79    5.09
  -2   0   8  774.86   20.66
  -2   0   8  773.26   19.26
  -2   0   7  325.98   15.76
  -2   0   7  333.40   16.28
   2   0  -6  287.63   12.57
  -2   0   6  286.90   12.36
  -2   0   6  282.65   12.18
   2   0  -6  292.79   12.56
  -2   0   5 1399.39   34.68
   2   0  -5 1399.39   34.18
  -2   0   5 1337.85   32.47
  -2   0   5 1377.34   33.35
   2   0  -5 1355.47   32.83
  -2   0   4 3449.87   62.14
   2   0  -4 3332.30   59.64
  -2   0   4 3265.60   58.39
  -2   0   4 3324.33   59.14
   2   0  -4 3263.61   58.09
   2   0  -3  911.44   10.56
   2   0  -3  930.57   10.80
  -2   0   3  943.60   10.85
  -2   0   3  942.57    9.89
   2   0  -3  908.55    9.59
   2   0  -2  172.57    5.20
   2   0  -2  177.25    5.39
  -2   0   2  185.97    5.91
  -2   0   2  197.69    5.21
   2   0  -2  189.06    4.94
   2   0  -1 1109.83   11.69
  -2   0   1 1100.15   11.96
  -2   0   1 1094.74   11.66
   2   0  -1 1114.42   11.07
   2   0   0 1010.87   10.48
   2   0   0 1045.43   11.16
  -2   0  -1   42.01    2.59
   2   0   1   34.24    2.37
   2   0   1   32.95    2.83
  -2   0  -2 1028.40   11.24
  -2   0  -2 1014.64   10.35
  -2   0  -2  981.30   10.77
  -2   0  -3  451.61   11.45
   2   0   3  425.37   10.65
   2   0   3  429.11   10.18
  -2   0  -3  440.33   10.44
   2   0   3  428.78   11.41
  -2   0  -4  730.26   15.16
   2   0   4  728.92   13.32
  -2   0  -4  729.94   13.29
   2   0   4  725.17   15.05
  -2   0  -5 1442.37   30.20
   2   0   5 1439.56   25.46
  -2   0  -5 1499.91   26.56
   2   0   5 1508.50   28.65
  -2   0  -6  141.71    8.83
   2   0   6  124.62    8.14
  -2   0  -7 1277.42   31.01
   2   0   7 1294.23   30.86
  -2   0  -8  751.27   24.38
   2   0   8  691.17   22.88
   2   0   9  121.40   11.97
   2   0   9   98.51   10.03
   2   0  10  246.83   13.03
   2   0  10  253.06   12.60
   2   0  11  127.79    9.23
   2   0  11  113.80    7.02
   2   0  12   60.69    6.65
   2   0  12   39.49    7.75
   2   0  13   26.82    8.38
   2   0  13   39.24    7.77
  -2  -1  12   67.87   11.49
  -2  -1  12   68.42    9.96
  -2  -1  11   63.49    7.51
  -2  -1  11   63.56    4.79
  -2  -1  10   19.54    3.17
  -2  -1   9   15.58    3.97
   2   1  -9   26.16    2.80
  -2  -1   9   16.14    2.23
  -2  -1   8  423.61   12.96
   2   1  -8  430.85   11.11
  -2  -1   8  395.93   10.29
  -2  -1   8  432.24   11.55
  -2  -1   7  350.62   17.76
   2   1  -7  359.03   17.26
  -2  -1   7  342.45   16.53
  -2  -1   7  305.18   14.93
  -2  -1   6   89.99    7.90
   2   1  -6   88.56    5.52
  -2  -1   6   85.25    5.36
  -2  -1   6   86.67    6.13
   2   1  -6   76.93    5.04
  -2  -1   5 1042.27   26.56
   2   1  -5 1059.52   25.95
  -2  -1   5 1045.63   25.62
  -2  -1   5 1079.72   26.31
   2   1  -5 1040.22   25.39
  -2  -1   4  689.77   14.38
   2   1  -4  739.96   14.46
  -2  -1   4  717.78   13.89
  -2  -1   4  725.03   13.73
   2   1  -4  725.23   13.83
  -2  -1   3 1221.25   14.14
   2   1  -3 1195.47   12.91
  -2  -1   3 1154.92   12.36
  -2  -1   3 1195.25   11.83
   2   1  -3 1194.04   11.94
  -2  -1   2   54.92    4.06
   2   1  -2   55.59    2.57
   2   1  -2   62.67    3.15
  -2  -1   2   52.05    2.86
  -2  -1   2   52.87    1.78
   2   1  -2   59.98    2.09
  -2  -1   1 7565.44   68.38
  -2  -1   1 7487.07   67.62
  -2  -1   0   31.78    1.94
  -2  -1   0   36.96    2.21
   2   1   0   30.42    1.62
   2   1   0   28.38    1.59
  -2  -1  -1   27.71    1.96
   2   1   1   31.19    1.90
   2   1   1   29.54    1.84
  -2  -1  -1   28.01    1.70
   2   1   1   27.47    2.08
  -2  -1  -1   33.20    2.07
  -2  -1  -2  112.85    3.71
   2   1   2  111.66    3.49
   2   1   2  107.62    3.55
  -2  -1  -2  120.58    4.16
  -2  -1  -3  337.52    9.06
   2   1   3  318.95    7.77
  -2  -1  -3  330.52    8.06
  -2  -1  -3  329.98    8.71
  -2  -1  -4  628.88   15.29
   2   1   4  635.72   15.64
  -2  -1  -4  589.16   13.78
   2   1   4  593.14   14.80
  -2  -1  -5  882.53   17.28
   2   1   5  786.52   15.29
   2   1   5  778.27   14.42
  -2  -1  -5  795.33   14.57
   2   1   5  835.13   16.87
  -2  -1  -6  278.85   10.44
  -2  -1  -6  244.61   12.69
  -2  -1  -6  244.98   12.82
  -2  -1  -7  884.08   24.51
  -2  -1  -7  844.80   22.14
  -2  -1  -7  882.29   23.24
   2   1   7  877.28   24.72
  -2  -1  -8  926.60   26.27
  -2  -1  -8  933.01   24.79
  -2  -1  -8  905.83   24.15
   2   1   8  914.29   26.21
   2   1   9  328.22   35.23
  -2  -1  -9  306.61   16.99
  -2  -1  -9  300.91   16.72
   2   1   9  319.12   19.64
   2   1  10  379.33   16.03
   2   1  10  367.72   15.37
   2   1  11   37.39    5.65
   2   1  11   33.57    4.46
   2   1  12    7.39    3.84
   2   1  12   14.38    3.86
   2   1  13   14.09    4.97
   2   1  13   12.23    3.21
  -2  -2  12   36.45    8.42
  -2  -2  11   46.81    7.53
  -2  -2  11   59.28    8.64
  -2  -2  10    7.17    3.53
  -2  -2  10    6.42    2.30
  -2  -2   9    7.38    4.56
   2   2  -9    5.07    1.35
  -2  -2   9    8.06    1.65
  -2  -2   8   24.47    5.76
   2   2  -8   24.14    2.91
  -2  -2   8   13.60    2.01
  -2  -2   8   24.67    3.54
  -2  -2   7  487.15   17.16
   2   2  -7  504.17   15.78
  -2  -2   7  461.79   14.66
  -2  -2   7  461.01   15.00
  -2  -2   6  363.32   18.16
   2   2  -6  385.23   18.26
  -2  -2   6  368.59   17.57
  -2  -2   6  395.48   18.90
   2   2  -6  357.74   17.22
  -2  -2   5  114.19    8.29
   2   2  -5   96.11    5.77
  -2  -2   5   94.68    5.96
  -2  -2   5   94.16    5.77
   2   2  -5  101.29    6.14
  -2  -2   4   34.23    3.92
   2   2  -4   45.06    3.13
  -2  -2   4   36.53    2.82
  -2  -2   4   38.92    2.83
   2   2  -4   44.06    3.13
  -2  -2   3  328.89    9.73
   2   2  -3  312.03    8.79
   2   2  -3  318.30    8.57
  -2  -2   3  328.08    9.01
  -2  -2   3  336.35    8.65
   2   2  -3  320.25    8.29
  -2  -2   2 1941.79   19.70
   2   2  -2 1916.80   19.17
   2   2  -2 1969.48   19.28
  -2  -2   2 1899.97   18.68
  -2  -2   2 1964.41   17.99
   2   2  -2 1958.82   17.96
  -2  -2   1  817.57    9.45
  -2  -2   0   58.10    2.89
  -2  -2   0   44.29    2.60
   2   2   0   45.14    1.26
  -2  -2   0   43.60    1.43
  -2  -2  -1 9009.49   80.75
   2   2   2 3424.44   31.08
   2   2   2 3458.12   32.01
   2   2   2 3431.49   31.72
  -2  -2  -2 3449.68   31.87
   2   2   3  181.53    4.78
   2   2   3  192.67    5.42
  -2  -2  -3  180.68    4.87
   2   2   3  191.28    5.75
  -2  -2  -3  184.77    5.49
  -2  -2  -4   52.52    3.48
   2   2   4   54.93    5.62
   2   2   4   45.49    3.54
  -2  -2  -4   46.14    1.94
  -2  -2  -4   44.47    3.08
  -2  -2  -5  352.60    9.65
   2   2   5  314.44    8.71
   2   2   5  312.54    8.65
  -2  -2  -5  315.24    9.43
   2   2   5  333.61    9.59
  -2  -2  -6  262.45   15.46
   2   2   6  234.32   12.63
  -2  -2  -6  240.20   12.68
  -2  -2  -6  258.05   14.14
   2   2   6  241.85   13.46
  -2  -2  -7  122.67    7.67
  -2  -2  -7  126.77    8.66
  -2  -2  -7  131.29    7.79
   2   2   7  123.34    8.44
   2   2   8  575.89   15.05
  -2  -2  -8  540.88   12.67
  -2  -2  -8  544.54   13.21
   2   2   8  542.13   14.49
   2   2   9  118.84   11.23
  -2  -2  -9  128.75   18.46
  -2  -2  -9  132.22    8.29
   2   2   9  167.45   11.89
   2   2  10  203.42   15.00
  -2  -2 -10  164.12   14.37
  -2  -2 -10  194.21   12.83
   2   2  10  204.27   14.75
   2   2  11   69.84    8.36
  -2  -2 -11   60.47    5.23
   2   2  11   75.21    6.10
   2   2  12   17.88    5.83
   2   2  12   14.56    4.58
   2   2  13    8.90    3.07
   2   2  14   94.83    9.71
   2   2  14   84.95    7.70
  -2  -3  11   76.36   12.30
  -2  -3  10  100.11   11.54
  -2  -3  10  113.36   10.80
  -2  -3   9   41.36    7.95
  -2  -3   9   25.34    3.77
  -2  -3   8    7.30    4.13
   2   3  -8    1.03    1.19
  -2  -3   8    8.18    2.55
  -2  -3   7   88.60    9.49
   2   3  -7   81.55    7.36
  -2  -3   7   71.18    7.80
  -2  -3   7   81.01    7.69
  -2  -3   6  605.32   20.64
   2   3  -6  589.67   18.23
  -2  -3   6  558.84   17.40
  -2  -3   6  609.34   19.26
   2   3  -6  540.19   17.01
  -2  -3   5   81.88    6.13
   2   3  -5  104.41    5.96
  -2  -3   5   98.99    5.65
  -2  -3   5   92.95    5.44
   2   3  -5  101.18    6.06
  -2  -3   4  231.57   13.22
   2   3  -4  215.77   11.97
  -2  -3   4  217.92   11.99
  -2  -3   4  219.98   12.18
   2   3  -4  210.74   11.57
  -2  -3   3   22.26    2.00
  -2  -3   3   30.50    3.34
   2   3  -3   36.32    2.64
  -2  -3   3   27.72    2.37
  -2  -3   3   25.04    2.08
  -2  -3   2  533.18   14.06
   2   3  -2  522.86   13.59
   2   3  -2  547.04   13.93
  -2  -3   2  530.22   13.49
  -2  -3   2  537.47   13.29
  -2  -3   2  535.44   13.26
   2   3  -1  218.20    5.97
   2   3  -1  227.61    6.43
  -2  -3   1  233.09    6.29
  -2  -3   1  229.37    5.54
  -2  -3   1  225.57    5.50
   2   3   0 1325.03   13.14
  -2  -3   0 1308.54   13.41
   2   3   0 1342.53   12.50
  -2  -3   0 1342.54   12.49
  -2  -3  -1  743.75   17.21
   2   3   1  737.89   17.01
   2   3   1  783.20    9.09
  -2  -3  -1  733.59   17.34
   2   3   1  730.87   16.88
  -2  -3  -1  740.79   17.13
  -2  -3  -2 4482.27   40.06
   2   3   2 4451.22   39.78
   2   3   2 4608.24   43.03
   2   3   2 4571.54   41.71
  -2  -3  -3 1010.70    9.84
   2   3   3  978.61    9.49
   2   3   3 1023.22   11.38
  -2  -3  -3  946.03   10.21
   2   3   3 1005.08   11.06
  -2  -3  -3  964.82   10.58
   2   3   4 1308.72   13.38
  -2  -3  -4 1266.66   13.06
  -2  -3  -4 1273.46   13.70
  -2  -3  -5  127.88    4.56
   2   3   5  118.20    3.81
   2   3   5  127.39    4.30
  -2  -3  -5  113.73    3.72
  -2  -3  -5  105.52    4.08
  -2  -3  -6   21.89    2.51
   2   3   6   16.27    2.71
  -2  -3  -6   25.25    2.72
   2   3   6   13.30    2.83
   2   3   7  110.32    6.62
   2   3   7  133.47    8.21
  -2  -3  -7  114.77   10.33
  -2  -3  -7  130.93    7.84
   2   3   7  123.64    8.32
   2   3   8   98.20    6.55
  -2  -3  -8  104.66    9.87
  -2  -3  -8  122.36    7.30
   2   3   8  125.43    8.19
   2   3   9  698.18   22.68
  -2  -3  -9  663.22   20.44
  -2  -3  -9  697.11   21.94
   2   3   9  711.25   23.43
   2   3  10   -0.11    3.51
  -2  -3 -10    3.05    1.40
  -2  -3 -10    7.05    2.02
   2   3  10   22.69    5.56
   2   3  11   40.17    5.85
  -2  -3 -11   42.18    4.38
   2   3  11   35.14    4.74
   2   3  12  130.41   19.45
   2   3  12  160.94    8.14
   2   3  13   94.06   10.11
   2   3  13   85.64    6.96
   2   3  14  135.84   14.46
   2   3  14  142.29   14.34
  -2  -4  10  193.68   14.62
  -2  -4   9   65.56    8.73
  -2  -4   9   61.11    6.15
  -2  -4   8   59.34    9.83
  -2  -4   8   65.33    5.29
  -2  -4   7   43.10    7.37
   2   4  -7   34.14    4.68
  -2  -4   7   48.07    5.90
  -2  -4   6  547.03   16.53
   2   4  -6  556.35   14.00
  -2  -4   6  525.79   12.96
  -2  -4   6  535.75   13.78
  -2  -4   5  390.69   19.93
   2   4  -5  399.05   33.05
  -2  -4   5  347.11   16.46
  -2  -4   5  381.09   18.24
  -2  -4   4   41.70    5.04
   2   4  -4   50.89    3.68
  -2  -4   4   41.65    2.96
  -2  -4   4   35.07    4.47
  -2  -4   4   41.16    3.24
  -2  -4   3   66.29    5.23
   2   4  -3   70.97    6.33
  -2  -4   3   55.05    3.50
  -2  -4   3   60.73    3.82
  -2  -4   3   66.01    4.14
  -2  -4   2  172.50    9.91
  -2  -4   2  190.11   10.64
   2   4  -2  196.17   10.84
  -2  -4   2  180.62    9.69
  -2  -4   2  185.15    9.82
  -2  -4   2  175.19    9.38
  -2  -4   1   93.88    3.23
  -2  -4   1   96.63    4.15
   2   4  -1  111.60    6.51
  -2  -4   1   98.69    3.45
  -2  -4   1   99.69    3.00
  -2  -4   0  227.50    5.92
  -2  -4   0  216.54    6.00
   2   4   0  230.37    7.49
  -2  -4   0  233.78    6.41
   2   4   0  240.25    6.09
  -2  -4   0  235.21    5.90
  -2  -4  -1  675.17   15.73
   2   4   1  686.64   16.53
  -2  -4  -1  665.31   16.01
   2   4   1  666.65   15.65
  -2  -4  -1  664.50   15.53
  -2  -4  -2  400.04    9.26
   2   4   2  405.25    9.37
  -2  -4  -2  411.18   10.40
   2   4   2  420.49   10.34
  -2  -4  -2  399.27    9.80
  -2  -4  -3 1498.42   13.49
   2   4   3 1515.84   13.64
   2   4   3 1591.22   16.62
   2   4   3 1519.16   15.62
   2   4   4  901.00    8.80
   2   4   4  930.84   13.08
   2   4   4  925.08   11.04
  -2  -4  -4  933.16   11.19
   2   4   5  300.59    8.24
   2   4   5  287.81    7.80
  -2  -4  -5  297.65    8.18
  -2  -4  -5  270.70    7.82
   2   4   6  181.25   10.21
   2   4   6  194.28   10.60
  -2  -4  -6  193.82   10.48
   2   4   6  182.24   10.37
   2   4   7  482.42   20.00
   2   4   7  511.82   21.39
  -2  -4  -7  443.32   18.40
  -2  -4  -7  501.68   21.15
   2   4   7  496.10   21.14
   2   4   8  474.83   22.80
  -2  -4  -8  433.65   20.67
  -2  -4  -8  483.34   23.13
   2   4   8  471.71   22.97
   2   4   9  230.58   12.18
  -2  -4  -9  239.39   12.67
   2   4   9  243.40   13.03
   2   4  10   25.63    5.31
  -2  -4 -10   31.95    5.84
   2   4  10   27.24    5.21
   2   4  11  529.88   20.69
  -2  -4 -11  454.93   18.55
   2   4  11  519.56   20.91
   2   4  12  468.34   25.48
  -2  -4 -12  488.84   25.44
   2   4  12  551.08   29.51
   2   4  13  284.32   12.61
   2   4  13  291.50   13.18
   2   4  14   36.42    7.19
   2   4  14   34.01    6.01
  -2  -5  10   79.86    8.60
  -2  -5   9   93.21   10.76
  -2  -5   8   34.58    5.59
  -2  -5   8   19.64    2.34
  -2  -5   7   47.77    6.29
  -2  -5   7   58.03    6.08
  -2  -5   6   26.35    5.04
   2   5  -6   28.82    4.67
  -2  -5   5  797.02   21.50
   2   5  -5  783.81   18.78
  -2  -5   5  713.63   17.27
  -2  -5   5  759.52   18.94
  -2  -5   4  153.83   11.61
   2   5  -4  158.21   12.92
  -2  -5   4  150.33   10.02
  -2  -5   4  144.37    9.81
  -2  -5   4  160.14   11.06
  -2  -5   3  322.15   16.12
   2   5  -3  345.50   16.54
  -2  -5   3  309.23   14.81
  -2  -5   3  287.09   13.81
  -2  -5   3  321.72   15.60
  -2  -5   2  166.69   10.22
   2   5  -2  173.88   10.67
  -2  -5   2  158.28    8.88
  -2  -5   2  167.73    9.22
  -2  -5   2  162.03    9.20
  -2  -5   1  611.96   19.23
  -2  -5   1  662.61   21.15
   2   5  -1  682.86   22.63
  -2  -5   1  637.05   20.08
  -2  -5   1  642.42   19.88
  -2  -5   0 1270.60   23.23
  -2  -5   0 1418.30   26.08
   2   5   0 1437.19   26.68
  -2  -5   0 1349.32   25.04
   2   5   0 1432.10   26.39
  -2  -5   0 1381.57   25.08
  -2  -5  -1  585.86   11.01
  -2  -5  -1  589.97   11.29
   2   5   1  605.47   12.32
  -2  -5  -1  549.60   14.30
   2   5   1  594.12   11.49
  -2  -5  -1  577.97   29.73
  -2  -5  -2 1043.77   18.62
  -2  -5  -2  961.85   17.22
  -2  -5  -2  946.72   17.98
   2   5   2  968.87   18.15
  -2  -5  -2  954.92   17.79
  -2  -5  -3 1137.97   21.43
   2   5   3 1146.33   21.45
  -2  -5  -3 1118.98   20.88
   2   5   4  389.11   10.84
   2   5   4  376.02   10.44
  -2  -5  -4  356.41    9.70
   2   5   5   95.33    3.30
   2   5   5   89.44    2.82
   2   5   5   95.84    4.76
  -2  -5  -5   85.07    3.32
   2   5   5  100.54    4.57
   2   5   6 2991.30  157.67
   2   5   6 2971.84  156.67
   2   5   6 2946.11   70.71
   2   5   7 1371.86   36.42
   2   5   7 1438.50   38.00
  -2  -5  -7 1440.14   38.78
   2   5   7 1448.50   39.07
   2   5   8  569.90   13.74
   2   5   8  618.99   15.30
  -2  -5  -8  601.03   15.41
   2   5   8  614.26   15.72
   2   5   9    2.25    2.57
  -2  -5  -9    7.53    3.04
   2   5   9   19.07    4.81
   2   5  10  707.18   18.38
  -2  -5 -10  726.61   18.76
   2   5  10  744.00   19.97
   2   5  11  265.24   12.19
  -2  -5 -11  251.05   11.04
   2   5  11  240.94   11.80
   2   5  12  365.61   20.10
  -2  -5 -12  357.46   19.44
   2   5  12  336.17   18.70
   2   5  13  421.08   17.46
   2   5  13  396.37   16.35
   2   5  14   56.43    9.55
   2   5  14   53.52    8.71
  -2  -6   9   26.28    8.04
  -2  -6   8   13.49    4.05
  -2  -6   7   28.03    5.86
  -2  -6   7   34.38    5.47
  -2  -6   6  231.41    9.99
   2   6  -6  213.64    6.76
  -2  -6   6  220.78    7.84
  -2  -6   5  298.85   24.91
   2   6  -5  284.23   11.59
  -2  -6   4   80.87    9.11
   2   6  -4   95.18   12.45
  -2  -6   4   91.46    8.53
  -2  -6   4   63.55   10.54
  -2  -6   4   82.18    8.29
  -2  -6   3   44.43    4.48
   2   6  -3   48.08    5.97
  -2  -6   3   39.73    3.16
  -2  -6   3   36.79    5.33
  -2  -6   3   31.67    3.68
  -2  -6   2  881.57   21.39
   2   6  -2  902.17   21.68
  -2  -6   2  805.12   18.83
  -2  -6   2  817.50   18.89
  -2  -6   2  850.41   20.01
  -2  -6   1 1981.55   52.00
  -2  -6   1 2287.97   60.18
   2   6  -1 2298.20   60.44
  -2  -6   1 2102.98   55.16
  -2  -6   1 2162.60   56.40
  -2  -6   0  959.24   23.53
  -2  -6   0  981.98   24.29
   2   6   0  970.88   25.01
  -2  -6   0  870.44   21.62
   2   6   0 1004.36   24.70
  -2  -6   0  970.38   23.68
  -2  -6  -1  695.97   21.53
  -2  -6  -1  733.77   39.01
   2   6   1  750.58   19.21
   2   6   1  736.24   39.47
  -2  -6  -1  727.16   22.62
  -2  -6  -2 2111.19   49.94
  -2  -6  -2 2187.42   51.73
   2   6   2 2225.77   53.87
  -2  -6  -2 2079.19   49.70
   2   6   3  607.23   21.32
   2   6   3  583.08   18.53
  -2  -6  -3  581.83   18.41
   2   6   4  505.36   16.67
   2   6   5  243.06   13.47
   2   6   5  234.17   12.79
   2   6   6  920.98   24.10
   2   6   6  906.05   23.75
  -2  -6  -6  938.50   25.95
   2   6   7 1464.73   32.71
   2   6   7 1528.05   34.23
  -2  -6  -7 1527.98   35.49
   2   6   7 1497.66   34.86
   2   6   8  630.94   17.47
   2   6   8  659.47   18.37
  -2  -6  -8  665.38   20.18
   2   6   8  641.39   18.94
   2   6   9   58.94    7.67
   2   6   9   95.66    8.55
  -2  -6  -9   94.44    9.40
   2   6   9   92.64    8.61
   2   6  10   95.90    9.13
  -2  -6 -10  125.79   12.53
   2   6  10  124.18   12.06
   2   6  11  226.89   10.88
  -2  -6 -11  234.76   11.87
   2   6  11  222.52   11.23
   2   6  12  253.98   14.67
  -2  -6 -12  227.50   13.07
   2   6  12  225.97   13.27
   2   6  13  148.67   11.31
  -2  -6 -13  138.70   10.60
   2   6  13  136.87   10.54
   2   6  14   73.33   11.80
   2   6  14   84.14   10.30
  -2  -7   8   83.33   13.37
  -2  -7   7  119.03   12.56
  -2  -7   6  393.49   19.92
  -2  -7   6  363.74   17.57
  -2  -7   5   95.21    8.76
  -2  -7   5   90.29    6.88
  -2  -7   5   93.94    7.18
  -2  -7   4  242.88   11.82
   2   7  -4  241.91   10.90
  -2  -7   3   40.93    5.86
   2   7  -3   51.98    8.44
  -2  -7   3   46.63    6.01
  -2  -7   2  281.34   17.55
   2   7  -2  271.86   18.62
  -2  -7   2  230.79   13.78
  -2  -7   2  247.39   15.18
  -2  -7   1  737.40   20.93
   2   7  -1  737.07   21.44
  -2  -7   1  685.37   18.85
  -2  -7   0  351.98   16.74
  -2  -7   0  367.74   17.64
   2   7   0  370.83   18.08
   2   7   0  393.26   18.85
  -2  -7   0  345.83   16.43
  -2  -7  -1  733.65   19.94
  -2  -7  -1  761.58   20.62
   2   7   1  767.85   22.91
   2   7   1  803.16   21.94
  -2  -7  -1  678.03   18.40
  -2  -7  -2 1157.91   30.37
   2   7   2 1170.42   31.65
   2   7   2 1181.27   31.64
  -2  -7  -2 1034.09   27.59
  -2  -7  -3  943.32   24.45
  -2  -7  -3  943.68   24.48
   2   7   3  980.06   27.16
   2   7   3  894.96   25.50
   2   7   4  417.61   17.98
   2   7   4  422.95   18.02
   2   7   5  631.32   17.83
   2   7   6  411.13   20.11
   2   7   7 2584.75   56.87
   2   7   7 2640.18   58.09
  -2  -7  -7 2715.64  173.33
   2   7   7 2634.55   59.68
   2   7   8  480.36   13.30
   2   7   8  473.71   13.31
  -2  -7  -8  500.54   16.11
   2   7   8  478.70   14.84
   2   7   9   86.11   10.38
   2   7   9  121.57   11.46
  -2  -7  -9  105.97   11.42
   2   7   9  113.37   11.23
   2   7  10   14.73    2.71
  -2  -7 -10   19.68    4.28
   2   7  10   23.74    4.11
   2   7  11  295.19   12.24
  -2  -7 -11  312.62   13.75
   2   7  11  288.38   14.02
   2   7  12  140.50    6.73
  -2  -7 -12  140.88    7.40
   2   7  12  140.34    7.59
   2   7  13   53.74    6.12
  -2  -7 -13   54.66    6.49
   2   7  13   53.53    6.17
   2   7  14   67.58   10.79
  -2  -7 -14   66.81   10.64
   2   7  14   66.73   10.95
  -2  -8   7  213.45   21.07
  -2  -8   6   92.47   10.20
  -2  -8   5  174.55    8.83
  -2  -8   5  181.45    8.09
  -2  -8   4  242.04   14.32
  -2  -8   4  236.99   12.90
  -2  -8   4  230.79   12.92
  -2  -8   3  193.37   10.18
  -2  -8   3  184.45    9.14
  -2  -8   3  178.43    9.11
  -2  -8   2   41.65    5.71
   2   8  -2   42.49    5.31
  -2  -8   2   30.36    4.16
  -2  -8   1   62.02    9.55
   2   8  -1   80.08    8.23
  -2  -8   0   34.16    4.12
   2   8   0   38.67    5.00
   2   8   0   36.54    5.33
  -2  -8  -1  210.17   13.76
  -2  -8  -1  223.65   11.06
   2   8   1  225.35   11.53
   2   8   1  242.91   12.12
  -2  -8  -2  517.99   14.25
  -2  -8  -2  513.31   14.24
   2   8   2  541.81   16.29
   2   8   2  517.48   15.04
  -2  -8  -3  270.50   12.65
  -2  -8  -3  272.77   12.80
   2   8   3  286.19   14.60
   2   8   3  277.66   13.70
  -2  -8  -4  952.83   23.65
   2   8   4  938.98   22.79
  -2  -8  -5  952.37   23.69
   2   8   5  912.86   21.96
  -2  -8  -6   97.06    8.72
   2   8   6   73.89    6.26
  -2  -8  -7 1033.51   32.85
   2   8   7 1091.56   34.30
   2   8   8 1405.09   32.31
   2   8   8 1450.49   33.32
  -2  -8  -8 1522.82   37.72
   2   8   8 1517.43   36.85
   2   8   9  243.85   15.78
   2   8   9  262.53   17.01
  -2  -8  -9  306.09   21.24
   2   8   9  259.87   17.56
   2   8  10   70.75    4.62
  -2  -8 -10   79.11    7.25
   2   8  10   83.83    6.72
   2   8  11  274.88   13.44
  -2  -8 -11  286.73   16.04
   2   8  11  282.12   14.84
   2   8  12  404.82   19.40
  -2  -8 -12  430.41   21.81
   2   8  12  443.38   22.01
   2   8  13   28.20    6.14
  -2  -8 -13   31.20    7.16
   2   8  13   27.83    6.23
   2   8  14  113.70    8.49
  -2  -8 -14  127.94   10.50
   2   8  14  117.26    9.46
  -2  -9   6   36.46    7.86
  -2  -9   5   77.70   12.16
  -2  -9   4   98.20   11.52
  -2  -9   4   77.48    8.75
  -2  -9   3  130.52   19.06
  -2  -9   3  125.65    9.30
  -2  -9   3  115.27    8.87
  -2  -9   2  261.78   13.53
  -2  -9   2  267.51   13.50
  -2  -9   2  248.58    9.38
  -2  -9   1  106.74    6.99
  -2  -9   1  108.81    6.99
  -2  -9   1  107.88    6.89
  -2  -9   0   41.32    5.40
  -2  -9   0   41.83    6.22
   2   9   0   45.05    7.20
  -2  -9  -1   65.52    9.57
  -2  -9  -1   88.91    8.57
  -2  -9  -1   82.23    8.69
   2   9   1   89.47   13.63
  -2  -9  -2  138.02   12.54
  -2  -9  -2  130.83   12.05
  -2  -9  -2  145.99   14.21
   2   9   2  150.48   16.19
  -2  -9  -3  211.46   12.49
  -2  -9  -3  207.43   13.55
   2   9   3  231.05   17.11
  -2  -9  -4  761.58   26.95
   2   9   4  727.53   23.17
  -2  -9  -5   64.30    7.11
   2   9   5   63.42    8.93
  -2  -9  -6  531.18   18.91
   2   9   6  504.08   16.98
  -2  -9  -7  296.94   18.47
   2   9   7  293.57   17.55
  -2  -9  -8 1170.21   39.63
   2   9   8 1219.74  128.11
   2   9   9  101.81    5.36
  -2  -9  -9   98.12    8.16
   2   9   9  104.86    6.89
   2   9  10  102.63    6.23
  -2  -9 -10  108.81    8.92
   2   9  10  132.28    9.27
   2   9  11  443.85   22.95
  -2  -9 -11  477.88   26.45
   2   9  11  506.29   27.17
  -2  -9 -12  215.80   10.96
   2   9  12  183.72    8.80
  -2  -9 -13  248.45   16.49
   2   9  13  267.00   16.95
  -2  -9 -14  177.67   17.74
   2   9  14  178.51   17.61
  -2 -10   5    5.33    3.18
  -2 -10   4   28.63    5.71
  -2 -10   3   72.47    6.17
  -2 -10   3   74.54    5.60
  -2 -10   3   77.30    5.78
  -2 -10   2  342.94   17.11
  -2 -10   2  345.52   17.36
  -2 -10   2  339.17   16.85
  -2 -10   1  135.05    6.81
  -2 -10   1  125.81    9.37
  -2 -10   1  129.98   18.88
  -2 -10   0  135.18    9.96
  -2 -10   0  161.51    7.30
  -2 -10  -1  532.19   20.65
  -2 -10  -1  531.86   21.61
   2  10   1  570.63   27.01
  -2 -10  -2  311.09   11.79
  -2 -10  -2  313.11   13.43
   2  10   2  350.19   18.38
  -2 -10  -3   75.67    6.80
  -2 -10  -3   84.89    7.74
  -2 -10  -3   87.78    9.81
   2  10   3   93.79   12.79
  -2 -10  -4   11.10    4.03
   2  10   4    8.38    3.59
  -2 -10  -5  317.48   34.30
   2  10   5  301.18   20.59
  -2 -10  -6  230.49   16.91
   2  10   6  253.43   17.21
  -2 -10  -7  103.22    7.83
   2  10   7  107.81    6.98
  -2 -10  -8  148.48   11.22
   2  10   8  130.00    8.66
  -2 -10  -9  100.80    9.98
   2  10   9  100.41    7.98
  -2 -10 -10   83.46    8.80
   2  10  10   86.35    7.44
  -2 -10 -11  124.96    8.98
   2  10  11  110.60    6.75
  -2 -10 -12  129.85   13.42
   2  10  12  132.58   13.09
  -2 -10 -13  315.95   22.28
   2  10  13  334.38   77.51
  -2 -10 -14  143.83   12.45
   2  10  14  137.67   11.15
  -2 -11   3   23.30    6.25
  -2 -11   2  130.01    9.89
  -2 -11   2  109.17   25.50
  -2 -11   2  102.50   11.74
  -2 -11   1  176.80   12.10
  -2 -11   1  159.53   11.19
  -2 -11   1  175.30   12.07
  -2 -11   0  245.34   10.44
  -2 -11   0  218.17    9.93
  -2 -11  -1  338.73   18.03
  -2 -11  -1  321.06   17.85
   2  11   1  340.71   21.83
  -2 -11  -2   83.49    6.17
  -2 -11  -2   91.25    9.02
   2  11   2   81.55   10.86
  -2 -11  -3   28.42    3.04
  -2 -11  -3   23.83    4.34
   2  11   3   30.47    5.87
  -2 -11  -4  106.83    9.05
   2  11   4  119.85   13.27
  -2 -11  -5  206.14   11.83
   2  11   5  196.16   18.79
  -2 -11  -6    7.47    5.73
   2  11   6    8.80    2.12
  -2 -11  -7  198.53    9.21
   2  11   7  197.06   10.80
  -2 -11  -8   12.46    4.67
   2  11   8   18.41    3.43
  -2 -11  -9  113.38    7.82
   2  11   9  116.55    7.45
  -2 -11 -10  104.40    9.46
   2  11  10   83.08    9.62
  -2 -11 -11   36.92    9.18
   2  11  11   21.24    5.05
  -2 -11 -12   79.41   10.31
   2  11  12  102.25   12.01
  -2 -11 -13  258.12   25.43
   2  11  13  265.70   25.52
  -2 -12   1   73.11   10.99
  -2 -12   1   80.50   11.84
  -2 -12   0  145.61   10.92
  -2 -12  -1   34.72    6.84
  -2 -12  -2   16.47    4.26
   2  12   2   14.15    3.43
  -2 -12  -3   21.71    4.41
   2  12   3   22.30    3.66
  -2 -12  -4  176.28   10.04
   2  12   4  174.76   12.59
  -2 -12  -5  102.73    8.38
   2  12   5   87.16   13.39
  -2 -12  -6  116.47    9.23
   2  12   6   94.47   12.10
  -2 -12  -7  102.94    9.03
   2  12   7  110.15   12.22
  -2 -12  -8  126.58   11.51
   2  12   8  106.13   11.93
  -2 -12  -9   73.43    7.09
   2  12   9   45.43    9.94
  -2 -12 -10  357.17   23.32
   2  12  10  317.97   33.42
  -2 -12 -11   53.13    9.33
   2  12  11   72.45   11.40
  -2 -12 -12   40.47    8.69
   2  12  12   51.91    8.88
  -2 -13  -1    9.52    4.29
  -2 -13  -2    3.34    3.63
   2  13   2    6.58    3.11
  -2 -13  -3   30.90    6.48
   2  13   3   29.65    7.11
  -2 -13  -4  300.08   19.08
   2  13   4  341.22   20.66
  -2 -13  -5  132.33   10.59
   2  13   5   96.34   17.91
  -2 -13  -6  127.64   10.40
   2  13   6  109.09   18.79
  -2 -13  -7  253.04   17.31
   2  13   7  205.58   19.93
  -2 -13  -8   54.96    9.09
   2  13   8   55.78   13.40
  -2 -13  -9   98.65   12.96
   2  13   9   63.09   12.32
  -2 -13 -10  358.81   34.33
   2  13  10  314.26   38.17
  -2 -13 -11   76.26   11.10
   2  13  11   60.13   10.18
  -2 -14  -4  175.14   14.35
   2  14   4  166.26   15.91
  -2 -14  -5   82.20    9.33
   2  14   5   41.21    8.73
  -2 -14  -6  126.97   11.39
   2  14   6  133.42   17.03
  -2 -14  -7   98.69   10.09
   2  14   7   67.09   13.22
  -2 -14  -8   20.37    7.01
   2  14   8   11.74    4.52
   3 -11  -9   65.70   10.63
  -3  11   9   50.60   11.56
   3 -11  -8   59.69   11.11
  -3  11   8   46.70    8.76
   3 -11  -7   91.43   14.52
  -3  11   7   93.49   17.96
   3 -11  -6  165.75   13.23
   3 -11  -5   65.21   11.35
  -3  11   5   63.13   12.26
  -3  11   4    3.71    2.11
   3 -11  -4   12.23    4.36
  -3  11   4    7.05    4.35
  -3  11   3   31.27    7.06
   3 -11  -3   46.35    8.92
  -3  11   3   46.32   10.72
  -3  11   2  142.88   23.77
   3 -11  -2  210.39   20.96
  -3  11   2  165.99   28.99
  -3  11   1   61.82   13.64
   3 -11  -1   91.15   14.00
  -3  11   0    5.66    3.13
   3 -11   0   21.90    6.27
  -3  10  10   23.17    7.71
   3 -10  -9   83.13   10.95
  -3  10   9   66.40   12.72
   3 -10  -8  264.36   18.32
  -3  10   8  230.04   29.51
  -3  10   7  207.51   13.57
   3 -10  -7  202.66   15.69
  -3  10   7  164.63   22.22
  -3  10   6  218.79   14.18
   3 -10  -6  211.22   15.23
  -3  10   6  226.65   23.29
  -3  10   5   52.42    5.60
   3 -10  -5   52.51    6.97
  -3  10   4   94.15   13.42
   3 -10  -4   97.60   11.62
  -3  10   4   99.12   16.13
  -3  10   3   60.45    8.58
   3 -10  -3   73.03    8.98
  -3  10   3   62.69   10.39
  -3  10   2   96.97   14.53
   3 -10  -2  121.83   12.79
  -3  10   2  107.93   16.39
  -3  10   1   90.31   12.85
   3 -10  -1  108.03   11.67
  -3  10   0    4.58    2.93
   3 -10   0    9.23    3.47
  -3  10  -1   21.47    5.27
   3 -10   1   25.23    6.83
  -3  10  -2   43.40   12.76
   3 -10   2   85.30   13.60
  -3   9  11   74.29   10.87
   3  -9 -11   92.56   14.59
  -3   9  10  106.35   12.15
   3  -9 -10   93.29   12.58
  -3   9  10   96.20   16.12
  -3   9   9   87.94   14.58
   3  -9  -9   68.01    8.25
  -3   9   9   69.02   11.45
  -3   9   8  211.50    9.07
   3  -9  -8  187.58   11.37
  -3   9   8  174.76   19.74
  -3   9   7  142.57    6.91
   3  -9  -7  128.64    8.71
  -3   9   7  147.63   19.05
  -3   9   6  173.84    7.38
   3  -9  -6  176.61   10.83
  -3   9   6  161.45   18.70
  -3   9   5   89.39    6.74
   3  -9  -5   61.90   10.32
  -3   9   5   81.79   11.06
  -3   9   4   79.76    6.26
   3  -9  -4   55.34    8.27
  -3   9   4   74.81   12.47
  -3   9   3  146.77    6.88
   3  -9  -3  142.52    8.74
  -3   9   3  135.63   17.15
  -3   9   2  148.53   14.17
   3  -9  -2  166.72    9.61
  -3   9   2  168.09   19.09
  -3   9   1  133.21   12.85
   3  -9  -1  136.97    7.92
  -3   9   1  143.29   22.08
  -3   9   0    8.83    2.91
   3  -9   0    8.66    3.35
  -3   9  -1   24.92    3.70
   3  -9   1   19.96    3.62
   3  -9   1   15.77    5.18
  -3   9  -2   46.96   10.92
   3  -9   2   35.64    7.08
   3  -9   2   51.24    9.84
  -3   9  -3   29.20    7.27
   3  -9   3   52.20    9.11
  -3   9  -4   43.70   12.14
   3  -9   4   48.44    7.67
  -3   8  12    7.88    2.97
   3  -8 -12   38.62    8.69
  -3   8  12   13.34    4.65
  -3   8  11   37.85    6.32
   3  -8 -11   49.90    9.20
  -3   8  11   43.53   10.10
  -3   8  10   72.43    5.82
   3  -8 -10   68.55    7.81
  -3   8  10   70.17    6.96
  -3   8   9   84.93    6.69
   3  -8  -9   94.94    9.72
  -3   8   9   84.04   11.34
  -3   8   8  110.22    8.31
  -3   8   8  112.31   14.10
  -3   8   7  284.93   14.20
   3  -8  -7  286.09   16.13
  -3   8   7  241.54   16.21
  -3   8   6   16.07    2.76
   3  -8  -6   15.53    5.41
  -3   8   6   19.53    3.19
  -3   8   5   54.81    5.69
   3  -8  -5   44.61    6.54
  -3   8   5   71.40   10.24
  -3   8   4  170.12    7.80
   3  -8  -4  153.52   10.61
  -3   8   4  172.32   15.96
  -3   8   3   88.00    5.67
   3  -8  -3   91.56    8.70
  -3   8   3   89.33   10.43
  -3   8   2  111.04    7.13
   3  -8  -2  130.71    9.38
  -3   8   2  110.29   12.84
  -3   8   1   60.95    8.41
   3  -8  -1   58.59    7.51
  -3   8   1   67.92   11.62
  -3   8   0  292.47   27.99
   3  -8   0  306.62   13.65
  -3   8  -1   62.84    7.75
   3  -8   1   53.90    6.47
  -3   8  -2   61.95   10.95
   3  -8   2   72.33    6.57
   3  -8   2   48.52    7.46
  -3   8  -3  109.88   15.79
   3  -8   3  106.00    8.24
   3  -8   3  114.69   10.07
  -3   8  -4   58.00   14.86
   3  -8   4   95.52   10.89
  -3   8  -5    8.22    4.88
   3  -8   5   25.67    7.47
  -3   8  -6   22.84    6.69
   3  -8   6   38.27    8.53
  -3   7  12   51.56    8.90
   3  -7 -12   63.93   10.27
  -3   7  12   41.09   11.51
  -3   7  11   24.99    5.27
   3  -7 -11   12.24    5.37
  -3   7  11   21.50    5.27
  -3   7  10   93.79   10.90
   3  -7 -10   72.75    9.17
  -3   7  10   94.27   13.18
  -3   7   9  184.52    8.26
   3  -7  -9  188.67   11.10
  -3   7   9  176.26   16.36
  -3   7   8   73.18    7.49
   3  -7  -8   68.82    9.23
  -3   7   8   78.80   10.60
  -3   7   7    3.98    2.22
   3  -7  -7   15.16    4.76
  -3   7   7    1.66    2.36
  -3   7   6    8.26    2.90
   3  -7  -6    9.99    5.36
  -3   7   6    6.96    3.17
  -3   7   5  380.05   13.68
   3  -7  -5  357.33   14.77
  -3   7   5  405.11   30.53
  -3   7   4  407.62   11.45
   3  -7  -4  405.16   13.87
  -3   7   4  393.29   11.88
  -3   7   3  260.20   15.37
   3  -7  -3  265.35   17.01
  -3   7   3  268.47   26.27
  -3   7   2  114.07   11.24
   3  -7  -2   91.54    9.78
  -3   7   2  110.39   15.90
  -3   7   1   48.28    7.73
   3  -7  -1   39.68    7.11
  -3   7   1   56.75   10.54
  -3   7   0  379.21   20.80
   3  -7   0  366.72   14.22
  -3   7  -1  347.77   22.92
   3  -7   1  335.14   13.88
  -3   7  -2   51.05    9.04
   3  -7   2   55.14    5.75
   3  -7   2   52.55    6.95
  -3   7  -3   78.73   12.25
   3  -7   3   79.21   10.26
   3  -7   3   92.68    9.47
  -3   7  -4   77.74    9.90
   3  -7   4   77.56    6.37
   3  -7   4   79.07    8.47
  -3   7  -5   73.82   12.90
   3  -7   5   94.08   12.01
  -3   7  -6   28.21    8.00
   3  -7   6   56.26   11.59
  -3   7  -7   22.89    8.48
   3  -7   7   31.66    7.24
  -3   6  13   44.89    8.95
   3  -6 -13   61.60    9.05
  -3   6  13   44.14    8.18
  -3   6  12   20.30    4.91
   3  -6 -12   23.81    6.04
  -3   6  12   16.14    3.80
  -3   6  11   78.88    6.51
   3  -6 -11   76.58    6.85
  -3   6  11   84.16    6.45
  -3   6  10   87.26    7.39
   3  -6 -10   84.29    7.73
  -3   6  10  103.73   10.17
  -3   6   9  245.26    9.47
   3  -6  -9  226.75   10.66
  -3   6   9  247.32   19.69
  -3   6   8   81.70    5.93
   3  -6  -8   96.46    7.75
  -3   6   8   84.24   10.39
  -3   6   7   11.48    3.60
   3  -6  -7    7.41    6.25
  -3   6   7    3.43    3.16
  -3   6   6  756.96   19.37
   3  -6  -6  740.77   20.31
  -3   6   6  758.37   21.03
  -3   6   5  299.04   18.21
   3  -6  -5  318.15   20.33
  -3   6   5  327.23   27.00
  -3   6   4  258.80   15.85
   3  -6  -4  266.52   17.20
  -3   6   4  260.61   16.60
  -3   6   3 1027.96   28.79
   3  -6  -3  980.00   28.49
  -3   6   3  995.86   28.40
  -3   6   2  549.51   16.27
   3  -6  -2  506.94   16.17
  -3   6   2  519.70   16.42
  -3   6   1  259.57   13.22
   3  -6  -1  223.47   12.05
  -3   6   1  250.73   13.87
  -3   6   0  111.71   13.62
   3  -6   0   87.80    8.30
  -3   6   0  122.72   16.35
  -3   6  -1  355.88   16.79
   3  -6   1  330.30   20.53
  -3   6  -2   48.62    9.14
   3  -6   2   42.35    6.95
   3  -6   2   40.34    8.10
  -3   6  -3  174.16   16.36
   3  -6   3  152.88    8.87
   3  -6   3  161.99   11.25
  -3   6  -4   65.99    9.22
   3  -6   4   53.92    6.07
   3  -6   4   48.84    6.66
  -3   6  -5   41.67    9.45
   3  -6   5   38.42    7.00
  -3   6  -6   26.24    5.38
   3  -6   6   31.23    4.55
  -3   6  -7   53.65   11.86
   3  -6   7   66.14   10.85
  -3   6  -8   51.93    9.44
   3  -6   8   68.83   11.24
  -3   5  13    5.87    3.64
   3  -5 -13    6.71    3.77
  -3   5  13    5.55    2.74
  -3   5  12   69.65   10.88
   3  -5 -12   90.94    9.87
  -3   5  12   87.78    8.77
  -3   5  11  141.08   11.40
   3  -5 -11  133.53   11.28
  -3   5  11  131.86    9.88
  -3   5  10  166.80    8.54
   3  -5 -10  155.93    8.47
  -3   5  10  166.49    7.57
  -3   5   9  250.00   12.49
   3  -5  -9  226.32   12.15
  -3   5   9  246.94   12.15
  -3   5   8  261.96   18.03
   3  -5  -8  253.64   18.37
  -3   5   8  277.04   29.36
  -3   5   7   46.72    8.08
   3  -5  -7   26.88    5.46
  -3   5   7   48.28    8.93
  -3   5   6  769.65   24.54
   3  -5  -6  795.84   26.52
  -3   5   6  759.29   24.87
  -3   5   5  663.66   19.14
   3  -5  -5  666.97   20.68
  -3   5   5  676.63   21.13
  -3   5   4  191.29   10.70
   3  -5  -4  216.68   12.43
  -3   5   4  223.66   19.59
  -3   5   3 1464.65   33.88
   3  -5  -3 1410.30   33.86
  -3   5   3 1414.24   34.53
  -3   5   2 1284.69   29.98
   3  -5  -2 1219.50   29.55
  -3   5   2 1247.70   29.81
  -3   5   1   99.21    6.25
   3  -5  -1  105.58    7.54
  -3   5   1  124.30   10.97
  -3   5   0  369.23   18.17
   3  -5   0  337.58   17.06
  -3   5   0  360.58   18.02
  -3   5  -1  145.00   10.72
   3  -5   1  148.24   10.68
  -3   5  -2  227.99   14.73
   3  -5   2  187.50   13.08
   3  -5   2  226.89   13.00
  -3   5  -3   84.55    9.79
   3  -5   3   61.75    6.93
   3  -5   3   75.10    7.15
   3  -5   3   92.43   10.58
  -3   5  -4  308.13   21.87
   3  -5   4  238.26   16.20
   3  -5   4  290.70   19.05
   3  -5   4  294.79   20.38
  -3   5  -5  205.45   13.08
   3  -5   5  206.18    8.38
   3  -5   5  209.21   11.38
  -3   5  -6   34.98    6.76
   3  -5   6   34.15    6.26
  -3   5  -7   52.91   12.30
   3  -5   7   42.20    7.43
  -3   5  -8   60.31   12.14
   3  -5   8   52.79    8.90
  -3   5  -9  116.69   12.59
   3  -5   9   97.43   21.93
  -3   4  13   11.67    5.10
  -3   4  13   11.28    3.07
  -3   4  12  132.74    9.78
   3  -4 -12  132.35    9.80
  -3   4  12  127.18    8.83
  -3   4  11  130.45   11.11
   3  -4 -11  146.43   11.49
  -3   4  11  124.38    9.46
  -3   4  10  233.68    9.85
   3  -4 -10  211.14    9.40
  -3   4  10  211.57    8.09
  -3   4   9  537.46   21.29
   3  -4  -9  520.74   20.86
  -3   4   9  497.21   19.32
  -3   4   8  225.70   15.88
   3  -4  -8  222.59   16.09
  -3   4   8  209.88   14.38
  -3   4   7  266.20   16.99
   3  -4  -7  258.68   16.67
  -3   4   7  263.69   16.45
  -3   4   6  329.26   16.61
   3  -4  -6  325.32   17.67
  -3   4   6  300.95   26.25
  -3   4   5  184.53   10.53
  -3   4   5  215.80   18.07
  -3   4   4   78.87    5.79
   3  -4  -4   64.55    5.81
  -3   4   4   79.43    7.53
  -3   4   3  655.77   18.43
   3  -4  -3  691.99   20.14
  -3   4   3  699.99   21.00
  -3   4   2 1194.58   29.76
   3  -4  -2 1194.96   30.22
  -3   4   2 1223.57   30.58
  -3   4   1  396.66   13.49
   3  -4  -1  426.09   15.13
  -3   4   1  438.06   17.49
  -3   4   0  589.26   24.69
   3  -4   0  560.59   23.88
  -3   4   0  581.11   24.61
  -3   4  -1  224.26   12.80
   3  -4   1  219.65   12.75
  -3   4  -1  227.65   12.26
  -3   4  -2  911.18   22.55
   3  -4   2  935.40   22.31
  -3   4  -2  856.86   20.07
   3  -4   2  927.17   23.22
  -3   4  -3 1350.69   37.64
   3  -4   3 1453.95   39.51
  -3   4  -3 1386.48   37.29
   3  -4   3 1453.99   40.85
  -3   4  -4 1383.34   45.17
   3  -4   4 1200.47   36.22
   3  -4   4 1377.52   41.69
   3  -4   4 1325.69   41.86
  -3   4  -5   56.61   11.15
   3  -4   5   40.00    6.44
   3  -4   5   61.45    9.02
   3  -4   5   67.28   11.54
  -3   4  -6   86.51   12.50
   3  -4   6   70.80    6.43
  -3   4  -7  228.84   13.66
   3  -4   7  216.61   10.22
  -3   4  -8   95.05   15.73
   3  -4   8  108.22    7.67
  -3   4  -9  104.19   10.86
   3  -4   9   81.50    9.51
   3  -4  10   39.71    8.95
   3  -4  10   29.49    6.63
  -3   3  13   11.69    4.36
  -3   3  13   19.36    4.69
  -3   3  12  160.97   11.52
   3  -3 -12  167.08   11.39
  -3   3  12  159.59   10.51
  -3   3  11  179.29   10.02
   3  -3 -11  191.46   10.01
  -3   3  11  177.75    8.79
  -3   3  10   66.76    8.30
   3  -3 -10   44.03    5.87
  -3   3  10   58.24    6.18
  -3   3   9  418.67   17.04
   3  -3  -9  416.93   16.90
  -3   3   9  456.01   17.79
  -3   3   8  267.40   16.94
   3  -3  -8  256.15   16.17
  -3   3   8  254.66   15.23
  -3   3   7 1160.97   32.72
   3  -3  -7 1180.63   33.95
  -3   3   7 1184.89   32.87
  -3   3   6  128.67    8.22
   3  -3  -6  149.66   10.11
  -3   3   6  140.00    8.29
  -3   3   5   27.17    4.02
   3  -3  -5   20.16    3.66
  -3   3   5   38.71    5.10
  -3   3   4  186.02   10.65
   3  -3  -4  166.61   10.15
  -3   3   4  196.93   12.27
  -3   3   3  190.28   10.94
   3  -3  -3  175.59    9.73
   3  -3  -3  147.90    9.46
  -3   3   3  189.46   11.65
  -3   3   2 1369.73   25.96
   3  -3  -2 1353.93   26.38
  -3   3   1 1800.00   33.28
   3  -3  -1 1644.55   30.38
   3  -3  -1 1764.39   33.12
  -3   3   1 1587.98   29.42
  -3   3   1 1663.35   31.02
  -3   3   0   53.03    3.48
   3  -3   0   49.67    2.89
   3  -3   0   46.85    3.29
  -3   3   0   38.47    4.40
  -3   3   0   63.26    7.36
  -3   3  -1  310.08   10.81
   3  -3   1  316.97   11.13
  -3   3  -1  303.54   10.32
  -3   3  -2  935.20   24.45
   3  -3   2  956.36   24.07
  -3   3  -2  887.79   21.97
   3  -3   2  905.47   23.47
  -3   3  -3 5143.56  258.39
   3  -3   3 4799.65  124.38
  -3   3  -3 4701.29  121.64
   3  -3   3 4984.70  250.48
  -3   3  -4 1126.72   27.82
   3  -3   4 1098.32   25.09
  -3   3  -4 1084.88   24.58
   3  -3   4 1107.76   27.41
   3  -3   5  124.80    9.15
   3  -3   5  140.40    9.23
   3  -3   5  129.29   10.15
   3  -3   6  481.17   15.33
  -3   3  -7  228.40   15.02
   3  -3   7  192.55   10.74
  -3   3  -8  156.60   24.31
   3  -3   8  136.10   11.44
  -3   3  -9   98.24   13.96
   3  -3   9  121.88    8.65
   3  -3  10   11.32    3.84
   3  -3  11   24.16    8.30
   3  -3  11   23.87    6.02
  -3   2  13   54.79    9.22
  -3   2  13   59.11    7.92
  -3   2  12   62.45   10.84
   3  -2 -12   32.16    5.97
  -3   2  12   40.52    5.76
  -3   2  11   51.99    6.69
   3  -2 -11   64.27    7.11
  -3   2  11   75.88    8.51
  -3   2  10  409.64   20.79
   3  -2 -10  381.79   19.19
  -3   2  10  393.38   19.12
  -3   2   9  119.12    8.23
   3  -2  -9  127.53    8.51
  -3   2   9  120.24    7.17
  -3   2   8  188.27   12.48
   3  -2  -8  164.44   15.91
  -3   2   8  201.47   12.11
  -3   2   7  446.74   14.62
   3  -2  -7  435.81   15.82
  -3   2   7  464.66   13.81
  -3   2   6 1280.64   30.63
   3  -2  -6 1263.48   30.29
  -3   2   6 1237.12   28.80
  -3   2   5  164.70    9.98
   3  -2  -5  195.28   11.77
  -3   2   5  169.53    9.78
  -3   2   4  575.11   18.77
   3  -2  -4  601.29   20.23
  -3   2   4  615.72   20.59
   3  -2  -4  573.51   18.19
  -3   2   3 1558.87   29.92
   3  -2  -3 1534.21   28.26
   3  -2  -2  621.05   13.29
  -3   2   2  577.60   30.12
   3  -2  -2  574.67   29.79
   3  -2  -1  422.93   12.38
  -3   2   1  416.77   11.35
  -3   2   1  429.43   11.59
  -3   2   0  434.71   11.83
   3  -2   0  421.32   11.36
   3  -2   0  427.47   12.02
  -3   2   0  425.63   11.68
  -3   2   0  436.39   11.95
  -3   2  -1  675.27   13.75
   3  -2   1  642.26   12.94
   3  -2   1  680.78   13.85
  -3   2  -1  641.74   12.89
   3  -2   2 1450.64   26.94
  -3   2  -2 1371.13   25.26
   3  -2   2 1289.41   25.04
  -3   2  -3 1577.74   38.67
   3  -2   3 1660.98   39.92
  -3   2  -3 1561.30   37.44
   3  -2   3 1668.61   41.25
  -3   2  -4  153.43   11.99
   3  -2   4  118.96    6.76
  -3   2  -4  146.14    8.28
   3  -2   4  130.42    9.18
  -3   2  -5   45.77    5.58
   3  -2   5   32.60    2.08
  -3   2  -5   32.99    2.21
   3  -2   5   34.88    5.34
  -3   2  -6  330.06   16.60
   3  -2   6  357.19   18.45
  -3   2  -7  282.02   21.11
   3  -2   7  220.87   14.49
  -3   2  -8  272.12   29.06
   3  -2   8  241.01   12.01
  -3   2  -9  269.21   20.75
   3  -2   9  279.21   15.50
  -3   2 -10  148.68   12.06
   3  -2  10  139.62   11.16
   3  -2  11   36.70    7.07
   3  -2  11   24.33    5.99
   3  -2  12   34.77    7.98
   3  -2  12   48.00    8.99
  -3   1  12   22.66    5.83
  -3   1  11   80.20   10.61
   3  -1 -11   59.57    6.20
  -3   1  11   66.87    6.58
  -3   1  10  474.00   25.88
   3  -1 -10  504.00   26.54
  -3   1  10  484.53   25.42
  -3   1   9    1.03    3.63
   3  -1  -9    8.00    3.42
  -3   1   9   12.09    2.19
  -3   1   8   20.65    5.29
   3  -1  -8   22.65    4.82
  -3   1   8   25.40    4.44
  -3   1   7  343.85   17.73
   3  -1  -7  347.18   17.60
  -3   1   7  370.69   17.97
  -3   1   6 1390.41   33.07
   3  -1  -6 1339.95   31.66
  -3   1   6 1393.10   31.95
   3  -1  -6 1214.97   27.84
  -3   1   5  359.32   16.22
   3  -1  -5  345.13   15.25
  -3   1   5  348.60   14.78
   3  -1  -5  323.91   13.64
  -3   1   4  992.33   24.99
   3  -1  -4 1005.74   25.42
  -3   1   4  899.78   22.57
  -3   1   4  987.11   24.24
   3  -1  -4  914.48   22.43
  -3   1   3 3261.47   58.83
   3  -1  -3 3142.67   56.52
   3  -1  -3 3246.13   58.70
  -3   1   3 3167.36   57.05
  -3   1   3 3239.23   58.17
   3  -1  -3 3119.89   55.69
   3  -1  -2 1212.08   13.45
  -3   1   2 1146.69   13.14
  -3   1   2 1251.44   16.02
   3  -1  -2 1218.49   12.84
   3  -1  -1  397.15   10.14
   3  -1  -1  400.07   10.72
  -3   1   1  409.78   11.04
   3  -1  -1  390.30    9.86
  -3   1   0  279.15    7.78
   3  -1   0  267.08    7.24
   3  -1   0  290.59    8.58
  -3   1   0  283.52    9.25
   3  -1   1  544.57   13.43
  -3   1  -1  539.76   13.29
   3  -1   2 1127.78   21.34
   3  -1   2 1187.12   22.12
  -3   1  -2 1117.16   20.73
  -3   1  -3 1681.63   31.65
   3  -1   3 1681.84   30.52
  -3   1  -3 1665.13   30.15
   3  -1   3 1723.71   32.52
  -3   1  -4   32.70    4.30
   3  -1   4   26.82    2.10
  -3   1  -4   27.36    2.20
   3  -1   4   31.40    4.05
  -3   1  -5   21.34    4.15
   3  -1   5   11.77    1.14
  -3   1  -5   18.84    1.79
   3  -1   5   23.90    7.13
  -3   1  -6  239.14   16.09
   3  -1   6  230.27   12.74
  -3   1  -7  302.51   22.46
   3  -1   7  268.07   17.72
  -3   1  -8  371.14   20.86
   3  -1   8  280.23   19.54
  -3   1  -9  303.44   19.10
   3  -1   9  278.67   14.10
  -3   1 -10  154.70    8.47
   3  -1  10  132.75    7.84
   3  -1  11  266.60   18.76
   3  -1  11  232.60   15.85
   3  -1  12  124.93   14.08
   3  -1  12  139.81   14.35
  -3   0  12   36.06    8.47
  -3   0  12   29.32    5.50
  -3   0  11  102.74   11.03
  -3   0  11  106.88   10.32
  -3   0  10  146.89    8.62
   3   0 -10  120.85    8.55
  -3   0  10  128.27    9.25
  -3   0   9  106.94    8.59
   3   0  -9   86.71    6.10
  -3   0   9   73.49    7.05
  -3   0   8   86.86    9.66
   3   0  -8   84.61    8.20
  -3   0   8   78.41    7.45
   3   0  -7  272.54   17.18
  -3   0   7  256.43   15.60
   3   0  -6  281.93   14.43
  -3   0   6  254.33   12.43
   3   0  -6  248.03   12.14
  -3   0   5  689.79   19.74
   3   0  -5  703.48   19.83
  -3   0   5  646.03   18.01
  -3   0   5  695.55   18.85
   3   0  -5  677.68   18.43
  -3   0   4  153.29    9.13
   3   0  -4  161.82    9.68
  -3   0   4  163.86    9.48
  -3   0   4  169.46    9.24
   3   0  -4  153.26    8.30
   3   0  -3 1517.51   28.06
   3   0  -3 1714.22   31.91
  -3   0   3 1646.54   30.43
  -3   0   3 1711.57   30.92
   3   0  -3 1644.29   29.66
   3   0  -2  756.76   19.12
   3   0  -2  811.67   10.73
  -3   0   2  732.92   17.96
  -3   0   2  768.32    8.51
   3   0  -2  788.37    8.53
  -3   0   1  224.90    6.93
   3   0  -1  237.25    6.88
  -3   0   1  227.07    6.94
  -3   0   1  234.50    6.30
   3   0  -1  233.23    6.56
  -3   0   0 3519.57   33.36
   3   0   0 3534.92   33.67
   3   0   0 3414.04   32.53
  -3   0  -1   60.79    2.95
   3   0   1   47.81    3.24
  -3   0  -1   61.13    3.19
   3   0   1   44.78    3.47
  -3   0  -2  100.43    4.01
   3   0   2   89.27    3.44
   3   0   2   96.06    3.61
  -3   0  -2   85.12    3.18
  -3   0  -2   94.03    3.98
  -3   0  -3  571.95   14.34
   3   0   3  536.89   12.97
  -3   0  -3  503.26   12.20
  -3   0  -3  511.87   12.83
  -3   0  -4  494.50   16.44
   3   0   4  474.25   12.02
  -3   0  -4  457.57   11.65
   3   0   4  508.52   14.17
  -3   0  -5  948.93   26.81
   3   0   5  901.10   21.66
  -3   0  -5  884.18   21.34
   3   0   5  955.45   24.83
  -3   0  -6   97.78    8.88
   3   0   6   80.62    5.30
  -3   0  -6   78.14    4.49
   3   0   6   86.43    7.24
  -3   0  -7  186.95   17.78
   3   0   7  151.41   11.24
  -3   0  -8  312.13   19.39
   3   0   8  307.23   19.49
  -3   0  -9  167.66   17.65
   3   0   9  154.27   15.16
  -3   0 -10   96.23    8.52
   3   0  10  139.41   11.75
   3   0  11  207.25   12.32
   3   0  11  219.02   15.59
   3   0  12   88.25   10.02
   3   0  12   73.13   11.82
   3   0  13    6.45    4.24
   3   0  13   11.97    3.71
  -3  -1  12   10.63    4.15
  -3  -1  11   57.90   10.53
  -3  -1  11   40.09    5.45
   3   1 -10   29.61    4.53
  -3  -1  10   28.81    4.54
  -3  -1   9  187.92    9.66
   3   1  -9  170.69    6.20
  -3  -1   9  163.75    6.05
  -3  -1   8   13.06    4.14
   3   1  -8    7.55    2.09
  -3  -1   8    8.02    1.81
  -3  -1   7   51.78    6.84
   3   1  -7   36.09    4.15
  -3  -1   7   37.09    3.85
   3   1  -7   27.23    3.09
  -3  -1   6  140.93    9.09
   3   1  -6  136.54    8.29
  -3  -1   6  116.47    6.76
  -3  -1   6  140.16    7.71
   3   1  -6  133.74    7.59
  -3  -1   5  553.23   23.62
   3   1  -5  507.73   21.30
  -3  -1   5  488.87   20.63
  -3  -1   5  526.70   21.61
   3   1  -5  507.78   20.91
  -3  -1   4  960.82   24.47
   3   1  -4  986.65   24.60
  -3  -1   4  890.75   22.20
  -3  -1   4  967.24   23.39
   3   1  -4  934.51   22.65
  -3  -1   3    7.72    3.86
   3   1  -3    8.06    3.40
  -3  -1   3    6.97    1.97
  -3  -1   3    6.36    0.90
   3   1  -3    4.65    0.84
  -3  -1   2   42.47    2.96
   3   1  -2   42.34    2.82
   3   1  -2   42.29    3.36
  -3  -1   2   44.55    2.59
   3   1  -2   48.45    1.74
  -3  -1   1 3206.90   30.68
  -3  -1   1 3095.48   29.73
  -3  -1   1 3257.66   29.79
   3   1  -1 3186.96   29.18
  -3  -1   0  861.72    9.88
   3   1   0  865.92    8.79
   3   1   0  854.50    8.91
  -3  -1  -1  148.42    4.66
   3   1   1  150.39    4.44
   3   1   1  153.10    4.85
   3   1   1  150.20    4.82
  -3  -1  -2  371.01    9.58
   3   1   2  369.63    9.32
   3   1   2  371.91    9.51
  -3  -1  -2  347.85    8.89
   3   1   2  377.59    9.99
  -3  -1  -2  359.70    9.23
  -3  -1  -3  819.85    9.82
   3   1   3  794.07    9.03
  -3  -1  -3  801.58    8.99
  -3  -1  -3  797.21    9.73
  -3  -1  -4 2039.75   37.43
   3   1   4 1906.13   34.68
   3   1   4 2012.63   36.10
  -3  -1  -4 1974.24   35.45
  -3  -1  -4 2003.13   36.66
  -3  -1  -5  491.81   13.26
   3   1   5  451.11   12.02
   3   1   5  481.70   12.44
  -3  -1  -5  474.75   12.06
   3   1   5  493.52   13.89
  -3  -1  -6  970.62   24.53
   3   1   6  960.49   23.11
  -3  -1  -6  927.01   22.37
   3   1   6  946.33   24.54
  -3  -1  -7  252.63   17.51
  -3  -1  -7  231.20   10.95
   3   1   7  218.07   12.16
  -3  -1  -8  211.16   23.20
  -3  -1  -8  173.90   11.26
  -3  -1  -8  184.56   12.00
   3   1   8  184.41   13.45
  -3  -1  -9  226.58   18.88
   3   1   9  199.42   12.77
   3   1  10   80.06    6.67
   3   1  11    6.26    3.92
   3   1  11    9.83    4.48
   3   1  12   29.61    7.63
   3   1  12   38.91    7.73
   3   1  13    9.30    5.69
   3   1  13    7.67    4.53
  -3  -2  11   16.82    6.31
  -3  -2  10   59.17    7.23
  -3  -2  10   54.88    5.49
  -3  -2   9   70.69    7.39
   3   2  -9   81.74    5.84
  -3  -2   9   78.39    5.89
  -3  -2   8  240.23   11.75
   3   2  -8  244.38   10.20
  -3  -2   7   13.76    6.47
   3   2  -7   11.98    3.56
  -3  -2   7    4.84    2.09
  -3  -2   7    6.85    2.09
  -3  -2   6  331.70   17.52
  -3  -2   6  277.70   13.74
  -3  -2   6  295.08   14.17
   3   2  -6  288.92   13.98
  -3  -2   5  107.00    7.62
   3   2  -5  107.17    6.66
  -3  -2   5  100.26    6.33
  -3  -2   5   99.37    5.59
   3   2  -5  104.11    5.86
  -3  -2   4  336.20   12.14
   3   2  -4  345.87   11.58
  -3  -2   4  313.57   10.75
  -3  -2   4  345.06   10.90
   3   2  -4  332.72   10.62
  -3  -2   3   29.62    2.94
   3   2  -3   26.94    2.35
   3   2  -3   27.10    2.46
  -3  -2   3   28.72    2.41
  -3  -2   3   30.48    1.33
   3   2  -3   29.86    1.51
  -3  -2   2  825.72   16.25
   3   2  -2  829.57   16.12
  -3  -2   2  827.77   16.00
  -3  -2   2  817.55   14.61
   3   2  -2  825.17   14.73
  -3  -2   1 1634.84   16.96
  -3  -2   1 1557.71   16.23
   3   2  -1 1566.11   14.07
   3   2  -1 1542.12   13.90
  -3  -2   0  116.84    4.34
   3   2   0  124.21    3.98
   3   2   0  122.96    4.15
  -3  -2   0  122.59    4.00
   3   2   0  130.88    3.59
  -3  -2  -1 3449.55   32.14
   3   2   1 3397.15   31.57
   3   2   1 3472.63   32.91
   3   2   1 3433.48   31.53
  -3  -2  -1 3373.43   30.87
   3   2   2  587.52   13.95
   3   2   2  612.24   14.79
  -3  -2  -2  618.95   14.91
   3   2   2  611.32   14.72
   3   2   3  101.74    3.38
  -3  -2  -3  102.24    3.45
   3   2   3   96.63    3.78
  -3  -2  -3  108.69    4.33
  -3  -2  -4  252.32    6.86
   3   2   4  238.53    6.52
   3   2   4  248.60    6.57
  -3  -2  -4  264.14    7.01
  -3  -2  -4  249.87    7.12
  -3  -2  -5  582.45   31.04
   3   2   5  547.48   14.15
   3   2   5  568.06   30.31
  -3  -2  -5  572.78   29.52
  -3  -2  -5  567.68   15.14
  -3  -2  -6  454.28   15.07
   3   2   6  426.50   13.98
  -3  -2  -6  414.35   13.16
   3   2   6  454.77   15.48
  -3  -2  -7  237.75   13.15
   3   2   7  219.06   12.92
  -3  -2  -7  209.92   11.45
   3   2   7  232.03   13.35
  -3  -2  -8  302.82   20.28
  -3  -2  -8  283.12   13.42
  -3  -2  -8  287.65   13.76
   3   2   8  286.54   14.81
  -3  -2  -9  372.40   13.48
  -3  -2  -9  333.26   19.55
  -3  -2  -9  368.60   11.88
   3   2   9  367.43   13.70
   3   2  10  195.21   14.47
  -3  -2 -10  152.75   13.38
  -3  -2 -10  169.65   14.97
   3   2  10  176.75   16.41
   3   2  11   51.21    7.36
   3   2  11   34.68    5.23
   3   2  12   43.51    7.54
   3   2  12   46.85    7.74
   3   2  13    7.53    4.14
   3   2  13   17.12    4.26
   3   2  14  102.65   10.26
   3   2  14   68.90    9.64
  -3  -3  11   52.38    9.21
  -3  -3  10  172.58   12.72
  -3  -3   9  135.74    8.82
  -3  -3   9  127.36    6.32
  -3  -3   8  130.92   10.82
   3   3  -8  131.73    9.18
  -3  -3   8  129.57    9.08
  -3  -3   7  223.85   16.53
   3   3  -7  182.44   19.41
  -3  -3   7  154.40   13.79
  -3  -3   7  191.92   12.67
   3   3  -7  150.28   13.42
  -3  -3   6   42.36    5.30
   3   3  -6   40.82    4.08
  -3  -3   6   36.62    3.85
  -3  -3   6   39.88    3.79
   3   3  -6   28.16    2.98
  -3  -3   5  828.29   23.99
  -3  -3   5  779.03   21.56
  -3  -3   5  799.90   22.08
   3   3  -5  815.96   22.13
  -3  -3   4  309.44   14.36
   3   3  -4  311.23   13.37
  -3  -3   4  281.63   12.15
  -3  -3   4  295.91   12.39
   3   3  -4  311.44   12.93
  -3  -3   3   12.09    2.22
   3   3  -3   19.80    2.38
  -3  -3   3   11.74    1.71
  -3  -3   3   12.41    1.00
  -3  -3   2   -0.46    2.74
   3   3  -2    1.44    2.03
   3   3  -2    3.69    1.79
  -3  -3   2    9.11    2.89
   3   3  -1  465.13   12.30
   3   3  -1  477.95   12.65
  -3  -3   1  475.84   12.50
  -3  -3   0 1327.24   13.89
   3   3   0 1279.19   13.18
   3   3   0 1375.78   14.75
  -3  -3   0 1303.05   13.85
   3   3   0 1327.68   12.06
  -3  -3   0 1347.41   12.30
  -3  -3  -1  911.85    9.88
   3   3   1  906.53    9.66
  -3  -3  -1  901.54   10.45
   3   3   1  928.01    9.31
  -3  -3  -1  897.72    9.07
  -3  -3  -2 1766.52   17.05
   3   3   2 1747.50   16.81
   3   3   2 1725.77   17.64
   3   3   2 1734.44   16.98
  -3  -3  -2 1710.44   16.75
  -3  -3  -3  743.86   17.50
   3   3   3  738.85   17.24
   3   3   3  753.36   18.90
   3   3   3  760.79    9.04
  -3  -3  -4   98.79    3.49
   3   3   4   95.94    3.33
  -3  -3  -4  105.00    3.74
   3   3   4   96.27    4.36
  -3  -3  -4   96.47    4.04
  -3  -3  -5   65.02    3.86
   3   3   5   64.74    2.52
   3   3   5   82.62    6.50
  -3  -3  -5   72.46    3.15
  -3  -3  -5   66.43    3.31
  -3  -3  -6    8.39    1.77
   3   3   6    3.73    1.21
   3   3   6    4.06    1.27
  -3  -3  -6    5.22    1.04
   3   3   6    8.35    4.58
  -3  -3  -7  277.40   12.34
   3   3   7  274.20   11.64
  -3  -3  -7  258.30   10.96
   3   3   7  300.62   14.01
  -3  -3  -8  423.58   20.45
  -3  -3  -8  382.29   18.06
  -3  -3  -8  408.11   19.60
   3   3   8  410.50   20.34
  -3  -3  -9  885.01   28.03
  -3  -3  -9  806.17   24.61
  -3  -3  -9  872.83   26.95
   3   3   9  889.32   28.76
   3   3  10  174.78   16.16
  -3  -3 -10  156.15   13.77
  -3  -3 -10  172.69   15.42
   3   3  10  197.05   14.57
   3   3  11  160.71    9.80
  -3  -3 -11  115.87    9.93
   3   3  11  130.17    9.15
   3   3  12  204.96   11.44
   3   3  12  190.46   10.13
   3   3  13  398.06   26.14
   3   3  13  382.33   24.74
   3   3  14  190.48   19.35
   3   3  14  179.10   17.87
  -3  -4  10  114.88   13.13
  -3  -4   9  206.30   15.27
  -3  -4   8   57.56    9.87
  -3  -4   8   37.59    5.25
  -3  -4   7  130.80   10.80
   3   4  -7  111.27    9.20
  -3  -4   7  108.22    6.56
  -3  -4   6    1.65    4.23
   3   4  -6    4.78    1.84
  -3  -4   6    5.26    2.32
  -3  -4   6   10.27    1.88
  -3  -4   5  477.30   17.04
   3   4  -5  494.17   15.71
  -3  -4   5  461.87   14.84
  -3  -4   5  476.44   14.84
  -3  -4   4 1064.61   25.67
   3   4  -4 1055.74   24.46
  -3  -4   4 1002.04   23.25
  -3  -4   4  995.56   22.29
  -3  -4   4 1055.46   23.75
  -3  -4   3   69.07    5.95
   3   4  -3   79.34    5.22
  -3  -4   3   71.42    4.54
  -3  -4   3   63.94    3.60
  -3  -4   3   70.68    4.07
  -3  -4   2   28.05    2.99
   3   4  -2   39.10    3.40
   3   4  -2   31.48    2.55
  -3  -4   2   26.35    2.11
  -3  -4   2   28.79    1.89
  -3  -4   2   27.66    1.69
  -3  -4   1    7.30    3.83
   3   4  -1    5.46    1.99
   3   4  -1    4.23    2.70
  -3  -4   1    4.07    1.68
  -3  -4   1    3.71    0.48
  -3  -4   1    4.55    0.92
  -3  -4   0 2645.23   47.43
   3   4   0 2550.85   45.65
   3   4   0 2657.44   47.94
  -3  -4   0 2508.80   45.24
   3   4   0 2614.59   46.07
  -3  -4   0 2577.55   45.42
  -3  -4  -1 1560.13   15.51
   3   4   1 1529.04   15.03
  -3  -4  -1 1500.60   15.77
   3   4   1 1519.50   14.53
  -3  -4  -1 1550.92   14.79
  -3  -4  -2 1981.96   18.72
   3   4   2 1939.80   18.26
  -3  -4  -2 1937.66   19.57
   3   4   2 1958.00   18.88
  -3  -4  -2 1979.11   19.10
  -3  -4  -3 3055.78   27.97
   3   4   3 3088.53   28.24
   3   4   3 3145.39   30.45
   3   4   3 3068.69   29.24
  -3  -4  -3 2997.99   28.51
  -3  -4  -4 2449.91   43.66
   3   4   4 2352.16   41.76
   3   4   4 2488.49   45.16
  -3  -4  -4 2293.46   41.43
   3   4   4 2434.60   44.10
  -3  -4  -4 2335.71   42.23
  -3  -4  -5    9.22    1.29
   3   4   5    5.01    0.96
   3   4   5   12.32    2.28
  -3  -4  -5    4.00    0.97
   3   4   5    6.07    1.70
  -3  -4  -5    5.56    1.65
  -3  -4  -6   10.35    1.71
   3   4   6    3.80    0.88
   3   4   6    7.71    1.85
  -3  -4  -6    8.37    1.45
   3   4   6    2.46    2.68
  -3  -4  -7   50.80    5.59
   3   4   7   53.54    4.86
   3   4   7   68.44    8.69
  -3  -4  -7   44.91    4.98
   3   4   7   54.77    5.15
  -3  -4  -8 1871.51   42.41
  -3  -4  -8 1881.49   42.61
   3   4   8 1891.26   43.62
   3   4   9  418.65   14.71
  -3  -4  -9  349.85   11.99
  -3  -4  -9  449.14   14.91
   3   4   9  392.58   14.12
   3   4  10   15.31    4.85
  -3  -4 -10   11.08    2.59
   3   4  10   13.85    5.31
   3   4  11  423.53   17.45
  -3  -4 -11  379.70   15.23
   3   4  11  388.96   16.64
   3   4  12  305.59   17.50
  -3  -4 -12  274.44   14.76
   3   4  12  297.42   16.85
   3   4  13  476.30   76.78
   3   4  13  457.87   29.26
   3   4  14  136.14   11.32
   3   4  14  141.76   11.01
  -3  -5   9   49.96    9.56
  -3  -5   8   54.01    7.89
  -3  -5   7   31.83    6.65
   3   5  -7   20.91    3.73
  -3  -5   7   31.42    4.17
  -3  -5   6  153.27   10.51
   3   5  -6  135.93   10.36
  -3  -5   6  135.40    7.33
  -3  -5   5  149.62   15.13
   3   5  -5  130.08   14.99
  -3  -5   5  106.72    9.98
  -3  -5   5  121.44   10.98
  -3  -5   5  126.93   11.68
  -3  -5   4 1167.73   36.94
   3   5  -4 1100.17   33.98
  -3  -5   4 1000.39   30.64
  -3  -5   4  932.21   28.06
  -3  -5   4 1081.14   32.68
  -3  -5   3  683.88   17.49
   3   5  -3  701.20   17.38
  -3  -5   3  620.96   14.87
  -3  -5   3  648.48   14.78
  -3  -5   3  665.73   15.30
  -3  -5   2   73.94    5.32
   3   5  -2   99.35   10.64
  -3  -5   2   74.24    4.61
  -3  -5   2   88.71    4.92
  -3  -5   2   82.24    4.84
  -3  -5   1  201.75   10.84
  -3  -5   1  215.92   11.82
   3   5  -1  226.74   14.53
  -3  -5   1  189.65   10.28
  -3  -5   1  203.28   10.55
  -3  -5   1  205.35   10.78
  -3  -5   0 2267.03   54.18
   3   5   0 2195.76   52.37
   3   5   0 2285.50   54.99
   3   5   0 2203.66   52.30
  -3  -5   0 2151.42   50.89
  -3  -5  -1 1065.56   19.65
   3   5   1 1038.36   19.07
   3   5   1 1075.51   19.62
  -3  -5  -1 1073.59   19.56
  -3  -5  -2  568.55   29.17
   3   5   2  569.96   29.22
  -3  -5  -2  536.61   13.94
   3   5   2  569.66   29.35
  -3  -5  -2  560.40   14.18
   3   5   3 3020.17   54.62
  -3  -5  -4 1025.44   18.44
   3   5   4 1071.99   19.16
   3   5   4 1113.55   21.31
   3   5   4 1072.43   20.38
  -3  -5  -4 1088.62   20.58
  -3  -5  -5 1380.70   32.85
   3   5   5 1371.08   32.61
   3   5   5 1434.43   34.99
   3   5   5 1437.89   35.14
  -3  -5  -6 1739.75   41.55
   3   5   6 1768.54   42.13
   3   5   6 1833.89   44.36
   3   5   6 1851.70   45.17
   3   5   7  695.12   18.77
   3   5   7  741.63   21.83
   3   5   7  712.24   21.72
   3   5   8  635.73   16.70
   3   5   8  734.40   17.73
  -3  -5  -8  746.39   18.58
   3   5   8  722.70   18.35
   3   5   9   97.92    8.82
  -3  -5  -9  110.13    9.92
   3   5   9  101.95    9.66
   3   5  10  225.91   13.87
  -3  -5 -10  237.50   14.24
   3   5  10  231.27   14.76
   3   5  11   60.91    8.00
  -3  -5 -11   78.96    6.13
   3   5  11   66.73    8.26
   3   5  12  128.44   10.05
  -3  -5 -12  145.34    6.78
   3   5  12  132.70    7.53
   3   5  13  203.25    9.62
  -3  -5 -13  207.27    8.95
   3   5  13  205.49   10.22
   3   5  14  116.90    9.65
   3   5  14  131.77   10.59
  -3  -6   9   14.07    5.92
  -3  -6   8   32.26    6.97
  -3  -6   7   32.85    5.31
  -3  -6   6  394.45   20.18
   3   6  -6  339.61   16.62
  -3  -6   6  350.36   16.60
  -3  -6   5  352.85   14.93
   3   6  -5  349.39   15.58
  -3  -6   5  346.56   13.04
  -3  -6   4  184.82   20.52
   3   6  -4  175.95   18.35
  -3  -6   4  144.63   13.29
  -3  -6   4  175.47   15.94
  -3  -6   3 1130.05   35.41
   3   6  -3 1078.26   33.40
  -3  -6   3 1010.78   30.49
  -3  -6   3 1085.94   32.93
  -3  -6   2  175.42   10.42
   3   6  -2  201.65   16.82
  -3  -6   2  169.08    8.79
  -3  -6   2  173.50    9.37
  -3  -6   1 1239.91   33.32
   3   6  -1 1272.31   34.09
  -3  -6   1 1173.30   30.72
  -3  -6   1 1180.28   31.08
  -3  -6   0  406.26   16.83
  -3  -6   0  436.47   18.29
   3   6   0  477.44   20.59
   3   6   0  441.94   18.22
  -3  -6   0  413.93   16.95
  -3  -6  -1  374.28   12.05
  -3  -6  -1  403.39   12.94
   3   6   1  388.47   13.26
   3   6   1  393.67   12.63
  -3  -6  -1  387.48   12.30
  -3  -6  -2  376.67   12.03
  -3  -6  -2  430.69   13.52
   3   6   2  411.93   13.73
   3   6   2  376.84   12.11
  -3  -6  -2  387.37   12.40
  -3  -6  -3  745.42   17.70
  -3  -6  -3  725.44   22.02
   3   6   3  789.93   20.13
   3   6   3  737.72   39.35
  -3  -6  -3  732.58   39.04
   3   6   4  347.21   11.90
   3   6   4  355.00   11.98
  -3  -6  -4  271.04   14.82
   3   6   5 1423.05   33.50
   3   6   5 1484.32   36.45
   3   6   5 1483.85   36.27
   3   6   6  980.83   25.62
   3   6   6  984.16   25.76
   3   6   6  986.41   27.50
   3   6   6 1019.71   27.83
   3   6   7 1803.20   40.06
   3   6   7 1830.13   40.75
   3   6   7 1813.42   41.36
   3   6   7 1772.16   40.71
   3   6   8 1075.67   29.03
   3   6   8 1151.27   31.19
  -3  -6  -8 1189.78   33.35
   3   6   9  875.20   26.85
   3   6   9 1056.14   32.45
  -3  -6  -9 1046.86   33.03
   3   6   9 1073.44   33.83
   3   6  10   85.95    8.54
  -3  -6 -10   91.96    9.51
   3   6  10  101.02   10.09
   3   6  11   17.67    2.95
  -3  -6 -11   19.29    2.99
   3   6  11   17.86    3.59
   3   6  12  290.71   16.09
  -3  -6 -12  248.99   13.92
   3   6  12  286.83   17.00
   3   6  13  146.07   11.30
  -3  -6 -13  137.16   10.19
   3   6  13  134.80   10.57
   3   6  14   89.10   10.93
   3   6  14   80.30    9.73
   3   6  15   67.76    9.83
   3   6  15   69.48    9.84
  -3  -7   8   10.93    4.04
  -3  -7   7  192.76   14.04
  -3  -7   6  418.26   17.45
  -3  -7   5  142.90   11.48
   3   7  -5  115.11   10.53
  -3  -7   5  136.21    9.58
  -3  -7   4   24.34    5.17
   3   7  -4   22.47    4.03
  -3  -7   4   14.71    2.18
  -3  -7   3  321.01   12.85
   3   7  -3  315.11   33.57
  -3  -7   3  281.03   18.37
  -3  -7   2  629.19   20.59
   3   7  -2  606.06   19.30
  -3  -7   2  526.16   16.21
  -3  -7   2  601.76   18.87
  -3  -7   1  289.85   14.50
   3   7  -1  331.54   20.18
  -3  -7   1  241.69   11.50
  -3  -7   1  281.99   13.68
  -3  -7   0  278.45   13.74
  -3  -7   0  301.12   14.71
   3   7   0  322.11   16.02
   3   7   0  302.85   14.46
  -3  -7   0  294.96   13.98
  -3  -7  -1   72.60    7.74
  -3  -7  -1   76.72    4.92
   3   7   1   98.51    9.05
   3   7   1   81.23    4.76
  -3  -7  -1   80.71    4.57
  -3  -7  -2  303.45   12.63
   3   7   2  350.32   22.79
   3   7   2  305.38   13.19
  -3  -7  -2  289.42   12.21
  -3  -7  -3  289.82   11.74
  -3  -7  -3  291.44   11.82
   3   7   3  286.20   14.77
   3   7   3  293.18   12.58
  -3  -7  -3  292.91   12.42
   3   7   4  334.90   15.13
   3   7   4  301.48   13.13
   3   7   5  227.50   18.54
   3   7   5  189.97   10.95
   3   7   6  624.56   15.91
   3   7   6  612.80   15.49
   3   7   7  851.39   19.00
   3   7   7  852.50   19.12
   3   7   7  912.58   22.26
   3   7   7  849.19   20.85
   3   7   8 1158.97   30.96
   3   7   8 1109.35   29.75
  -3  -7  -8 1219.49   36.94
   3   7   8 1218.72   34.07
   3   7   9  991.84   23.40
   3   7   9 1069.34   25.40
  -3  -7  -9 1163.65   29.32
   3   7  10  274.85   18.12
  -3  -7 -10  298.78   20.36
   3   7  10  314.42   33.64
   3   7  11   89.08    6.52
  -3  -7 -11   86.16    7.32
   3   7  11   95.58    7.35
   3   7  12  255.95   14.08
  -3  -7 -12  248.88   14.36
   3   7  12  243.56   14.25
   3   7  13  218.81    9.67
  -3  -7 -13  191.05   15.04
   3   7  13  239.95   11.10
   3   7  14   40.82    6.83
  -3  -7 -14   48.09    8.30
   3   7  14   45.97    7.48
   3   7  15  167.31   13.01
   3   7  15  159.59   12.56
  -3  -8   7  103.03    9.62
  -3  -8   6  110.28   11.53
  -3  -8   5   59.10    7.50
  -3  -8   4  124.80   10.32
   3   8  -4   96.85    9.88
  -3  -8   4   99.66    7.13
  -3  -8   3   29.09    5.16
   3   8  -3   30.37    4.74
  -3  -8   3   18.82    2.56
  -3  -8   2  178.15   16.39
   3   8  -2  189.12   16.72
  -3  -8   2  148.65   13.13
  -3  -8   2  188.57   12.71
  -3  -8   1  172.49   15.99
   3   8  -1  194.10   20.41
  -3  -8   1  151.88   13.75
  -3  -8   1  186.43   11.28
  -3  -8   0  406.71   13.59
   3   8   0  440.24   15.12
   3   8   0  453.50   15.18
  -3  -8   0  415.02   13.12
  -3  -8  -1  148.22   12.36
  -3  -8  -1  165.89   11.25
   3   8   1  180.71   15.29
  -3  -8  -1  150.36   10.01
  -3  -8  -2  559.22   15.99
  -3  -8  -2  609.04   16.80
   3   8   2  605.44   17.87
   3   8   2  593.28   17.49
  -3  -8  -3  276.22   12.86
  -3  -8  -3  279.94   13.06
   3   8   3  317.70   24.08
   3   8   3  283.10   13.88
   3   8   4  233.09   11.68
   3   8   5  244.66   18.58
   3   8   5  224.74   11.64
   3   8   6  170.78   12.37
   3   8   6  178.44   12.29
   3   8   7  146.94   10.56
   3   8   8  545.48   16.42
   3   8   8  543.63   16.41
  -3  -8  -8  587.00   20.25
   3   8   8  554.53   18.70
   3   8   9 1062.40   34.16
   3   8   9 1128.89   36.39
  -3  -8  -9 1173.92   39.42
   3   8   9 1203.67  126.44
   3   8  10  158.24    8.71
  -3  -8 -10  148.45    9.58
   3   8  10  154.66    9.52
   3   8  11  148.73   10.48
  -3  -8 -11  152.18   12.13
   3   8  11  136.55   10.53
   3   8  12  248.43   12.30
  -3  -8 -12  239.77   13.46
   3   8  12  255.34   13.78
   3   8  13  162.63   11.02
  -3  -8 -13  165.82   11.97
   3   8  13  153.30   11.47
   3   8  14  148.45   10.50
  -3  -8 -14  149.60   11.36
   3   8  14  138.26   10.49
  -3  -9   6   25.15    7.01
  -3  -9   5   43.67    7.80
  -3  -9   4   57.87    6.51
  -3  -9   3   23.89    4.57
   3   9  -3   19.32    3.54
  -3  -9   3   18.51    3.26
  -3  -9   2   44.01    5.57
   3   9  -2   38.87    6.13
  -3  -9   2   50.40    5.42
  -3  -9   1  401.53   15.58
   3   9  -1  419.61   20.51
  -3  -9   0   52.91    6.49
   3   9   0   57.78    8.89
  -3  -9  -1  281.45   16.58
  -3  -9  -1  326.23   34.49
   3   9   1  340.01   20.06
   3   9   1  338.51   15.15
  -3  -9  -2  495.22   12.11
  -3  -9  -2  537.01   13.23
   3   9   2  541.54   15.07
   3   9   2  562.43   22.53
  -3  -9  -3 1126.70   33.69
  -3  -9  -3 1134.87   33.96
   3   9   3 1163.52   36.95
   3   9   3 1135.61   34.96
   3   9   4  368.28   20.43
   3   9   4  315.32   19.87
   3   9   5   25.81    3.88
   3   9   5   26.80    3.44
   3   9   6  125.33   10.99
   3   9   6  153.22   10.31
  -3  -9  -7   92.81   14.78
   3   9   7   81.13    8.33
  -3  -9  -8  254.91   18.10
   3   9   8  248.17   16.91
  -3  -9  -9  170.74    9.78
   3   9   9  163.79    9.68
   3   9  10   27.65    2.79
  -3  -9 -10   19.61    4.09
   3   9  10   31.44    4.44
   3   9  11  216.05   30.23
  -3  -9 -11  222.55   13.45
  -3  -9 -12  118.28    8.30
   3   9  12   97.06    7.97
  -3  -9 -13  103.89   11.18
   3   9  13  114.83   11.55
  -3  -9 -14  354.05   33.62
   3   9  14  362.57   34.34
  -3 -10   5   61.49    9.07
  -3 -10   4   56.88    9.31
  -3 -10   3   24.48    5.80
  -3 -10   3   25.09    5.70
  -3 -10   2   41.43    6.86
  -3 -10   2   35.20    5.81
  -3 -10   2   31.80    5.10
  -3 -10   1  339.93   18.44
   3  10  -1  340.62   18.49
  -3 -10   1  300.76   16.26
  -3 -10   0  161.15    6.26
   3  10   0  173.60    7.50
  -3 -10  -1  148.72    9.23
   3  10   1  145.27    9.54
   3  10   1  147.99   11.16
  -3 -10  -2  503.40   18.46
   3  10   2  497.70   19.42
   3  10   2  526.05   20.24
  -3 -10  -3  218.13   14.01
  -3 -10  -3  236.98   15.24
   3  10   3  235.39   16.11
   3  10   3  237.58   16.88
   3  10   4   27.39    4.69
   3  10   4   21.56    3.88
  -3 -10  -5  359.58   14.71
   3  10   5  390.95   24.52
  -3 -10  -6  492.54   18.47
   3  10   6  443.43   15.85
  -3 -10  -7    6.60    5.95
   3  10   7    7.99    2.06
   3  10   8   84.12    6.31
  -3 -10  -9   17.18    6.13
   3  10   9    1.27    2.46
  -3 -10 -10  153.68   19.69
   3  10  10  145.88   10.98
  -3 -10 -11  153.72   10.19
   3  10  11  128.92    7.67
  -3 -10 -12  137.17   14.76
  -3 -10 -13   84.03   11.11
   3  10  13   57.00    9.19
  -3 -10 -14  185.84   15.13
   3  10  14  216.36   16.53
  -3 -11   3    8.90    3.93
  -3 -11   2   29.74    6.17
  -3 -11   1   19.13    4.54
  -3 -11   1   31.82    7.26
  -3 -11   1   15.93    3.73
  -3 -11   0  335.39   16.35
  -3 -11   0  345.31   17.42
  -3 -11  -1   90.67    6.90
  -3 -11  -1   83.47    7.62
   3  11   1   67.41    8.44
  -3 -11  -2   77.74    9.70
  -3 -11  -2   88.83   14.38
   3  11   2   82.22    7.45
  -3 -11  -3   25.50    5.81
   3  11   3   24.55    4.34
  -3 -11  -4   58.40    6.49
   3  11   4   60.88    8.73
  -3 -11  -5  423.31   17.96
   3  11   5  450.08   18.17
  -3 -11  -6   91.87    7.96
   3  11   6   84.95   11.66
  -3 -11  -7  243.02   10.77
   3  11   7  201.69   17.41
  -3 -11  -8  237.48   11.13
   3  11   8  258.70   13.37
  -3 -11  -9  102.86    9.01
   3  11   9  127.06    9.69
  -3 -11 -10   48.66    8.81
   3  11  10   32.69    6.09
  -3 -11 -11  295.94   13.46
   3  11  11  324.49   13.88
  -3 -11 -12  108.98   12.01
   3  11  12  107.30   10.89
  -3 -11 -13   91.28   13.90
  -3 -12   1   40.72    8.06
  -3 -12   0  113.34   11.40
  -3 -12   0   91.54    9.05
  -3 -12  -1   91.86    9.81
  -3 -12  -2   11.43    3.12
   3  12   2    5.35    2.11
  -3 -12  -3   13.90    4.84
  -3 -12  -4   92.94    8.23
   3  12   4   71.63   12.11
  -3 -12  -5  289.51   16.08
   3  12   5  286.85   16.51
  -3 -12  -6  170.04   10.46
   3  12   6  194.98   16.41
  -3 -12  -7  312.43   17.76
   3  12   7  262.06   15.48
  -3 -12  -8  380.75   20.10
   3  12   8  420.58   20.78
  -3 -12  -9  171.12   34.29
   3  12   9  178.02    8.43
  -3 -12 -10   62.78    6.93
   3  12  10   58.66   10.41
  -3 -12 -11  216.53   14.74
   3  12  11  227.00   14.42
  -3 -12 -12   76.86   12.85
   3  12  12   81.25   12.23
  -3 -12 -13   82.14    9.29
   3  12  13   76.72   10.52
  -3 -13  -1  195.21   19.12
  -3 -13  -2   21.83    5.75
   3  13   2   20.11    4.81
  -3 -13  -3   15.13    5.54
   3  13   3    7.00    2.96
  -3 -13  -4  279.25   18.17
   3  13   4  276.87   20.67
  -3 -13  -5  390.13   25.81
   3  13   5  369.30   25.89
  -3 -13  -6  127.15   13.55
   3  13   6  104.36   17.57
  -3 -13  -7  140.03   14.65
   3  13   7  108.91   15.58
  -3 -13  -8  197.33   14.52
   3  13   8  151.33   24.09
  -3 -13  -9   84.76   11.22
   3  13   9   49.28   10.79
   3  13  10  191.27   13.66
  -3 -13 -11   28.86    7.12
   3  13  11   26.09    6.64
  -3 -14  -3   64.61    9.73
   3  14   3   41.52   11.56
  -3 -14  -4  155.94   13.29
  -3 -14  -5   92.09   14.01
   3  14   5   60.17   14.98
  -3 -14  -6  118.74   13.44
   3  14   6   78.93   16.93
  -3 -14  -7   66.49   11.27
   3  14   7   40.14   10.21
  -3 -14  -8   84.87   14.12
   3  14   8   61.88   16.04
  -3 -14  -9  177.49   14.69
   3  14   9  137.53   19.66
   4 -11  -6  207.93   17.22
  -4  11   6  149.11   25.59
   4 -11  -5  121.00   11.59
   4 -11  -4   45.88   10.03
  -4  11   4   30.95    7.31
   4 -11  -3   47.60   10.83
  -4  11   3   37.18    9.76
   4 -10  -9   43.15   10.31
  -4  10   9   34.61    9.85
   4 -10  -8   53.84   11.12
  -4  10   8   50.83   10.33
  -4  10   7  100.93   11.43
   4 -10  -7  153.01   13.13
  -4  10   7  147.67   18.92
  -4  10   6   97.67   11.15
   4 -10  -6  116.33   11.76
  -4  10   6   97.47   19.84
  -4  10   5   29.21    5.37
  -4  10   5   40.23    8.73
  -4  10   4   40.07    6.20
   4 -10  -4   37.58    8.50
  -4  10   4   45.94    9.41
  -4  10   3  112.97   15.77
   4 -10  -3  146.37   11.85
  -4  10   3  113.99   20.96
  -4  10   2   47.24   12.60
   4 -10  -2   70.95   12.56
  -4  10   2   39.10   10.51
  -4  10   1   19.47    5.56
   4 -10  -1   30.10    6.19
  -4  10   0   34.28    7.08
   4 -10   0   58.14   10.42
   4 -10   1   18.62    5.23
   4 -10   1   47.39    9.80
  -4   9  10   60.55    8.52
   4  -9 -10   53.75    9.97
  -4   9  10   54.24   12.06
  -4   9   9   42.71    6.77
   4  -9  -9   35.20    7.18
  -4   9   9   45.21    9.68
  -4   9   8   31.60    5.85
   4  -9  -8   31.82    7.53
  -4   9   8   33.49    7.47
  -4   9   7   84.65    6.22
   4  -9  -7   69.34    7.88
  -4   9   7   78.37    9.07
  -4   9   6   87.11    9.84
   4  -9  -6   65.15    8.59
  -4   9   6   62.40   11.41
  -4   9   5   10.27    2.59
   4  -9  -5    9.30    6.01
  -4   9   5   11.11    3.69
  -4   9   4   33.59    3.67
   4  -9  -4   34.06    6.34
  -4   9   4   25.59    4.60
  -4   9   3   46.38    5.21
   4  -9  -3   43.62    6.04
  -4   9   2  244.13   13.91
   4  -9  -2  252.78   12.80
  -4   9   2  271.73   23.42
  -4   9   1   29.32    5.02
   4  -9  -1   18.93    3.66
  -4   9   0   21.60    5.80
   4  -9   0   18.12    5.25
  -4   9  -1   60.63   13.29
   4  -9   1   76.71   11.72
  -4   9  -2   46.56   10.92
   4  -9   2   61.90    9.87
   4  -9   2   68.52   11.63
  -4   9  -3   29.45    9.57
   4  -9   3   28.86    6.76
  -4   8  11   43.88    8.28
   4  -8 -11   30.85    6.99
  -4   8  11   18.72    7.52
  -4   8  10   71.20   11.23
   4  -8 -10   75.20   10.04
  -4   8  10   59.57   13.19
  -4   8   9   64.28    9.61
   4  -8  -9   87.88   10.45
  -4   8   9   77.24   14.95
  -4   8   8   55.62    5.94
   4  -8  -8   78.56   10.37
  -4   8   8   58.56    8.22
  -4   8   7   87.34    6.98
   4  -8  -7   70.46    7.25
  -4   8   7   95.02   12.82
  -4   8   6    9.38    3.12
   4  -8  -6    5.26    4.55
  -4   8   6   13.39    4.81
  -4   8   5   21.81    4.52
   4  -8  -5    2.91    5.14
  -4   8   5   12.00    5.31
  -4   8   4  113.85    8.74
   4  -8  -4  116.52   11.66
  -4   8   4  104.99   14.80
  -4   8   3  180.50    7.37
   4  -8  -3  189.33    9.17
  -4   8   3  188.68   15.76
  -4   8   2  364.29   18.26
   4  -8  -2  334.39   18.00
  -4   8   2  363.38   28.08
  -4   8   1  119.95   14.37
   4  -8  -1  107.40    9.05
  -4   8   1  133.14   13.63
  -4   8   0   27.34    5.39
   4  -8   0   25.20    5.13
  -4   8  -1  179.82   17.64
   4  -8   1  190.61    9.85
   4  -8   1  209.98   12.29
  -4   8  -2   76.12   11.89
   4  -8   2   93.00   10.77
   4  -8   2   67.16    7.98
  -4   8  -3   60.56   12.68
   4  -8   3   59.03    8.90
   4  -8   3   44.93    7.93
  -4   8  -4    5.71    2.67
   4  -8   4   18.89    6.18
  -4   8  -5   23.55    7.46
   4  -8   5   21.01    6.48
  -4   7  11   10.77    3.83
   4  -7 -11    6.61    4.35
  -4   7  11   15.84    6.03
  -4   7  10   63.98    9.67
   4  -7 -10   71.04   11.56
  -4   7  10   41.92    9.36
  -4   7   9   90.01   10.25
   4  -7  -9  100.14   13.21
  -4   7   9   89.17   11.80
  -4   7   8  384.03   18.95
   4  -7  -8  390.89   20.62
  -4   7   8  388.47   32.44
  -4   7   7   57.69    6.21
   4  -7  -7   61.31    7.92
  -4   7   7   53.96    8.54
  -4   7   6    8.60    3.89
   4  -7  -6    2.40    5.49
  -4   7   6    5.31    2.81
  -4   7   5  539.89   21.54
   4  -7  -5  492.17   21.78
  -4   7   5  526.27   21.48
  -4   7   4  198.23    9.28
   4  -7  -4  183.43   10.84
  -4   7   4  197.58   17.25
  -4   7   3  170.40    8.31
   4  -7  -3  165.47   11.26
  -4   7   3  184.35   15.16
  -4   7   2  182.90    8.88
   4  -7  -2  161.95   10.48
  -4   7   2  184.06   19.35
  -4   7   1  625.95   23.86
   4  -7  -1  585.76   23.86
  -4   7   1  648.59   48.32
  -4   7   0  154.07   17.30
   4  -7   0  149.01   10.71
  -4   7  -1  100.27   11.90
   4  -7   1  102.49    7.90
  -4   7  -2  205.65   20.85
   4  -7   2  215.13    9.01
   4  -7   2  208.41   11.14
  -4   7  -3   20.89    5.09
   4  -7   3   22.69    4.55
   4  -7   3   35.20    8.01
  -4   7  -4   26.84    5.40
   4  -7   4   24.33    4.43
  -4   7  -5   46.71    9.07
   4  -7   5   52.79    8.69
  -4   7  -6   34.04    8.18
   4  -7   6   18.27    5.70
  -4   6  12    5.74    3.32
   4  -6 -12   16.80    6.19
  -4   6  12    9.04    4.17
  -4   6  11   61.92   10.35
   4  -6 -11   56.72    9.78
  -4   6  11   61.75   12.69
  -4   6  10  138.98   13.74
   4  -6 -10  161.45   12.62
  -4   6  10  139.52   17.71
  -4   6   9  100.01    8.18
   4  -6  -9  115.41    9.55
  -4   6   9  112.57   14.44
  -4   6   8  311.83   16.04
   4  -6  -8  324.01   17.91
  -4   6   8  278.67   19.57
  -4   6   7  106.87    7.46
   4  -6  -7  112.54    9.42
  -4   6   7  129.03   11.64
  -4   6   6  327.76   13.36
   4  -6  -6  286.95   14.40
  -4   6   6  273.84   25.34
  -4   6   5  504.69   17.94
   4  -6  -5  462.98   17.88
  -4   6   5  471.26   17.33
  -4   6   4  367.21   10.74
   4  -6  -4  346.01   12.31
  -4   6   4  378.41   12.10
  -4   6   3  141.09   13.76
   4  -6  -3  124.36   13.90
  -4   6   3  127.21   14.59
  -4   6   2  550.19   15.09
   4  -6  -2  551.01   16.31
  -4   6   2  541.02   15.18
  -4   6   1  444.82   12.92
   4  -6  -1  405.81   13.35
  -4   6   1  441.69   13.56
  -4   6   0  198.19   13.83
   4  -6   0  203.02   14.65
  -4   6  -1   37.79    6.86
   4  -6   1   34.80    5.61
  -4   6  -2  292.93   20.93
   4  -6   2  266.50   12.08
   4  -6   2  270.16   13.18
  -4   6  -3  136.65   14.72
   4  -6   3  144.31    9.50
   4  -6   3  119.47    9.10
  -4   6  -4   69.67    9.93
   4  -6   4   73.52    5.86
   4  -6   4   91.71    9.27
  -4   6  -5  143.24   15.78
   4  -6   5  135.29    9.12
  -4   6  -6   36.70    9.10
   4  -6   6   34.00    8.41
  -4   6  -7   44.67    9.18
   4  -6   7   54.23    9.33
  -4   5  12   14.41    4.52
   4  -5 -12   19.93    5.94
  -4   5  12   24.71    6.32
  -4   5  11  175.42   12.47
   4  -5 -11  153.81   11.67
  -4   5  11  144.49   20.20
  -4   5  10   94.14   10.77
   4  -5 -10   92.39   11.23
  -4   5  10   95.53   15.03
  -4   5   9  177.05    8.46
   4  -5  -9  198.09    9.90
  -4   5   9  193.09   19.10
  -4   5   8  216.79   10.95
   4  -5  -8  240.33   13.64
  -4   5   8  251.63   20.23
  -4   5   7  271.08   12.39
   4  -5  -7  271.07   12.85
  -4   5   7  292.92   28.35
  -4   5   6  271.04   16.22
  -4   5   6  279.67   23.90
  -4   5   5  317.69   19.55
   4  -5  -5  332.95   21.07
  -4   5   5  305.16   18.83
  -4   5   4  386.00   13.53
   4  -5  -4  439.41   16.55
  -4   5   4  381.29   24.02
  -4   5   3   31.80    3.86
   4  -5  -3   25.59    4.44
  -4   5   3   33.27    4.92
  -4   5   2  429.57   13.41
   4  -5  -2  462.53   15.28
  -4   5   2  463.27   14.94
  -4   5   1  476.63   14.66
   4  -5  -1  422.28   13.63
  -4   5   1  466.80   23.61
  -4   5   0  242.11   15.23
   4  -5   0  244.88   15.86
  -4   5   0  288.33   18.00
  -4   5  -1  112.01   10.01
   4  -5   1   90.58    8.79
  -4   5  -2  199.01   19.14
   4  -5   2  182.18   17.20
   4  -5   2  153.73   15.15
  -4   5  -3  589.17   31.30
   4  -5   3  561.70   19.38
   4  -5   3  610.31   22.64
  -4   5  -4  522.24   21.06
   4  -5   4  499.22   18.74
   4  -5   4  506.01   20.56
  -4   5  -5  562.33   31.65
   4  -5   5  559.17   26.07
   4  -5   5  579.95   28.89
  -4   5  -6   46.82    9.17
   4  -5   6   43.46    9.43
  -4   5  -7   78.79   11.67
   4  -5   7   60.64    6.57
  -4   5  -8   31.13   10.02
   4  -5   8   30.97    6.78
  -4   5  -9   38.10   12.56
   4  -5   9   84.10    8.56
  -4   4  12   35.36    7.90
   4  -4 -12   35.66    7.35
  -4   4  12   32.00    6.15
  -4   4  11  188.05   13.81
   4  -4 -11  171.72   12.67
  -4   4  11  171.81   11.64
  -4   4  10  105.31    7.99
   4  -4 -10  100.72    9.20
  -4   4  10  113.48   12.09
  -4   4   9  303.03   15.97
   4  -4  -9  257.56   31.74
  -4   4   9  275.95   18.64
  -4   4   8  142.20    9.36
   4  -4  -8  145.36   10.45
  -4   4   8  143.93   16.02
  -4   4   7  123.08   12.18
   4  -4  -7  106.88   11.99
  -4   4   7  134.34   18.03
  -4   4   6  447.63   15.62
   4  -4  -6  432.07   15.93
  -4   4   6  410.73   24.52
  -4   4   5  387.68   19.21
   4  -4  -5  385.54   19.82
  -4   4   5  403.40   13.05
  -4   4   4  119.02    9.19
   4  -4  -4   82.11    7.10
  -4   4   4  113.53   13.21
  -4   4   3  232.70   12.16
   4  -4  -3  217.01   11.88
  -4   4   3  223.16   19.54
  -4   4   2  147.03    9.05
   4  -4  -2  160.65   10.56
  -4   4   2  143.40    8.46
  -4   4   1 1217.17   28.63
   4  -4  -1 1210.66   29.25
  -4   4   1 1220.56   29.25
  -4   4   0  574.53   14.80
   4  -4   0  531.43   14.42
  -4   4   0  611.06   15.85
  -4   4  -1  321.40   16.22
   4  -4   1  316.37   16.08
  -4   4  -2   17.98    3.84
   4  -4   2    0.18    3.08
   4  -4   2   14.27    4.38
  -4   4  -3  540.20   28.66
   4  -4   3  520.19   17.00
  -4   4  -3  430.60   13.92
   4  -4   3  518.17   18.69
  -4   4  -4 2932.00   76.86
   4  -4   4 2937.11  307.02
  -4   4  -4 2723.54   62.75
   4  -4   4 3049.01  319.23
  -4   4  -5  236.45   14.84
   4  -4   5  199.93    8.30
   4  -4   5  240.93    9.84
   4  -4   5  241.81   13.24
  -4   4  -6   45.82    6.44
   4  -4   6   37.40    3.20
   4  -4   6   44.90    6.70
  -4   4  -7   92.34   11.95
   4  -4   7  112.74   10.75
  -4   4  -8  144.25   19.12
   4  -4   8  175.49   10.04
  -4   4  -9   64.86   14.63
   4  -4   9   58.00   10.08
  -4   3  12   61.70   11.44
   4  -3 -12   44.31   10.48
  -4   3  11   55.24   10.37
   4  -3 -11   63.33    6.63
  -4   3  11   57.74   10.12
  -4   3  10  133.03    8.87
   4  -3 -10  118.41    7.94
  -4   3  10  125.50    6.74
  -4   3   9  338.11   17.57
   4  -3  -9  344.69   17.88
  -4   3   9  342.93   16.99
  -4   3   8  420.57   17.04
   4  -3  -8  415.05   17.54
  -4   3   8  437.75   19.33
  -4   3   7  101.59   10.48
   4  -3  -7   87.78    9.37
  -4   3   7  112.32   13.50
  -4   3   6  182.19   12.49
   4  -3  -6  198.59   14.69
  -4   3   6  192.84   18.84
  -4   3   5  572.15   17.16
   4  -3  -5  617.16   19.20
  -4   3   5  580.05   18.16
  -4   3   4  233.36   12.10
   4  -3  -4  220.93   12.91
  -4   3   4  228.02   17.32
  -4   3   3  333.95   14.75
   4  -3  -3  315.57   14.92
  -4   3   3  347.69   15.55
  -4   3   2 1129.54   30.77
   4  -3  -2 1147.49   31.86
  -4   3   2 1087.60   30.62
  -4   3   1  889.66   24.59
   4  -3  -1  924.75   25.99
  -4   3   1  867.93   24.21
  -4   3   0  466.54   19.97
   4  -3   0  466.13   20.48
  -4   3   0  457.61   20.35
  -4   3  -1  235.87   13.14
   4  -3   1  215.15   12.64
  -4   3  -2  115.78    7.24
   4  -3   2   97.81    6.18
  -4   3  -2   80.35    8.30
   4  -3   2   87.60    7.38
  -4   3  -3  719.23   20.99
   4  -3   3  699.06   17.10
  -4   3  -3  651.70   15.65
   4  -3   3  700.43   18.54
  -4   3  -4 1431.59   40.02
   4  -3   4 1480.27   40.07
  -4   3  -4 1373.40   36.95
   4  -3   4 1458.32   41.13
   4  -3   5   47.41    7.11
  -4   3  -5   54.64    8.16
   4  -3   5   55.83   10.56
   4  -3   6   32.82    4.33
   4  -3   6   46.80    5.08
   4  -3   6   51.84    8.42
  -4   3  -7  158.13   17.93
   4  -3   7  123.48    9.28
  -4   3  -8  212.26   12.94
   4  -3   8  233.29   14.80
  -4   3  -9   64.92   11.66
   4  -3   9   74.24    7.27
  -4   3 -10   44.29   10.79
   4  -3  10   42.74    7.80
  -4   2  12   17.22    5.19
   4  -2 -12   36.75    7.10
  -4   2  12   41.92    7.75
  -4   2  11   16.20    5.78
   4  -2 -11    3.18    2.69
  -4   2  11    5.82    2.60
  -4   2  10  109.34    8.16
   4  -2 -10   98.22    7.84
  -4   2  10   90.32    6.62
  -4   2   9  247.83   12.98
   4  -2  -9  265.09   13.28
  -4   2   9  235.11   11.12
  -4   2   8  256.50   17.92
   4  -2  -8  248.14   17.21
  -4   2   8  267.00   17.76
  -4   2   7   86.73   10.22
   4  -2  -7   74.52    8.74
  -4   2   7   66.98   10.19
  -4   2   6  226.99   12.54
   4  -2  -6  204.47   14.94
  -4   2   6  233.58   15.99
  -4   2   5 1206.63   28.95
   4  -2  -5 1212.14   29.69
  -4   2   5 1228.21   29.09
  -4   2   4  149.83    9.70
   4  -2  -4  180.10   11.54
  -4   2   4  148.12    8.82
  -4   2   3  682.58   22.08
   4  -2  -3  728.99   39.74
  -4   2   3  654.47   21.29
  -4   2   2 1952.41   47.53
   4  -2  -2 1926.78   47.38
  -4   2   2 1781.38   44.95
  -4   2   1   40.30    3.53
   4  -2  -1   53.23    5.56
   4  -2  -1   37.16    4.22
  -4   2   0  910.60   23.09
   4  -2   1  710.80   22.74
  -4   2  -1  647.94   20.61
   4  -2   2   57.45    4.28
  -4   2  -2   65.35    4.62
   4  -2   2   63.11    6.29
  -4   2  -3   14.24    2.79
   4  -2   3    7.03    1.67
  -4   2  -3   13.10    2.12
   4  -2   3   12.91    5.81
  -4   2  -4  213.38   13.64
   4  -2   4  190.34   10.31
  -4   2  -4  191.25   10.34
   4  -2   4  206.36   15.03
  -4   2  -5  564.24   18.78
   4  -2   5  554.22   15.42
  -4   2  -5  548.88   15.23
   4  -2   5  545.56   17.21
  -4   2  -6    2.72    2.21
   4  -2   6    6.08    1.83
  -4   2  -6   14.30    2.54
   4  -2   6   12.16    5.21
  -4   2  -7  135.68   17.22
   4  -2   7  152.55   15.08
  -4   2  -8  136.50   14.94
   4  -2   8  137.86   10.37
  -4   2  -9  276.51   18.35
   4  -2   9  246.92   13.98
  -4   2 -10  112.11   22.33
   4  -2  10  167.86   12.49
  -4   2 -11   43.45   11.21
   4  -2  11   40.48    8.39
  -4   1  12    6.19    4.13
  -4   1  11   56.42   11.45
   4  -1 -11   68.17    9.94
  -4   1  11   61.69    8.98
  -4   1  10   54.23    6.74
   4  -1 -10   36.12    6.03
  -4   1  10   59.10    4.57
  -4   1   9   96.34    8.59
   4  -1  -9  117.31    9.47
  -4   1   9  105.81    7.91
  -4   1   8   12.45    3.86
   4  -1  -8   15.69    3.35
  -4   1   8   17.25    2.72
  -4   1   7   14.54    4.83
   4  -1  -7   21.58    5.73
  -4   1   7   10.86    2.38
  -4   1   6  280.57   15.18
   4  -1  -6  272.15   14.32
  -4   1   6  283.92   15.76
  -4   1   5  479.37   23.41
   4  -1  -5  484.05   23.61
  -4   1   5  520.53   12.88
   4  -1  -5  456.70   21.56
  -4   1   4  583.44   24.68
   4  -1  -4  600.21   17.95
  -4   1   4  573.64   24.81
   4  -1  -4  574.69   23.65
  -4   1   3  311.67   10.47
   4  -1  -3  306.62   10.11
  -4   1   2  777.76   18.66
   4  -1  -2  749.61   14.51
   4  -1  -1  172.81    5.60
   4  -1  -1  181.00    6.92
  -4   1   1  198.10    6.32
   4  -1  -1  176.28    7.75
  -4   1   0  157.49    5.64
   4  -1   0  137.74    4.69
   4  -1   0  144.14    5.91
  -4   1   0  147.93    5.53
   4  -1   0  147.75   10.77
   4  -1   2  256.52    8.00
  -4   1  -2  217.89    6.66
  -4   1  -3  213.29   12.22
   4  -1   3  228.36   12.43
  -4   1  -3  210.64   11.55
   4  -1   3  224.39   12.96
  -4   1  -4   40.76    4.59
   4  -1   4   20.11    2.35
  -4   1  -4   38.40    3.38
   4  -1   4   30.09    4.33
  -4   1  -5  152.29   11.17
   4  -1   5  118.63    6.50
  -4   1  -5  121.03    6.81
   4  -1   5  148.73    9.59
  -4   1  -6  221.39   14.11
   4  -1   6  210.69   13.65
  -4   1  -6  207.18   13.50
   4  -1   6  238.46   13.33
  -4   1  -7  154.69   19.47
   4  -1   7  118.76   10.72
  -4   1  -7  122.04   10.90
   4  -1   7  145.28   14.71
  -4   1  -8  238.15   18.29
   4  -1   8  272.16   13.25
  -4   1  -9  247.05   24.65
   4  -1   9  254.51   11.05
  -4   1 -10  163.48   19.72
   4  -1  10  205.27   11.19
  -4   1 -11   79.82   15.63
   4  -1  11   90.18    9.62
   4  -1  12   38.01    8.10
   4  -1  12   39.21    7.98
  -4   0  12   48.96    8.91
  -4   0  11   78.11   12.74
   4   0 -11   59.89    8.74
  -4   0  11   72.04   10.34
  -4   0  10   37.63    6.31
   4   0 -10   33.60    3.47
  -4   0  10   37.01    3.23
  -4   0   9   44.45    6.44
   4   0  -9   27.41    3.65
  -4   0   9   38.08    4.16
  -4   0   8   47.60    6.55
   4   0  -8   45.77    5.86
  -4   0   8   46.08    5.35
   4   0  -7    2.63    3.25
  -4   0   7    4.47    2.43
  -4   0   6   25.51    4.53
   4   0  -6   34.00    4.53
  -4   0   6   22.51    2.41
   4   0  -6   28.43    2.79
  -4   0   5   35.40    4.74
   4   0  -5   29.22    3.95
  -4   0   5   44.56    5.44
   4   0  -5   32.96    2.54
  -4   0   4  759.42   21.62
   4   0  -4  798.26   22.47
  -4   0   4  787.97   21.42
   4   0  -4  731.79   19.65
  -4   0   3 1255.05   31.22
  -4   0   3 1265.94   31.47
   4   0  -3 1214.56   29.31
   4   0  -2  159.73    5.45
  -4   0   2  149.29    5.28
  -4   0   2  168.59    5.08
   4   0  -2  152.36    4.64
  -4   0   1   22.79    3.17
   4   0  -1   23.02    2.41
   4   0  -1   25.52    2.83
  -4   0   1   25.42    3.06
  -4   0   1   37.41    3.29
   4   0  -1   34.33    3.44
  -4   0   0  590.78   12.46
   4   0   0  601.21   12.75
   4   0   0  564.63   14.32
  -4   0  -1  428.31   11.93
   4   0   1  417.81   11.64
  -4   0  -1  414.42   11.26
   4   0   1  414.79   10.90
   4   0   1  436.56   12.00
  -4   0  -2 1912.49   35.23
   4   0   2 1660.20   30.57
   4   0   2 1848.46   34.02
  -4   0  -2 1760.43   32.27
  -4   0  -3  202.43    6.73
   4   0   3  207.99    6.31
  -4   0  -3  210.44    6.30
  -4   0  -4  703.73   23.53
   4   0   4  714.05   22.37
  -4   0  -4  665.61   20.89
   4   0   4  726.09   23.82
  -4   0  -5  261.18   17.15
   4   0   5  236.89   12.37
  -4   0  -5  233.79   12.81
   4   0   5  267.98   12.98
  -4   0  -6  349.47   22.59
   4   0   6  332.55   15.65
  -4   0  -6  326.25   15.48
   4   0   6  367.83   19.20
  -4   0  -7  119.51   12.90
   4   0   7   94.09    7.63
  -4   0  -7   95.97    6.49
   4   0   7   88.73    8.47
  -4   0  -8  162.04   19.75
   4   0   8  122.91   13.07
  -4   0  -9   82.17   11.03
   4   0   9   85.09    7.42
  -4   0 -10  185.83   16.81
   4   0  10  177.05    9.02
  -4   0 -11  110.07    9.82
   4   0  11   84.16   10.07
   4   0  12   80.94   11.79
   4   0  12   46.72   11.51
  -4  -1  11   46.51    8.30
   4   1 -10   87.41    9.53
  -4  -1  10   83.02    8.93
  -4  -1   9  154.87    9.68
   4   1  -9  145.20    6.21
  -4  -1   9  153.01    6.26
  -4  -1   8  161.12   10.38
   4   1  -8  151.89   14.19
  -4  -1   7   36.23    5.53
   4   1  -7   39.57    5.23
  -4  -1   7   47.11    5.41
   4   1  -7   28.69    3.60
  -4  -1   6   20.61    4.05
   4   1  -6   25.67    3.99
  -4  -1   6   26.61    2.81
   4   1  -6   15.24    2.04
  -4  -1   5  162.24   10.00
   4   1  -5  173.36   10.05
  -4  -1   5  175.53    9.35
   4   1  -5  151.85    8.15
  -4  -1   4  298.05   13.94
   4   1  -4  300.50   13.50
  -4  -1   4  299.01   12.70
   4   1  -4  281.50   11.79
  -4  -1   3 1090.89   27.61
   4   1  -3  965.73   24.41
  -4  -1   3 1019.85   24.68
   4   1  -3  990.83   23.85
  -4  -1   2  485.28   13.29
  -4  -1   2  499.29   12.54
   4   1  -2  486.71   12.19
  -4  -1   1 1670.35   30.95
   4   1  -1 1648.84   30.99
  -4  -1   1 1508.31   28.11
  -4  -1   1 1588.22   28.57
   4   1  -1 1538.46   27.91
  -4  -1   0 1370.58   25.53
   4   1   0 1462.42   27.44
   4   1   0 1340.23   24.31
   4   1   0 1367.56   24.96
  -4  -1  -1  110.87    4.78
   4   1   1  100.38    3.61
   4   1   1  110.01    4.77
  -4  -1  -1  108.84    3.94
   4   1   1  116.44    4.40
  -4  -1  -2  953.96   18.44
  -4  -1  -2  912.17   17.50
   4   1   2  927.04   18.00
  -4  -1  -2  851.54   16.26
  -4  -1  -3  737.87   14.85
   4   1   3  738.19   14.47
  -4  -1  -3  720.44   14.14
  -4  -1  -3  701.25   13.96
  -4  -1  -4 1700.52   31.65
   4   1   4 1651.97   30.26
  -4  -1  -4 1630.30   29.85
  -4  -1  -5  483.86   17.74
   4   1   5  485.91   15.42
  -4  -1  -5  491.89   15.66
   4   1   5  498.03   16.93
  -4  -1  -6  440.34   23.70
   4   1   6  455.87   21.69
  -4  -1  -6  435.42   18.01
   4   1   6  470.70   20.81
  -4  -1  -7  130.75   13.49
   4   1   7  136.27    9.84
  -4  -1  -7  114.42    6.33
   4   1   7  142.96    9.93
  -4  -1  -8   67.82   10.22
   4   1   8   46.55    4.65
  -4  -1  -8   44.40    4.02
   4   1   8   42.52    5.54
  -4  -1  -9  266.75   23.61
  -4  -1  -9  215.00   13.73
  -4  -1  -9  219.61   14.04
   4   1   9  245.04   17.82
  -4  -1 -10  237.28   18.40
   4   1  10  228.76   12.02
  -4  -1 -11   41.10    7.12
   4   1  11   40.84    7.57
   4   1  12   39.49    8.07
   4   1  12   26.21    6.42
   4   1  13   55.23   10.64
   4   1  13   48.39    8.61
  -4  -2  11   30.25    6.96
  -4  -2  10   83.76    9.32
  -4  -2   9  276.18   15.01
   4   2  -9  346.58   16.61
  -4  -2   9  344.36   16.34
  -4  -2   8  244.76   13.69
   4   2  -8  245.04   11.37
  -4  -2   8  221.47    9.93
  -4  -2   7  383.52   15.81
   4   2  -7  343.28   12.44
  -4  -2   7  363.93   12.47
   4   2  -7  296.36   19.20
  -4  -2   6  123.50   11.50
   4   2  -6  112.44   10.08
  -4  -2   6  108.75    9.00
   4   2  -6  101.77    8.58
  -4  -2   5   49.11    5.09
   4   2  -5   53.69    4.71
  -4  -2   5   54.37    3.88
   4   2  -5   52.94    4.04
  -4  -2   4  548.54   23.93
   4   2  -4  508.07   21.47
  -4  -2   4  505.68   20.55
   4   2  -4  501.42   20.46
  -4  -2   3  749.11   19.79
   4   2  -3  764.47   19.71
  -4  -2   3  673.04   21.51
  -4  -2   3  753.36   18.16
   4   2  -3  738.65   17.78
  -4  -2   2  505.12   13.75
   4   2  -2  541.12   14.60
  -4  -2   2  528.93   14.03
  -4  -2   2  570.07   29.15
   4   2  -2  538.99   13.19
  -4  -2   1   33.60    2.82
   4   2  -1   29.75    2.80
   4   2  -1   41.79    3.94
  -4  -2   1   48.08    4.03
   4   2  -1   36.95    1.46
   4   2  -1   33.43    1.67
  -4  -2   0   55.67    3.93
   4   2   0   42.14    2.94
  -4  -2   0   45.91    2.79
   4   2   0   57.84    1.98
   4   2   0   54.64    2.37
  -4  -2  -1 1158.89   12.90
   4   2   1 1124.07   12.28
   4   2   1 1157.12   13.21
   4   2   1 1156.38   12.16
   4   2   2  513.21   12.61
   4   2   2  544.10   13.56
   4   2   2  550.04   13.65
  -4  -2  -2  523.67   12.74
   4   2   3 2354.69   42.40
  -4  -2  -3 2347.57   42.38
   4   2   3 2460.46   44.64
  -4  -2  -3 2321.84   42.01
  -4  -2  -4   45.76    3.06
   4   2   4   54.84    2.66
   4   2   4   53.27    2.74
  -4  -2  -4   46.53    2.52
   4   2   4   52.36    3.63
  -4  -2  -4   52.06    2.89
  -4  -2  -5  567.06   20.14
   4   2   5  559.83   17.74
  -4  -2  -5  538.11   17.07
  -4  -2  -6  621.71   20.07
   4   2   6  598.89   18.44
  -4  -2  -6  556.92   22.87
   4   2   6  635.28   18.90
  -4  -2  -7  328.16   22.44
   4   2   7  308.26   16.45
  -4  -2  -7  305.73   14.55
   4   2   7  304.15   15.63
  -4  -2  -8   98.37   12.49
   4   2   8   88.14    8.30
  -4  -2  -8   70.91    4.97
   4   2   8   69.17    6.46
  -4  -2  -9  239.88   25.34
  -4  -2  -9  174.48   15.73
  -4  -2  -9  194.64   11.34
   4   2   9  203.95   13.19
  -4  -2 -10  279.21   19.78
  -4  -2 -10  246.15    9.79
   4   2  10  244.12   12.06
  -4  -2 -11   64.68    7.70
   4   2  11   54.48    7.46
   4   2  12   58.84    7.27
   4   2  12   77.25    9.71
   4   2  13  109.26   26.31
   4   2  13  103.38   12.54
  -4  -3   9  149.08   12.85
  -4  -3   8  199.32   10.37
   4   3  -8  199.23    7.75
  -4  -3   8  166.79    6.25
  -4  -3   7  259.59   13.07
   4   3  -7  243.47   10.28
  -4  -3   7  224.71    9.05
  -4  -3   6  274.78   17.00
   4   3  -6  256.66   15.08
  -4  -3   6  255.24   14.43
   4   3  -6  225.60   12.84
  -4  -3   5   26.16    4.31
   4   3  -5   21.74    3.17
  -4  -3   5   20.27    1.99
   4   3  -5   24.83    2.57
  -4  -3   4  431.85   21.34
   4   3  -4  446.40   21.46
  -4  -3   4  425.60   19.71
   4   3  -4  414.43   19.24
  -4  -3   3  603.51   17.71
   4   3  -3  577.63   24.10
  -4  -3   2 1824.97   44.50
   4   3  -2 1777.06   43.26
   4   3  -1  135.18    4.99
   4   3  -1  133.22    5.01
  -4  -3   1  121.46    4.32
  -4  -3   0  311.75    8.80
   4   3   0  298.65    8.31
  -4  -3   0  295.37    8.38
   4   3   0  327.47    8.12
   4   3   0  305.87    7.66
  -4  -3  -1 2072.36   37.55
   4   3   1 2049.03   37.02
  -4  -3  -1 1997.93   36.49
   4   3   1 2083.33   37.16
  -4  -3  -1 2039.36   36.33
  -4  -3  -2 1312.93   24.24
   4   3   2 1305.44   23.96
   4   3   2 1321.83   24.77
   4   3   2 1305.47   23.94
  -4  -3  -2 1265.53   23.17
  -4  -3  -3 1299.57   23.98
   4   3   3 1260.63   23.16
   4   3   3 1296.65   24.23
  -4  -3  -3 1244.64   23.24
   4   3   3 1282.09   23.94
  -4  -3  -3 1293.63   23.98
  -4  -3  -4 1240.71   23.07
   4   3   4 1193.90   22.09
   4   3   4 1225.13   22.97
  -4  -3  -4 1202.22   22.53
   4   3   4 1226.65   23.28
  -4  -3  -4 1237.92   23.32
  -4  -3  -5  201.37   13.10
   4   3   5  173.95    9.45
   4   3   5  181.10   10.31
  -4  -3  -5  171.83    9.36
  -4  -3  -6  396.34   13.22
   4   3   6  366.24   12.06
   4   3   6  387.84   12.66
  -4  -3  -6  365.74   11.96
  -4  -3  -7  392.59   16.83
   4   3   7  395.13   17.74
  -4  -3  -7  387.82   18.40
   4   3   7  386.68   17.20
  -4  -3  -8  541.97   16.27
   4   3   8  500.83   14.70
  -4  -3  -8  502.76   14.19
   4   3   8  507.50   16.01
  -4  -3  -9  712.89   23.98
  -4  -3  -9  694.75   21.46
   4   3   9  758.22   25.08
  -4  -3 -10  390.81   14.53
  -4  -3 -10  339.55   11.53
  -4  -3 -10  380.06   13.13
   4   3  10  394.15   15.54
  -4  -3 -11  120.92    8.61
   4   3  11  132.06   11.00
   4   3  12   43.43    8.09
   4   3  12   50.17    8.82
   4   3  13  129.82   10.60
   4   3  14  270.58   21.06
   4   3  14  245.85   18.69
  -4  -4  10   44.46    9.56
  -4  -4   9   37.20    8.26
  -4  -4   8   80.09    7.84
   4   4  -8   52.26    7.60
  -4  -4   7    6.51    4.04
   4   4  -7   12.76    1.93
  -4  -4   6   79.85    7.46
   4   4  -6   90.76    5.59
  -4  -4   6   77.59    4.23
  -4  -4   5  556.23   16.04
   4   4  -5  542.76   14.20
  -4  -4   5  506.22   12.01
  -4  -4   5  521.30   12.28
  -4  -4   4  358.00   18.42
   4   4  -4  342.88   16.68
  -4  -4   4  336.21   15.51
  -4  -4   4  354.05   16.34
  -4  -4   3  471.05   22.87
   4   4  -3  421.26   20.18
  -4  -4   2  474.42   20.34
   4   4  -2  423.25   18.00
  -4  -4   1 1182.71   29.32
   4   4  -1 1040.58   25.59
   4   4  -1 1147.68   28.43
  -4  -4   1  969.41   24.01
  -4  -4   0  752.12   14.87
   4   4   0  687.72   13.57
   4   4   0  688.87   12.21
   4   4   2 1125.66   20.73
   4   4   2  947.50   18.47
  -4  -4  -3  875.55   16.40
   4   4   3  843.96   15.76
   4   4   3  881.14   17.22
   4   4   3  858.05   16.42
  -4  -4  -3  842.90   16.09
  -4  -4  -4 3913.93   69.48
   4   4   4 3744.36   66.39
   4   4   4 3907.94   69.92
  -4  -4  -4 3654.43   65.41
   4   4   4 3973.22   71.06
  -4  -4  -4 3721.31   66.53
  -4  -4  -5  186.78   10.52
   4   4   5  185.80    9.99
   4   4   5  227.33   16.47
  -4  -4  -5  186.85   10.15
   4   4   5  194.98   10.95
  -4  -4  -5  188.85   10.63
  -4  -4  -6  115.45    6.64
   4   4   6  110.55    6.24
   4   4   6  137.69   11.52
  -4  -4  -6  113.58    6.60
   4   4   6  125.55    7.82
  -4  -4  -7  424.68   18.60
   4   4   7  374.91   15.79
   4   4   7  432.75   18.40
  -4  -4  -7  362.27   15.27
  -4  -4  -8 1895.81  151.21
   4   4   8 1848.80   49.83
   4   4   8 1883.17  150.44
  -4  -4  -9 1016.19   31.63
   4   4   9  915.79   28.31
   4   4   9 1000.33   31.91
  -4  -4 -10   88.87    8.94
  -4  -4 -10   78.64    7.49
   4   4  10   86.72    8.99
   4   4  11  251.98   12.85
  -4  -4 -11  234.04   10.78
   4   4  11  239.85   12.44
   4   4  12   36.99    6.18
  -4  -4 -12   32.79    4.56
   4   4  12   43.56    7.31
   4   4  13  185.61   13.80
   4   4  13  177.04   12.93
   4   4  14   66.60   10.66
   4   4  14   47.13    8.19
  -4  -5   9  106.11   12.15
  -4  -5   8   53.50   10.05
  -4  -5   7   15.58    5.93
   4   5  -7    9.73    2.35
  -4  -5   6   17.37    5.29
   4   5  -6   26.20    3.12
  -4  -5   6   14.78    1.48
  -4  -5   5  863.33   30.17
   4   5  -5  805.12   26.76
  -4  -5   5  727.59   23.37
  -4  -5   5  744.77   23.95
  -4  -5   4  459.75   16.63
   4   5  -4  434.73   14.30
  -4  -5   4  429.46   12.87
  -4  -5   4  423.21   12.69
  -4  -5   3  896.96   25.62
   4   5  -3  891.82   24.82
  -4  -5   2  314.09   16.00
   4   5  -2  301.46   14.82
  -4  -5   1  239.98   11.08
   4   5  -1  211.87   12.05
   4   5  -1  231.80   12.69
  -4  -5   0  782.26   19.79
   4   5   0  715.82   22.43
   4   5   0  739.23   18.92
   4   5   0  732.43   38.65
  -4  -5   0  730.08   38.53
  -4  -5  -1  966.80   23.73
   4   5   1  905.24   22.16
   4   5   1  961.38   23.03
  -4  -5  -1  932.39   22.39
  -4  -5  -2 1226.47   22.51
   4   5   2 1197.21   21.88
   4   5   2 1199.63   24.39
   4   5   2 1226.86   22.41
  -4  -5  -2 1209.95   22.14
  -4  -5  -3 1378.28   24.96
   4   5   3 1378.15   24.93
   4   5   3 1358.47   25.65
   4   5   3 1406.44   25.94
  -4  -5  -3 1343.89   24.76
  -4  -5  -4 1348.92   32.27
   4   5   4 1348.52   32.23
   4   5   4 1391.61   34.35
   4   5   4 1374.94   33.48
  -4  -5  -4 1343.56   32.68
  -4  -5  -5 1145.76   27.70
   4   5   5 1136.80   27.36
   4   5   5 1192.91   29.76
   4   5   5 1133.35   28.15
  -4  -5  -6   77.72    4.69
   4   5   6   75.92    4.58
   4   5   6   83.88    6.95
   4   5   6   86.72    5.96
   4   5   7  666.59   15.70
   4   5   7  686.45   17.43
   4   5   7  685.66   17.46
  -4  -5  -8  935.99   26.23
   4   5   8  802.28   22.11
   4   5   8  918.29   27.14
  -4  -5  -9  330.77   19.95
   4   5   9  336.11   20.32
   4   5   9  327.20   20.14
   4   5  10 1065.54   35.51
  -4  -5 -10 1059.81   35.15
   4   5  10 1063.54   36.27
   4   5  11  148.77   10.03
  -4  -5 -11  160.18    8.31
   4   5  11  154.16   14.80
   4   5  12   38.87    6.15
  -4  -5 -12   50.73    6.83
   4   5  12   61.50    8.87
   4   5  13  108.69    9.19
   4   5  13  115.70    9.73
   4   5  14   72.98   12.04
   4   5  14   64.35   10.48
  -4  -6   8   82.21   11.46
  -4  -6   6  211.20   10.29
   4   6  -6  198.44   11.30
  -4  -6   5  585.28   24.17
   4   6  -5  547.69   23.14
  -4  -6   5  492.49   18.33
  -4  -6   4  471.78   17.94
   4   6  -4  460.86   17.53
  -4  -6   4  424.32   13.69
  -4  -6   4  417.30   13.51
  -4  -6   3   91.56    9.12
   4   6  -3   87.80   10.54
  -4  -6   3   69.10    5.57
  -4  -6   3   68.66    5.56
  -4  -6   2  379.34   18.86
   4   6  -2  379.17   18.43
  -4  -6   2  351.11   16.18
  -4  -6   2  360.19   16.62
  -4  -6   1  408.56   19.82
   4   6  -1  437.79   21.16
  -4  -6   1  411.16   19.00
  -4  -6   1  427.33   19.81
  -4  -6   0  392.19   16.80
   4   6   0  382.77   16.11
   4   6   0  390.18   22.41
   4   6   0  391.63   16.06
  -4  -6   0  384.09   15.63
  -4  -6  -1    5.33    1.96
   4   6   1    4.21    2.09
   4   6   1    2.94    1.87
   4   6   1    6.82    1.35
  -4  -6  -1    3.93    1.04
  -4  -6  -2  133.18    7.41
   4   6   2  123.26    6.75
   4   6   2  130.96    7.15
  -4  -6  -2  137.58    7.53
  -4  -6  -3  123.69    6.64
   4   6   3  125.83    6.84
   4   6   3  150.72   12.11
   4   6   3  136.12    7.72
  -4  -6  -3  115.32    6.50
  -4  -6  -4  391.79   12.18
   4   6   4  376.91   11.75
   4   6   4  429.59   14.69
   4   6   4  401.54   13.31
  -4  -6  -4  420.65   13.70
  -4  -6  -5 2277.98   59.07
   4   6   5 2116.54   54.82
   4   6   5 2269.25   59.89
   4   6   5 2243.14   59.07
  -4  -6  -6  615.47   16.56
   4   6   6  574.82   23.37
   4   6   6  604.38   17.21
   4   6   6  596.31   17.10
  -4  -6  -7  422.30   20.07
   4   6   7  434.66   20.39
   4   6   7  407.67   21.51
   4   6   7  471.22   22.89
  -4  -6  -8  258.95   12.58
   4   6   8  224.74   10.90
   4   6   8  242.04   12.72
   4   6   8  232.54   12.31
   4   6   9  806.42   25.09
   4   6   9  858.23   26.97
   4   6  10  916.12   30.39
  -4  -6 -10  953.63   32.33
   4   6  10  943.88   32.16
   4   6  11   28.51    4.66
  -4  -6 -11   40.61    4.70
   4   6  11   45.03    6.04
   4   6  12  180.51    8.04
  -4  -6 -12  184.17    7.96
   4   6  12  180.67    9.48
   4   6  13  218.53    9.93
  -4  -6 -13  215.67    9.74
   4   6  13  233.04   10.94
   4   6  14  195.68   13.99
   4   6  14  224.10   16.01
  -4  -7   8   29.43    6.92
  -4  -7   7   27.45    7.78
  -4  -7   6  273.25   12.60
  -4  -7   5   70.80    7.31
   4   7  -5   75.12    9.36
  -4  -7   4  212.54   11.99
   4   7  -4  194.44   11.75
  -4  -7   4  180.43    7.81
  -4  -7   3   81.74    8.77
   4   7  -3   82.51   10.76
  -4  -7   3   84.77    7.45
  -4  -7   3   82.64    7.36
  -4  -7   2  144.65   14.22
   4   7  -2  157.76   19.53
  -4  -7   2  126.10   11.31
  -4  -7   2  127.12   11.56
  -4  -7   1  338.09   20.61
   4   7  -1  339.71   23.60
  -4  -7   1  327.35   19.13
  -4  -7   1  323.54   19.04
  -4  -7   0  275.31   13.22
  -4  -7   0  320.48   15.94
   4   7   0  326.88   16.13
   4   7   0  309.43   14.83
  -4  -7   0  302.76   14.20
  -4  -7  -1  296.99   14.11
  -4  -7  -1  328.86   15.83
   4   7   1  364.75   24.50
   4   7   1  346.69   16.60
  -4  -7  -1  323.50   15.45
  -4  -7  -2   32.41    3.71
  -4  -7  -2   31.21    2.58
   4   7   2   40.47    4.67
   4   7   2   40.50    3.00
  -4  -7  -2   31.41    2.31
  -4  -7  -3  571.69   23.18
   4   7   3  630.30   17.34
  -4  -7  -3  584.71   24.04
  -4  -7  -4  661.54   17.23
   4   7   4  711.65   20.32
   4   7   4  648.06   17.93
  -4  -7  -4  638.34   17.61
   4   7   5   80.20    8.25
   4   7   5   87.21    5.56
   4   7   6  302.78   14.06
   4   7   6  319.10   14.82
   4   7   6  322.20   16.11
   4   7   6  297.85   14.83
   4   7   7  459.81   12.54
   4   7   7  468.34   12.91
   4   7   7  484.12   14.75
   4   7   7  470.49   14.36
   4   7   8  367.98   11.60
   4   7   8  370.23   11.73
   4   7   8  381.81   13.29
   4   7   8  353.57   12.66
   4   7   9  740.85   17.82
   4   7   9  822.55   19.94
   4   7   9  817.77   20.86
   4   7   9  817.69   21.29
   4   7  10  294.79   19.28
  -4  -7 -10  315.53   33.97
   4   7  11  134.99    8.71
  -4  -7 -11  141.70   10.04
   4   7  11  151.72   14.92
   4   7  12   78.07    6.90
  -4  -7 -12   69.35    6.32
   4   7  12   74.73    6.57
   4   7  13  250.99   10.66
  -4  -7 -13  247.51   10.63
   4   7  13  261.14   11.92
   4   7  14  114.30    8.88
  -4  -7 -14   81.81   12.97
   4   7  14  134.65   10.60
   4   7  15  144.68   11.77
   4   7  15  135.72   11.26
  -4  -8   7   20.85    6.66
  -4  -8   6   33.03    6.21
  -4  -8   5   14.56    3.83
   4   8  -5    9.73    1.81
  -4  -8   4   32.74    5.97
   4   8  -4   25.80    5.21
  -4  -8   3  193.55   10.74
   4   8  -3  179.06   10.75
  -4  -8   3  173.47    7.74
  -4  -8   2    7.63    3.12
   4   8  -2   11.53    2.68
  -4  -8   1  212.74   12.83
   4   8  -1  256.54   19.31
  -4  -8   1  210.67   11.91
  -4  -8   1  202.05   11.77
  -4  -8   0  987.89   30.59
   4   8   0  995.29   32.76
  -4  -8   0  898.65   27.22
  -4  -8  -1  481.96   15.06
  -4  -8  -1  582.71   18.50
   4   8   1  598.12   22.63
   4   8   1  592.90   19.17
  -4  -8  -1  549.79   17.00
  -4  -8  -2  262.55   12.47
  -4  -8  -2  266.25   12.88
   4   8   2  323.52   16.38
   4   8   2  281.13   14.06
  -4  -8  -2  270.70   12.99
  -4  -8  -3  397.40   31.79
  -4  -8  -3  416.79   11.46
   4   8   3  456.51   26.34
   4   8   3  450.65   13.19
  -4  -8  -3  403.10   11.64
   4   8   4  851.01   21.00
   4   8   4  819.33   19.54
   4   8   5   19.77    3.80
   4   8   5   23.55    3.74
   4   8   6  290.46   19.34
   4   8   6  280.04   13.98
   4   8   7  190.09   21.18
   4   8   7  159.71   10.47
   4   8   8   37.20    5.44
   4   8   8   39.64    5.85
   4   8   8   49.66    9.75
   4   8   8   43.82    7.43
   4   8   9  510.76   16.75
   4   8   9  507.10   16.75
   4   8   9  546.06   19.40
   4   8  10  176.31    7.51
  -4  -8 -10  195.66   10.58
   4   8  10  159.02    9.55
   4   8  11    7.77    2.52
  -4  -8 -11   25.90    4.42
   4   8  12   98.95    7.10
  -4  -8 -12   94.89    7.67
   4   8  12  113.83    6.93
   4   8  13   81.25    5.94
  -4  -8 -13  113.36   11.84
   4   8  13  103.12   10.58
   4   8  14   81.65    9.57
  -4  -8 -14   88.33   10.75
  -4  -9   6    4.70    3.77
  -4  -9   5   15.29    5.02
  -4  -9   4   29.66    7.10
   4   9  -4   17.50    4.97
  -4  -9   3   69.48    6.27
   4   9  -3   62.67   10.36
  -4  -9   2   16.14    3.30
   4   9  -2   10.99    2.78
  -4  -9   2    6.16    1.79
  -4  -9   1   14.00    2.60
   4   9  -1    7.22    2.40
  -4  -9   1    9.42    1.84
  -4  -9   0  782.64   26.12
   4   9   0  752.93   26.50
  -4  -9  -1  657.60   21.97
   4   9   1  670.80   24.85
  -4  -9  -2  362.37    9.55
  -4  -9  -2  431.72   11.00
   4   9   2  412.11   11.67
   4   9   2  413.87   10.77
  -4  -9  -3  572.33   17.37
   4   9   3  617.59   21.35
   4   9   3  600.26   19.69
   4   9   4  580.24   19.94
   4   9   4  591.66   18.92
   4   9   5   10.18    2.88
   4   9   5   14.10    2.43
   4   9   6  127.74   15.19
   4   9   6   92.62    8.24
   4   9   7  155.58   20.02
   4   9   7  145.95   13.71
   4   9   8   77.68    8.45
   4   9   8   77.58    8.02
  -4  -9  -9  123.00    8.97
   4   9   9  108.23    7.42
   4   9  10   94.50    5.64
  -4  -9 -10   94.57    7.93
   4   9  10   82.89    6.48
   4   9  11   75.24    5.46
  -4  -9 -11   81.87    8.02
   4   9  11   80.17    6.83
  -4  -9 -12  102.77    7.48
  -4  -9 -13   60.87    6.25
   4   9  13   63.37    5.28
  -4  -9 -14  144.50   14.85
   4   9  14  130.27   13.51
  -4 -10   4   94.65   11.73
  -4 -10   3  100.77   10.22
   4  10  -3   65.80   13.41
  -4 -10   2   60.54    6.74
   4  10  -2   33.93    7.76
  -4 -10   1   66.86    5.90
   4  10  -1   42.02    9.36
  -4 -10   1   49.73    6.40
  -4 -10   0   19.59    2.98
   4  10   0   20.45    3.79
  -4 -10  -1  234.19   10.87
   4  10   1  223.17   15.84
   4  10   1  249.34   11.36
  -4 -10  -2  273.62   11.05
   4  10   2  279.30   24.53
   4  10   2  274.09   11.39
  -4 -10  -3  429.37   14.02
  -4 -10  -3  456.13   14.94
   4  10   3  504.38   18.39
   4  10   3  475.66   24.14
   4  10   4   88.58   11.84
   4  10   4   92.15    9.54
   4  10   5  204.50   20.62
   4  10   5  188.05   16.29
   4  10   6  482.37   28.69
   4  10   6  439.44   15.68
   4  10   7  239.50   11.48
   4  10   7  248.72   11.15
  -4 -10  -8  107.64    8.26
   4  10   8  104.58    7.10
  -4 -10  -9  132.56    9.83
   4  10   9  136.95    9.08
  -4 -10 -10  329.01   17.83
   4  10  10  304.26   15.54
  -4 -10 -11  101.24    8.43
   4  10  11  114.78    7.08
  -4 -10 -12  233.19   16.03
   4  10  12  189.55   13.19
  -4 -10 -13  176.38   12.61
  -4 -10 -14   39.80    7.86
   4  10  14   35.03    6.89
  -4 -11   3  152.20   15.10
  -4 -11   2   10.10    3.11
   4  11  -2   19.55    4.16
  -4 -11   1   18.40    5.85
   4  11  -1    7.83    3.04
  -4 -11   0   18.89    4.72
   4  11   0    4.49    1.98
  -4 -11  -1  142.13    6.20
   4  11   1  121.92   15.15
   4  11   1  135.66    9.87
  -4 -11  -2  110.86    7.84
   4  11   2  103.02   14.02
   4  11   2  127.27   13.53
   4  11   3   18.56    4.45
   4  11   3   11.74    2.13
   4  11   4    8.63    3.03
   4  11   4    4.28    1.39
   4  11   5  440.33   18.49
   4  11   5  404.39   16.17
   4  11   6  542.43   21.95
  -4 -11  -7  358.40   16.82
   4  11   7  355.47   14.69
  -4 -11  -8  192.55    9.12
   4  11   8  216.25    8.43
  -4 -11  -9  334.67   18.95
   4  11   9  342.62   18.78
  -4 -11 -10  128.55    9.96
   4  11  10  146.94    8.02
  -4 -11 -11  197.10   11.06
   4  11  11  206.03    9.68
  -4 -11 -12  241.54   16.22
   4  11  12  260.28   16.39
  -4 -11 -13   89.89   14.09
   4  11  13   74.95   11.28
  -4 -12   1   74.55   11.13
  -4 -12   0   80.75    8.95
   4  12   2  260.07   10.39
   4  12   3   13.40    3.12
   4  12   4   60.90    7.93
  -4 -12  -5  164.85    9.86
   4  12   5  140.00   11.04
  -4 -12  -6  716.67   37.09
   4  12   6  684.02   32.36
  -4 -12  -7  273.23   15.80
   4  12   7  262.37   13.88
  -4 -12  -8  256.43   14.46
   4  12   8  286.09   14.47
   4  12   9  238.83   10.58
  -4 -12 -10   42.05    8.63
   4  12  10   50.36    9.21
  -4 -12 -11   73.88   12.29
   4  12  11   68.97   10.27
  -4 -12 -12   97.28   12.60
  -4 -12 -13   93.53    9.36
   4  12  13   85.30    7.54
  -4 -13   0  141.85   11.63
  -4 -13  -1  120.47   12.68
  -4 -13  -2  214.86   15.72
   4  13   2  199.08   17.59
  -4 -13  -3  152.16   20.12
   4  13   3  106.36   13.20
  -4 -13  -4   47.28   12.32
   4  13   4   42.67    9.43
  -4 -13  -5  210.74   15.27
   4  13   5  182.79   17.18
  -4 -13  -6  167.06   12.36
   4  13   6  160.48   15.36
  -4 -13  -7  154.21   12.78
   4  13   7  152.87   14.84
  -4 -13  -8  108.92   12.02
   4  13   8   81.44   12.58
  -4 -13  -9  196.83   14.14
   4  13   9  160.25   10.62
  -4 -13 -10  194.53   14.72
   4  13  10  164.80   11.80
  -4 -13 -11   36.95    9.41
   4  13  11   54.32    9.15
  -4 -13 -12   39.13    8.95
   4  13  12   24.06    6.00
  -4 -14  -3  185.61   14.72
  -4 -14  -4   48.47    8.64
   4  14   4   39.03    9.13
  -4 -14  -5   55.34   10.42
   4  14   5   29.84    7.97
   4  14   6  105.17   14.29
  -4 -14  -7   83.88   14.43
   4  14   7   44.00   12.67
  -4 -14  -8   83.59   12.98
   4  14   8   41.63    9.36
  -4 -14  -9  270.07   21.61
   4  14   9  199.80   23.28
  -4 -14 -10  209.64   16.86
   4  14  10  135.49   20.85
  -5  10   6   54.00    7.69
   5 -10  -6   69.59   11.68
  -5  10   6   31.94    8.19
  -5  10   5   10.21    3.28
   5 -10  -5   16.83    6.66
  -5  10   5    3.73    3.58
  -5  10   4   15.78    4.45
   5 -10  -4   17.82    5.60
  -5  10   4   14.89    5.87
   5 -10  -3   11.79    4.50
  -5  10   3   21.93    6.59
   5 -10  -2   40.46    8.72
  -5  10   1   32.46    7.81
   5 -10  -1   43.84    8.85
  -5   9   8   32.32    6.40
   5  -9  -8   47.65   10.73
  -5   9   8   32.41    7.46
  -5   9   7   56.29    9.10
   5  -9  -7   65.44   12.28
  -5   9   7   53.12   13.37
  -5   9   6   23.23    5.08
   5  -9  -6   14.06    5.01
  -5   9   6   25.16    6.31
  -5   9   5    7.23    2.83
   5  -9  -5   -0.29    4.23
  -5   9   5    4.15    2.73
  -5   9   4   26.22    5.05
   5  -9  -4   21.50    5.91
  -5   9   4   16.39    5.43
  -5   9   3   57.92    8.96
   5  -9  -3   61.09   10.64
  -5   9   3   44.57   11.51
  -5   9   2   65.60   12.70
   5  -9  -2   70.24   11.99
  -5   9   2   66.44   10.40
  -5   9   1  121.42   17.22
   5  -9  -1  155.16   12.33
  -5   9   0   43.17   10.09
   5  -9   0   51.88    8.84
  -5   9  -1   31.64    9.27
   5  -9   1   18.76    5.85
   5  -9   1   29.79    7.56
  -5   9  -2   45.47    9.63
   5  -9   2   45.10    9.41
   5  -8 -10   19.07    7.91
  -5   8  10   31.14    7.48
  -5   8   9   49.59    8.56
   5  -8  -9   57.11   10.81
  -5   8   9   44.86   11.86
  -5   8   8   51.48    8.68
   5  -8  -8   59.46   10.83
  -5   8   8   56.23   12.10
  -5   8   7  202.02   13.76
   5  -8  -7  170.77   13.13
  -5   8   7  194.31   23.12
  -5   8   6   52.71    9.58
   5  -8  -6   49.76   10.41
  -5   8   6   55.88   12.01
  -5   8   5   26.74    3.73
   5  -8  -5   13.71    6.10
  -5   8   5   24.46    4.55
  -5   8   4  108.22    6.76
   5  -8  -4  100.27   10.23
  -5   8   4  107.77   15.27
  -5   8   3  205.23   10.28
   5  -8  -3  213.15   12.09
  -5   8   3  173.94   25.98
  -5   8   2  168.05    8.85
   5  -8  -2  137.87    9.70
  -5   8   2  148.21   15.91
  -5   8   1  108.19    8.75
   5  -8  -1   97.62   12.03
  -5   8   0  277.77   18.42
   5  -8   0  301.44   13.70
  -5   8  -1   27.89    7.30
   5  -8   1   21.38    5.27
   5  -8   1   33.35    8.60
  -5   8  -2   27.82    7.62
   5  -8   2   27.91    5.52
   5  -8   2   18.99    5.26
  -5   8  -3   64.16   13.61
   5  -8   3   72.82   12.34
  -5   8  -4   42.87    9.84
   5  -8   4   49.04    8.67
  -5   7  10   52.49    9.03
   5  -7 -10   64.56   10.61
  -5   7  10   54.12   10.89
  -5   7   9   54.42    7.82
   5  -7  -9   83.58   10.67
  -5   7   9   44.54   10.57
  -5   7   8  337.41   21.85
   5  -7  -8  323.37   22.63
  -5   7   8  319.58   34.41
  -5   7   7  163.45   12.13
   5  -7  -7  146.21   12.24
  -5   7   7  138.86   19.21
  -5   7   6   25.48    4.77
   5  -7  -6   16.70    6.44
  -5   7   6   33.82    7.56
  -5   7   5  155.93    7.38
   5  -7  -5  165.61    9.91
  -5   7   5  133.74   16.08
  -5   7   4  367.88   18.34
   5  -7  -4  376.65   20.18
  -5   7   4  359.43   30.96
  -5   7   3  296.04   15.18
   5  -7  -3  273.13   15.60
  -5   7   3  283.26   23.58
  -5   7   2   72.47    7.78
   5  -7  -2   50.77    7.19
  -5   7   2   58.37   11.02
  -5   7   1  184.94    7.96
   5  -7  -1  159.42   20.45
  -5   7   0  410.23   23.09
   5  -7   0  393.20   22.58
  -5   7  -1  109.28   10.92
   5  -7   1   98.82    8.26
   5  -7   1   94.60    9.93
  -5   7  -2   22.09    3.92
   5  -7   2   23.09    3.40
   5  -7   2   25.53    5.78
  -5   7  -3   83.07   12.05
   5  -7   3   78.65    6.24
   5  -7   3   75.77    7.82
  -5   7  -4   31.67    7.42
  -5   7  -5   94.10   20.21
   5  -7   5  118.75   13.31
  -5   6  11   20.09    5.18
   5  -6 -11   25.08    6.79
  -5   6  11   19.79    6.31
  -5   6  10   97.55   11.60
   5  -6 -10   85.91   11.63
  -5   6  10   74.83   12.57
  -5   6   9   79.12    6.49
   5  -6  -9  103.24   12.00
  -5   6   9   83.76   12.24
  -5   6   8  174.09    9.19
   5  -6  -8  175.62   10.47
  -5   6   8  150.74   16.86
  -5   6   7  243.85   14.09
  -5   6   7  255.90   22.41
  -5   6   6  277.00   14.46
   5  -6  -6  249.77   11.32
  -5   6   6  294.29   25.31
  -5   6   5  110.23    7.67
   5  -6  -5  106.01    9.54
  -5   6   5  110.92   12.93
  -5   6   4  210.72   10.01
   5  -6  -4  176.78    9.95
  -5   6   4  202.03   24.07
  -5   6   3  183.28    9.16
   5  -6  -3  145.02    9.80
  -5   6   3  169.15   17.02
  -5   6   2   22.72    4.20
   5  -6  -2   20.43    5.07
  -5   6   2   37.40    9.58
  -5   6   1  212.35   10.33
   5  -6  -1  231.54   12.06
  -5   6   1  227.65   21.40
  -5   6   0  235.52   11.21
   5  -6   0  210.40   10.82
  -5   6  -1  444.16   33.65
   5  -6   1  372.88   16.01
  -5   6  -2   44.35    7.68
   5  -6   2   40.20    5.19
   5  -6   2   43.16    8.17
  -5   6  -3   46.34    7.19
   5  -6   3   50.51    7.19
   5  -6   3   51.87    8.44
  -5   6  -4  207.72   25.79
   5  -6   4  213.88    9.46
   5  -6   4  198.19   11.07
  -5   6  -5  405.62   43.34
   5  -6   5  431.13   28.17
  -5   6  -6  130.30   19.57
   5  -6   6  148.94   13.13
  -5   6  -7   22.08    6.96
   5  -6   7   30.66    7.63
  -5   5  11   88.89   13.72
   5  -5 -11   75.84   11.67
  -5   5  11   68.91   14.61
  -5   5  10  114.98   12.09
   5  -5 -10  112.59   11.72
  -5   5  10  105.50   15.94
  -5   5   9   74.47    9.17
   5  -5  -9   80.18   10.26
  -5   5   9   76.22   11.56
  -5   5   8   80.73    7.44
   5  -5  -8   71.66    7.97
  -5   5   8   84.67    8.54
  -5   5   7  401.67   20.09
   5  -5  -7  418.00   21.48
  -5   5   7  440.00   26.56
  -5   5   6  250.95   11.79
   5  -5  -6  265.20   13.87
  -5   5   6  244.81   14.97
  -5   5   5  124.12    8.38
   5  -5  -5   84.03   10.18
  -5   5   5  113.75   13.98
  -5   5   4  262.75   17.86
   5  -5  -4  271.11   19.56
  -5   5   4  287.60   25.55
  -5   5   3   77.82    8.32
   5  -5  -3   70.55   11.58
  -5   5   3  102.37   12.85
  -5   5   2  136.75   13.09
   5  -5  -2  114.65   12.80
  -5   5   2  123.92   15.34
  -5   5   1  167.23   15.97
   5  -5  -1  150.92   15.39
  -5   5   1  177.26   22.18
  -5   5   0  247.07   15.06
   5  -5   0  208.95   13.84
  -5   5  -1  220.66   15.42
   5  -5   1  191.87   13.71
  -5   5  -2  588.60   36.54
   5  -5   2  547.65   21.09
   5  -5   2  578.12   23.23
  -5   5  -3    6.62    2.06
   5  -5   3    5.34    2.07
   5  -5   3   11.87    6.01
  -5   5  -4  287.09   18.27
   5  -5   4  302.41   14.87
   5  -5   4  331.10   18.70
  -5   5  -5  780.56   63.28
   5  -5   5  707.96   32.86
   5  -5   5  696.14   34.21
  -5   5  -6  267.79   17.71
   5  -5   6  302.28   14.45
  -5   5  -7   18.64    4.53
   5  -5   7   35.96    9.89
  -5   5  -8   13.49    4.83
   5  -5   8   15.63    5.42
  -5   4  11   29.68    6.33
   5  -4 -11   20.87    5.29
  -5   4  11   26.75    6.39
  -5   4  10  103.21   10.97
   5  -4 -10  119.08   12.51
  -5   4  10  102.49   17.19
  -5   4   9  117.10    8.65
   5  -4  -9   92.76    8.91
  -5   4   9   90.66   11.46
  -5   4   8  187.26    8.59
   5  -4  -8  140.21   12.03
  -5   4   8  186.40   17.19
  -5   4   7  239.71   12.28
   5  -4  -7  233.16   13.03
  -5   4   7  237.33   17.10
  -5   4   6  129.22   12.37
   5  -4  -6  151.40   14.78
  -5   4   6  168.86   20.21
  -5   4   5  251.00   15.52
   5  -4  -5  246.35   15.72
  -5   4   5  244.07   23.91
  -5   4   4  592.14   19.82
   5  -4  -4  584.55   20.54
  -5   4   4  577.02   19.60
  -5   4   3  267.46   16.73
   5  -4  -3  219.12   15.35
  -5   4   3  264.38   27.09
  -5   4   2  211.93   13.48
   5  -4  -2  215.43   14.96
  -5   4   2  269.54   26.57
  -5   4   1  447.58   15.32
   5  -4  -1  437.46   15.96
  -5   4   1  492.76   29.66
  -5   4   0  316.69   19.56
   5  -4   0  274.59   17.61
  -5   4  -1  114.79   10.67
   5  -4   1  114.75   10.76
  -5   4  -2  221.06   13.72
   5  -4   2  205.42   13.13
   5  -4   2  192.16   12.76
  -5   4  -3   15.23    4.37
   5  -4   3    6.45    3.49
   5  -4   3    7.89    4.75
  -5   4  -4  352.17   22.31
   5  -4   4  334.12   13.21
   5  -4   4  354.70   16.00
  -5   4  -5  588.68   33.14
   5  -4   5  530.48   20.43
   5  -4   5  524.30   22.13
  -5   4  -6   65.05    8.99
   5  -4   6   58.64    9.09
  -5   4  -7   24.11    5.19
   5  -4   7   23.89    6.29
  -5   4  -8   37.09    9.20
   5  -4   8   18.51    5.42
  -5   4  -9  105.24   18.43
   5  -4   9  121.61   13.34
  -5   3  11   16.33    5.22
   5  -3 -11   19.00    4.80
  -5   3  11   13.23    3.58
  -5   3  10   82.32    7.08
   5  -3 -10   67.77    6.63
  -5   3  10   73.93    9.72
  -5   3   9  109.52    7.87
   5  -3  -9   92.90    8.39
  -5   3   9   94.91   12.71
  -5   3   8  114.90    9.38
   5  -3  -8  111.09    9.03
  -5   3   8  138.56   14.77
  -5   3   7  154.96    9.70
   5  -3  -7  169.57   10.03
  -5   3   7  169.58   17.66
  -5   3   6   14.52    3.37
   5  -3  -6   18.90    5.63
  -5   3   6   10.24    3.02
  -5   3   5  360.19   13.46
   5  -3  -5  336.48   21.28
  -5   3   5  355.13   12.33
  -5   3   4  593.16   17.94
   5  -3  -4  585.56   19.14
  -5   3   4  574.66   22.19
  -5   3   3  220.84   11.86
   5  -3  -3  270.91   14.89
  -5   3   3  248.93   12.81
  -5   3   2  690.66   17.81
   5  -3  -2  651.90   17.31
  -5   3   2  701.10   24.47
  -5   3   1 1658.64   38.84
   5  -3  -1 1636.10   38.93
  -5   3   1 1708.44   39.70
  -5   3   0  123.41    8.57
   5  -3   0  106.45    7.66
  -5   3  -1  255.14   13.40
   5  -3   1  244.64   12.90
  -5   3  -2   52.09    4.88
   5  -3   2   48.97    5.17
   5  -3   2   39.29    4.97
  -5   3  -3  257.75   16.21
   5  -3   3  247.98   15.43
   5  -3   3  273.97   17.80
  -5   3  -4   28.90    5.66
   5  -3   4   13.02    3.10
   5  -3   4   20.21    7.52
   5  -3   5   69.36    7.83
  -5   3  -5   62.91    7.17
   5  -3   5   85.72    9.43
   5  -3   6  155.76   13.99
   5  -3   6  140.91   10.53
  -5   3  -7   17.59    4.64
   5  -3   7   14.50    5.29
   5  -3   8   66.79    8.66
  -5   3  -9   34.49    8.82
   5  -3   9   42.53    7.90
  -5   3 -10   94.01   22.47
   5  -3  10   99.86   22.61
  -5   2  11   13.70    5.60
   5  -2 -11   13.85    3.84
  -5   2  11    5.91    2.74
  -5   2  10   55.02   10.29
   5  -2 -10   40.19    7.90
  -5   2  10   43.81    9.07
  -5   2   9  134.60    7.60
   5  -2  -9  130.23   19.00
  -5   2   9  122.77   13.02
  -5   2   8  210.57   11.94
   5  -2  -8  202.81   11.51
  -5   2   8  217.00   10.67
  -5   2   7    4.65    3.52
   5  -2  -7   14.56    4.98
  -5   2   6   20.89    5.16
   5  -2  -6   26.07    7.19
  -5   2   6   22.97    4.40
  -5   2   5  123.88   11.29
   5  -2  -5  115.63   11.11
  -5   2   5  133.99   10.63
  -5   2   4  264.51   14.02
  -5   2   4  249.69   12.64
  -5   2   3  331.36   16.98
   5  -2  -3  323.73   16.59
  -5   2   3  315.68   15.74
  -5   2   2  781.96   22.24
   5  -2  -2  751.85   21.83
  -5   2   2  793.57   24.06
  -5   2   1  448.43   19.35
   5  -2  -1  417.05   18.44
  -5   2   1  450.21   20.55
  -5   2   0  242.18   11.26
   5  -2   0  234.04   13.18
   5  -2   1  264.66   12.38
   5  -2   1  272.11   12.68
   5  -2   2  473.54   23.07
  -5   2  -3  217.94   11.98
   5  -2   3  180.60   10.37
   5  -2   3  186.51   11.54
  -5   2  -4   59.01    7.49
   5  -2   4   50.65    4.68
  -5   2  -4   39.97    4.48
   5  -2   4   40.85    4.94
  -5   2  -5   58.03    9.86
   5  -2   5   54.34    8.20
  -5   2  -5   45.17    6.97
   5  -2   5   57.97   10.65
  -5   2  -6  209.56   18.89
   5  -2   6  189.67   12.46
  -5   2  -6  170.61   15.07
   5  -2   6  191.08   14.57
  -5   2  -7   61.91    9.60
   5  -2   7   53.24    4.43
   5  -2   7   55.39    8.01
  -5   2  -8   91.93   12.65
   5  -2   8   83.03    8.94
  -5   2  -9   41.47    7.33
   5  -2   9   49.43    7.62
  -5   2 -10   82.30   17.21
   5  -2  10  118.48   13.18
  -5   2 -11   60.61   12.98
   5  -2  11   71.20   10.62
  -5   1  11   33.66    6.32
   5  -1 -11   38.64    6.27
  -5   1  10   42.06    8.29
   5  -1 -10   24.15    5.56
  -5   1  10   41.62    8.68
  -5   1   9   52.06    9.42
   5  -1  -9   53.08    8.54
  -5   1   9   50.35    8.77
  -5   1   8  183.47   11.37
   5  -1  -8  163.21    8.96
  -5   1   8  153.05   17.78
  -5   1   7   29.23    5.20
   5  -1  -7   25.37    4.24
  -5   1   7   36.07    6.20
  -5   1   6   56.91    9.41
   5  -1  -6   58.20   10.25
  -5   1   6   69.72   11.60
  -5   1   5   14.30    3.77
   5  -1  -5   19.09    5.76
  -5   1   5   19.70    3.13
  -5   1   4   23.75    3.48
   5  -1  -4   25.39    4.94
  -5   1   4   27.49    3.87
   5  -1  -3  139.19    9.48
  -5   1   3  150.96   10.04
   5  -1  -3  139.64    8.01
   5  -1  -2  379.48   17.29
  -5   1   2  473.87   20.13
   5  -1  -2  409.65   17.66
  -5   1   1  119.79    7.69
   5  -1  -1  123.21    8.55
  -5   1   1  123.01    7.57
  -5   1   0  544.81   18.20
   5  -1   0  567.51   18.90
  -5   1  -1  257.07   14.78
   5  -1   1  272.43   15.59
   5  -1   1  250.68   14.33
  -5   1  -2  825.24   23.35
   5  -1   2  798.54   22.50
   5  -1   2  793.74   22.83
  -5   1  -3  201.37   11.82
   5  -1   3  242.69   10.95
  -5   1  -3  212.83   12.27
  -5   1  -4  484.71   23.56
   5  -1   4  473.27   22.58
  -5   1  -4  445.16   21.24
   5  -1   4  514.39   15.83
  -5   1  -5  161.37   12.71
   5  -1   5  148.46   10.06
  -5   1  -5  140.80    9.57
   5  -1   5  141.16   10.60
  -5   1  -6  185.69   14.41
   5  -1   6  185.35   11.20
  -5   1  -6  175.08   10.75
   5  -1   6  204.02   14.87
  -5   1  -7  518.69   26.88
   5  -1   7  525.11   17.21
  -5   1  -7  484.93   15.99
   5  -1   7  625.33   23.59
  -5   1  -8   71.34    9.97
   5  -1   8   62.00    7.41
  -5   1  -9   71.97   10.95
   5  -1   9   47.85    8.33
  -5   1 -10   23.59    4.94
   5  -1  10   35.46    5.86
  -5   1 -11   71.08   16.86
   5  -1  11  103.98   13.15
  -5   0  11   59.62   10.84
   5   0 -11   59.21    9.58
  -5   0  10   16.09    5.27
   5   0 -10   21.90    5.23
  -5   0  10   13.76    2.97
  -5   0   9   52.74    8.96
   5   0  -9   40.23    6.40
  -5   0   9   42.67    7.56
  -5   0   8  161.98    8.55
   5   0  -8  164.29    7.62
  -5   0   8  172.25    6.31
   5   0  -7  246.37   11.88
  -5   0   7  249.76   10.48
  -5   0   6  108.84   11.67
   5   0  -6  111.24   11.25
  -5   0   6  104.88   13.61
   5   0  -6   90.14    8.40
  -5   0   5  311.88   16.12
   5   0  -5  314.57   16.74
  -5   0   5  289.61   14.27
   5   0  -5  273.24   13.15
  -5   0   4   88.28    6.55
   5   0  -4  107.87    8.21
  -5   0   4   95.46    6.97
   5   0  -4   85.79    4.90
  -5   0   3  353.74   16.24
   5   0  -3  360.19   16.16
  -5   0   3  376.51   16.26
   5   0  -3  353.12   14.74
  -5   0   2  226.16   13.22
   5   0  -2  229.04   13.85
  -5   0   2  238.03   13.20
   5   0  -2  221.87   11.84
  -5   0   1   10.69    2.67
   5   0  -1   16.86    5.29
  -5   0   1   11.54    1.85
   5   0  -1    9.56    1.85
  -5   0   0   97.20    6.29
   5   0   0   83.03    6.38
   5   0   0   85.23    7.90
  -5   0  -1  305.22   11.23
   5   0   1  287.62   10.31
   5   0   1  261.80   14.90
   5   0   1  290.55   10.49
  -5   0  -2  427.87   14.51
   5   0   2  393.79   13.30
  -5   0  -2  365.49   12.38
   5   0   2  399.14   13.73
  -5   0  -3  738.90   19.42
   5   0   3  702.46   22.44
  -5   0  -3  663.52   21.17
   5   0   3  728.02   23.79
  -5   0  -4  518.22   22.11
   5   0   4  506.27   21.18
  -5   0  -4  474.38   19.86
  -5   0  -5  504.83   33.51
   5   0   5  473.85   22.48
  -5   0  -5  442.46   21.00
   5   0   5  508.89   15.13
  -5   0  -6   23.30    3.45
   5   0   6   26.48    2.49
  -5   0  -6   24.94    2.65
   5   0   6   40.01    7.30
  -5   0  -7  640.53   19.17
   5   0   7  605.32   17.67
  -5   0  -7  568.51   13.89
   5   0   7  624.33   18.18
  -5   0  -8  187.91   14.98
   5   0   8  189.59   12.98
  -5   0  -8  182.80   19.31
   5   0   8  204.72   15.57
  -5   0  -9    5.72    2.48
   5   0   9    8.75    4.58
  -5   0 -10   96.28   12.87
   5   0  10  108.73    8.66
  -5   0 -11  115.78   19.43
   5   0  11  133.01   13.44
  -5   0 -12   95.46   14.74
   5   0  12  111.89   11.92
  -5  -1  11   11.15    4.07
   5   1 -10   34.05    6.03
   5   1  -9   89.85    6.99
  -5  -1   9   85.25    5.97
  -5  -1   8  325.74   18.21
   5   1  -8  280.78   14.45
  -5  -1   8  273.96   13.70
  -5  -1   7  324.54   14.46
   5   1  -7  295.01   13.02
  -5  -1   7  290.50   11.78
  -5  -1   6  136.25   14.00
   5   1  -6  146.86   14.27
  -5  -1   6  137.37   13.07
   5   1  -6  119.21   10.98
  -5  -1   5  155.14   11.03
   5   1  -5  200.36   12.97
  -5  -1   5  202.67   12.41
   5   1  -5  201.17   12.08
  -5  -1   4  525.43   14.43
   5   1  -4  513.62   14.01
  -5  -1   4  502.04   32.58
   5   1  -4  483.84   22.65
  -5  -1   3  746.26   21.45
   5   1  -3  683.54   19.72
  -5  -1   3  713.02   19.60
   5   1  -3  684.80   18.32
  -5  -1   2  355.07   12.69
   5   1  -2  352.80   12.51
  -5  -1   2  371.90   11.99
   5   1  -2  372.65   11.92
  -5  -1   1  565.71   18.55
   5   1  -1  589.35   19.41
   5   1  -1  536.35   16.84
  -5  -1   0   79.81    5.73
   5   1   0   57.37    4.52
   5   1   0   71.68    5.02
   5   1   0   59.14    4.19
  -5  -1  -1  184.58   10.62
   5   1   1  171.61    9.98
   5   1   1  176.50   10.71
   5   1   1  182.78   10.17
  -5  -1  -2   29.22    3.45
  -5  -1  -2   17.10    2.17
   5   1   2   25.81    3.75
   5   1   3  534.09   17.41
  -5  -1  -3  483.80   15.79
   5   1   3  520.48   17.41
  -5  -1  -4 2146.61   52.15
   5   1   4 2178.07   52.46
  -5  -1  -4 2041.49   49.19
   5   1   4 2240.06   54.62
  -5  -1  -5  248.97   13.40
   5   1   5  236.50   12.54
  -5  -1  -5  230.46   12.34
  -5  -1  -6   52.01    6.41
   5   1   6   37.71    2.83
  -5  -1  -6   39.53    3.02
   5   1   6   42.05    5.64
  -5  -1  -7   35.11    5.24
   5   1   7   15.98    2.48
  -5  -1  -7   14.56    1.97
   5   1   7   21.98    4.62
  -5  -1  -8  303.99   19.92
   5   1   8  309.67   19.04
  -5  -1  -8  298.58   16.92
   5   1   8  315.58   19.39
  -5  -1  -9   80.70   10.43
   5   1   9   56.06    7.03
   5   1   9   60.96    8.95
  -5  -1 -10  272.88   17.22
   5   1  10  271.78   15.66
  -5  -1 -11  104.91   16.65
   5   1  11  102.62   12.03
   5   1  12  135.25   10.60
   5   1  13   33.60    7.64
   5   1  13   44.13    8.99
  -5  -2  10   30.19    6.52
  -5  -2   9   85.10   10.72
   5   2  -9   76.51    8.52
  -5  -2   8  202.49   10.16
   5   2  -8  192.62    8.04
  -5  -2   8  202.42    7.31
  -5  -2   7  199.22   11.88
   5   2  -7  187.18    9.17
  -5  -2   7  186.43    8.70
  -5  -2   6  209.87   15.00
   5   2  -6  193.16   13.34
  -5  -2   6  174.01   15.34
   5   2  -6  163.78   14.44
  -5  -2   5   25.52    4.94
   5   2  -5   22.32    3.82
  -5  -2   5   27.18    3.70
   5   2  -5   21.44    2.27
  -5  -2   4  379.43   19.12
   5   2  -4  375.29   18.76
  -5  -2   4  366.55   17.13
   5   2  -4  353.68   16.57
  -5  -2   3  225.18   13.36
   5   2  -3  218.41   12.98
  -5  -2   3  222.79   11.99
   5   2  -3  216.94   11.73
  -5  -2   2 1178.11   32.18
   5   2  -2 1187.35   32.42
   5   2  -2 1120.20   29.25
   5   2  -1 1062.52   25.49
   5   2  -1 1091.17   26.33
  -5  -2   0   69.94    5.33
   5   2   0   76.94    5.11
   5   2   0   94.15    6.29
   5   2   0   87.12    4.96
   5   2   0   86.45    5.23
  -5  -2  -1  657.29   13.69
   5   2   1  592.81   11.99
   5   2   1  613.18   13.19
   5   2   1  634.30   12.90
   5   2   1  691.07   13.70
   5   2   2 1233.77   23.68
  -5  -2  -2 1147.50   21.93
   5   2   2 1252.10   23.58
  -5  -2  -2 1194.40   22.31
   5   2   3  708.09   22.28
   5   2   3  816.83   20.72
  -5  -2  -3  698.25   22.07
   5   2   3  816.32   20.89
  -5  -2  -3  755.63   19.02
  -5  -2  -4  988.20   24.83
   5   2   4 1022.10   25.41
  -5  -2  -4  899.56   22.36
   5   2   4 1035.62   26.31
  -5  -2  -5 1403.00   37.75
   5   2   5 1362.73   36.22
  -5  -2  -5 1318.27   35.04
   5   2   5 1402.96   38.13
  -5  -2  -6 1023.62   35.28
   5   2   6 1011.40   23.42
  -5  -2  -6  927.90   21.55
  -5  -2  -7    9.11    3.19
   5   2   7    6.50    1.32
  -5  -2  -7    6.73    1.98
   5   2   7   15.82    6.29
  -5  -2  -8   82.08    9.79
   5   2   8   95.64   10.77
  -5  -2  -8   71.86    6.20
   5   2   8   70.13    7.54
  -5  -2  -9  475.22   28.01
   5   2   9  419.48   14.43
  -5  -2  -9  389.62   13.13
   5   2   9  474.76   18.20
  -5  -2 -10  140.15   15.79
  -5  -2 -10  119.34    7.11
   5   2  10  119.79    9.72
  -5  -2 -11  243.54   21.24
   5   2  11  231.74   14.07
  -5  -2 -12   81.34    6.86
   5   2  12   95.79   10.46
   5   2  13   92.52   14.61
   5   2  13   79.62   12.71
  -5  -3  10   24.75    8.00
  -5  -3   9   68.51   11.30
   5   3  -9   66.42    9.56
  -5  -3   8  122.24    9.26
   5   3  -8  106.25    5.69
  -5  -3   7  213.18    9.64
   5   3  -7  231.96    8.43
  -5  -3   7  213.52    6.66
  -5  -3   6   21.97    4.77
   5   3  -6   23.27    3.65
  -5  -3   6   12.14    2.80
   5   3  -6   11.10    1.54
  -5  -3   5    5.07    4.58
   5   3  -5    6.40    2.66
  -5  -3   5    2.70    1.64
  -5  -3   4  207.83   15.13
   5   3  -4  209.92   14.62
  -5  -3   4  179.37   11.46
   5   3  -4  188.40   12.10
  -5  -3   3 1274.71   30.40
   5   3  -3 1237.24   29.15
  -5  -3   2 1107.69   30.44
   5   3  -2 1081.38   29.61
  -5  -3   1  188.11   11.24
   5   3  -1  184.92   10.95
   5   3  -1  176.72    9.13
   5   3  -1  173.89    9.08
  -5  -3   0  762.89   19.54
   5   3   0  716.46   22.62
   5   3   0  748.62   19.32
   5   3   0  716.38   22.06
   5   3   0  748.68   18.16
  -5  -3  -1  959.48   23.89
   5   3   1  917.02   22.72
   5   3   1  959.94   23.36
  -5  -3  -2 2467.12   44.86
   5   3   2 2394.09   43.32
   5   3   2 2330.95   42.82
   5   3   2 2471.45   44.65
  -5  -3  -2 2338.02   42.06
  -5  -3  -3  865.81   21.62
   5   3   3  749.00   18.67
   5   3   3  849.67   21.50
   5   3   3  854.50   21.52
  -5  -3  -3  810.86   20.23
  -5  -3  -4  342.30   11.51
   5   3   4  332.12   11.00
   5   3   4  341.68   11.58
  -5  -3  -4  296.19   10.06
   5   3   4  358.39   12.68
  -5  -3  -4  327.34   11.10
  -5  -3  -5 2447.48   58.89
   5   3   5 2542.60   61.01
  -5  -3  -5 2255.98   54.18
   5   3   5 2541.20   61.39
  -5  -3  -6  865.64   24.07
   5   3   6  832.69   22.65
  -5  -3  -6  742.94   20.30
   5   3   6  860.47   24.46
  -5  -3  -7  532.44   17.97
   5   3   7  536.06   18.49
  -5  -3  -7  422.77   20.06
  -5  -3  -8  162.41   12.67
   5   3   8  176.76   11.95
  -5  -3  -8  157.46    9.73
   5   3   8  167.52   11.47
  -5  -3  -9 1100.24   29.81
   5   3   9 1030.42   25.58
  -5  -3  -9  946.41   22.63
   5   3   9  979.43   25.88
  -5  -3 -10  242.32   18.10
   5   3  10  192.53   11.02
  -5  -3 -11  157.30   21.03
  -5  -3 -11  131.18    9.21
   5   3  11  151.58   12.04
  -5  -3 -12   20.13    4.02
   5   3  12   15.97    3.50
   5   3  13   38.73    7.11
   5   3  13   22.45    5.77
   5   3  14   83.82    8.57
   5   3  14  123.99   10.87
  -5  -4   9   20.39    6.18
  -5  -4   8  131.02   14.02
   5   4  -8  107.52   10.25
  -5  -4   7  127.98   10.37
   5   4  -7  114.23    8.20
  -5  -4   6   32.00    5.18
   5   4  -6   43.26    4.40
  -5  -4   5  218.52   15.57
   5   4  -5  183.54   19.85
  -5  -4   4  432.15   15.55
   5   4  -4  434.00   14.76
  -5  -4   3  602.05   18.06
   5   4  -3  584.92   17.25
  -5  -4   2  721.44   18.35
   5   4  -2  726.18   18.15
  -5  -4   1  713.84   20.37
   5   4  -1  681.65   19.28
  -5  -4   0 1080.11   26.96
   5   4   0  931.86   23.06
   5   4   0 1049.96   26.47
   5   4   0 1061.73   25.12
   5   4   0 1050.25   24.86
  -5  -4  -1  293.18   10.12
   5   4   1  270.42   14.96
   5   4   1  289.87   10.38
   5   4   1  283.54    9.11
  -5  -4  -1  280.31    9.03
  -5  -4  -2  830.72   20.70
   5   4   2  817.88   20.28
   5   4   2  841.13   21.61
   5   4   2  803.17   19.72
  -5  -4  -2  788.77   19.36
  -5  -4  -3  565.94   17.94
   5   4   3  553.89   17.51
   5   4   3  598.98   19.55
   5   4   3  562.77   18.06
  -5  -4  -3  542.04   17.30
  -5  -4  -4  323.45   10.92
   5   4   4  299.09    9.95
   5   4   4  333.41   11.68
   5   4   4  309.86   10.67
  -5  -4  -4  317.45   10.80
  -5  -4  -5  951.79   23.59
   5   4   5  904.74   22.35
   5   4   5  947.76   24.09
   5   4   5  934.63   23.75
  -5  -4  -6  889.61   25.61
   5   4   6  783.82   21.23
   5   4   6  908.92   24.79
   5   4   6  871.62   24.38
  -5  -4  -7  149.67   10.81
   5   4   7  157.31   11.16
   5   4   7  154.57    9.90
  -5  -4  -8 1076.23   29.82
   5   4   8 1157.99   31.72
  -5  -4  -9  812.68   20.70
   5   4   9  825.99   20.41
   5   4   9  829.99   21.98
  -5  -4 -10  719.65   27.10
   5   4  10  659.70   24.11
   5   4  10  583.89   23.04
  -5  -4 -11  157.02   20.33
  -5  -4 -11  173.35    6.48
   5   4  11  193.71    9.55
   5   4  12   86.81    8.27
   5   4  13   52.31    8.29
   5   4  13   59.20    9.29
   5   4  14   23.73    7.09
   5   4  14   43.02    8.98
  -5  -5   9   25.29    7.52
  -5  -5   8  105.74   11.27
  -5  -5   7   55.60    8.62
   5   5  -7   35.14    3.14
  -5  -5   6   48.54    6.30
   5   5  -6   55.12    5.55
  -5  -5   5  391.48   16.55
   5   5  -5  371.64   14.41
  -5  -5   4  886.93   30.58
   5   5  -4  897.40   29.99
  -5  -5   3  458.75   16.22
   5   5  -3  450.07   15.01
  -5  -5   2  142.66   10.72
   5   5  -2  140.70   10.11
  -5  -5   1  132.47    8.17
   5   5  -1  146.48    8.53
  -5  -5   0  685.93   19.43
   5   5   0  703.71   19.78
  -5  -5  -1 1253.72   30.77
   5   5   1 1183.84   28.90
   5   5   1 1204.42   28.69
  -5  -5  -1 1196.38   28.55
  -5  -5  -2  104.44    6.19
   5   5   2  100.02    5.82
   5   5   2  116.94    7.23
   5   5   2  110.44    6.13
  -5  -5  -2  105.47    6.02
  -5  -5  -3   90.25    5.34
   5   5   3   78.63    4.63
   5   5   3   91.93    5.91
   5   5   3   96.99    5.84
  -5  -5  -3   95.35    5.90
  -5  -5  -4   21.86    2.29
   5   5   4   20.60    1.86
   5   5   4   23.11    4.13
   5   5   4   23.15    2.71
  -5  -5  -4   25.20    2.71
  -5  -5  -5  209.02   11.60
   5   5   5  186.23   10.35
   5   5   5  225.26   19.68
   5   5   5  186.76   11.10
  -5  -5  -6  492.62   20.48
   5   5   6  464.99   19.25
   5   5   6  491.29   20.75
   5   5   6  482.29   20.66
  -5  -5  -7  280.75   14.06
   5   5   7  268.86   13.04
   5   5   7  283.60   14.31
   5   5   7  290.81   15.15
  -5  -5  -8  627.95   19.34
   5   5   8  612.28   19.01
   5   5   8  650.76   19.50
  -5  -5  -9   79.30   10.37
   5   5   9   65.53   12.10
  -5  -5 -10 1664.41   60.00
   5   5  10 1602.94   58.20
   5   5  10 1726.34  136.99
  -5  -5 -11  735.36   28.55
  -5  -5 -11  717.22   27.89
   5   5  11  656.71   26.57
   5   5  12   54.03    5.70
  -5  -5 -12   50.92    7.72
   5   5  12   74.52    6.96
   5   5  13   74.35    6.34
   5   5  13   66.10    6.35
   5   5  14   69.94   11.01
   5   5  14   90.11   13.71
  -5  -6   8   39.40    8.84
  -5  -6   7   24.59    6.67
  -5  -6   6   31.75    6.34
   5   6  -6   21.05    4.35
  -5  -6   5  194.78    9.32
   5   6  -5  162.43   11.63
  -5  -6   4  219.01   10.80
   5   6  -4  212.78    9.27
  -5  -6   3  295.97   18.20
   5   6  -3  257.98   15.23
  -5  -6   2   89.72    8.74
   5   6  -2  101.68    9.28
  -5  -6   1  167.38   11.77
   5   6  -1  171.77   12.03
  -5  -6   0    5.86    1.57
   5   6   0   10.07    1.97
  -5  -6  -1  838.69   22.89
   5   6   1  812.88   22.01
   5   6   1  894.84   26.39
   5   6   1  865.33   22.68
  -5  -6  -1  855.22   22.47
  -5  -6  -2 1061.41   28.35
   5   6   2  995.07   26.49
   5   6   2 1055.42   27.81
  -5  -6  -2 1030.46   27.23
  -5  -6  -3   68.03    4.39
   5   6   3   67.11    4.18
   5   6   3   80.56    8.97
   5   6   3   70.43    4.55
  -5  -6  -3   60.55    4.01
  -5  -6  -4  517.94   21.26
   5   6   4  503.35   20.62
   5   6   4  526.44   22.24
   5   6   4  505.98   21.03
  -5  -6  -4  482.87   20.09
  -5  -6  -5 1102.70   29.11
   5   6   5 1072.31   28.32
   5   6   5 1070.04   29.22
   5   6   5 1108.81   29.98
  -5  -6  -6  109.67    6.34
   5   6   6  113.02    6.31
   5   6   6  141.45   15.34
   5   6   6  120.61    7.66
  -5  -6  -7  236.01   12.08
   5   6   7  217.70   10.57
   5   6   7  244.60   16.10
   5   6   7  251.59   12.89
  -5  -6  -8   26.63    4.07
   5   6   8   33.64    3.48
   5   6   8   44.21    5.94
   5   6   8   32.34    4.90
  -5  -6  -9  310.75   18.59
   5   6   9  366.65   21.21
   5   6   9  304.47   18.32
  -5  -6 -10  650.71   24.22
   5   6  10  679.76   26.56
   5   6  11  526.06   20.88
  -5  -6 -11  509.30   20.74
   5   6  11  501.32   20.72
   5   6  12   76.05    6.40
  -5  -6 -12   69.95    5.63
   5   6  12   62.11    6.12
   5   6  13   80.38    6.69
  -5  -6 -13   74.33    5.58
   5   6  13   75.91    6.72
   5   6  14  290.12   19.95
   5   6  14  290.04   20.37
  -5  -7   6   57.52   10.75
   5   7  -6   37.00    8.22
  -5  -7   5   26.95    5.76
   5   7  -5   29.14    5.11
  -5  -7   4   16.52    5.72
   5   7  -4   15.09    2.84
  -5  -7   3   17.89    3.96
   5   7  -3   15.64    2.67
  -5  -7   2  317.03   33.94
   5   7  -2  303.84   29.02
  -5  -7   1   93.62    8.62
   5   7  -1   96.21   12.36
  -5  -7   0   39.13    4.27
   5   7   0   56.52    7.47
  -5  -7   0   40.94    2.82
  -5  -7  -1  502.05   14.60
   5   7   1  416.01   12.11
   5   7   1  490.79   14.91
   5   7   1  471.78   12.92
  -5  -7  -1  470.07   12.87
  -5  -7  -2  909.67   21.12
   5   7   2  869.25   20.04
   5   7   2  921.72   23.94
   5   7   2  898.72   20.50
  -5  -7  -2  857.83   19.61
  -5  -7  -3  196.52   10.47
   5   7   3  190.27   10.05
   5   7   3  214.07   15.10
   5   7   3  189.66   10.16
  -5  -7  -3  196.92   10.46
  -5  -7  -4 1539.17   34.27
   5   7   4 1545.08   34.37
   5   7   4 1369.90   34.49
   5   7   4 1583.78   35.92
  -5  -7  -4 1402.45   31.86
  -5  -7  -5  857.30   19.37
   5   7   5  847.56   19.14
   5   7   5  914.53   22.50
   5   7   5  844.01   20.15
  -5  -7  -6   88.25    6.43
   5   7   6   91.04    6.18
   5   7   6  107.90    9.85
   5   7   6   90.03    6.82
  -5  -7  -7  581.06   16.49
   5   7   7  563.54   15.49
   5   7   7  535.16   17.93
   5   7   7  576.18   17.22
  -5  -7  -8  121.69   11.08
   5   7   8  124.98   10.29
   5   7   8  155.41   17.29
   5   7   8  147.20    9.98
  -5  -7  -9    6.58    2.22
   5   7   9    3.57    1.90
   5   7   9    4.93    2.22
   5   7   9    8.84    4.70
   5   7  10    6.14    3.02
   5   7  10   10.76    2.39
   5   7  10   17.29    4.55
   5   7  11  244.20    8.73
  -5  -7 -11  238.59   22.67
   5   7  12   42.90    6.63
  -5  -7 -12   62.99    5.98
   5   7  12   50.28    8.35
   5   7  13   44.09    8.34
  -5  -7 -13   34.64    6.62
   5   7  13   29.63    6.94
   5   7  14  150.89   11.40
  -5  -8   6   40.76    7.76
  -5  -8   5   22.39    6.19
   5   8  -5   13.50    3.64
  -5  -8   4   23.31    5.27
   5   8  -4   29.12    6.20
  -5  -8   3   30.86    5.77
   5   8  -3   24.21    4.18
  -5  -8   2  277.96   13.71
   5   8  -2  263.95   22.78
  -5  -8   1   14.46    2.96
   5   8  -1    7.61    2.85
  -5  -8   0   57.52    8.86
   5   8   0   67.30   11.33
  -5  -8   0   50.53    7.30
  -5  -8  -1  270.27   16.08
  -5  -8  -1  335.41   20.19
   5   8   1  326.75   22.58
   5   8   1  326.03   19.14
  -5  -8  -1  298.96   17.57
  -5  -8  -2  583.91   18.28
   5   8   2  609.33   20.30
   5   8   2  595.55   18.78
  -5  -8  -2  543.74   16.83
  -5  -8  -3  408.13   11.47
   5   8   3  395.85   31.75
   5   8   3  433.72   13.52
   5   8   3  406.87   11.75
  -5  -8  -3  389.80   18.48
  -5  -8  -4  407.51   11.21
   5   8   4  416.38   11.41
   5   8   4  448.15   14.23
   5   8   4  406.72   12.00
  -5  -8  -5  300.69   13.95
   5   8   5  294.04   13.66
   5   8   5  311.34   15.57
   5   8   5  339.14   16.52
  -5  -8  -6   87.87    7.07
   5   8   6   95.74    7.72
   5   8   6  100.03   10.04
   5   8   6   97.40    8.78
   5   8   7  243.19   14.26
   5   8   7  270.42   22.79
   5   8   7  248.56   15.45
   5   8   8  521.18   12.48
   5   8   8  528.15   12.76
   5   8   8  540.59   15.41
   5   8   8  534.41   14.61
   5   8   9   17.68    2.27
   5   8   9   17.48    2.63
   5   8   9   29.13    4.86
   5   8   9   22.53    4.81
   5   8  10   82.39    5.72
   5   8  10   80.18    6.23
   5   8  10   74.99    6.27
   5   8  11   43.88    4.90
  -5  -8 -11   44.05    7.88
   5   8  11   53.34    6.29
   5   8  12   61.90    5.28
  -5  -8 -12   61.80    6.11
   5   8  13   27.53    6.09
  -5  -8 -13   33.84    7.79
   5   8  13   37.47    7.23
   5   8  14   42.65    6.68
  -5  -8 -14   54.63    9.00
   5   8  14   44.62    7.26
  -5  -9   5   80.90   12.41
  -5  -9   4   27.07    6.07
   5   9  -4   27.49    6.37
  -5  -9   3  104.23    8.66
   5   9  -3  103.16   22.36
  -5  -9   2  127.05    9.67
   5   9  -2  143.20   10.75
  -5  -9   1  136.04    9.03
   5   9  -1  123.98   16.90
  -5  -9   0   15.07    3.00
   5   9   0   15.42    3.07
  -5  -9   0    4.06    1.80
  -5  -9  -1  154.55   13.94
   5   9   1  165.80   18.57
   5   9   1  167.01   15.20
  -5  -9  -1  137.72   12.15
  -5  -9  -2   70.88   11.03
  -5  -9  -2   84.32    8.01
   5   9   2   92.48   12.65
   5   9   2   86.12    9.90
  -5  -9  -2   70.33   10.22
  -5  -9  -3  424.39   10.54
   5   9   3  493.78   28.73
  -5  -9  -3  360.51    9.35
  -5  -9  -4  103.95    9.51
  -5  -9  -4  115.95   10.41
   5   9   4  142.19   18.65
   5   9   4  124.89   11.64
   5   9   5   40.58    9.53
   5   9   5   53.91    8.37
   5   9   6   46.27    9.58
   5   9   6   45.80    7.22
   5   9   7  295.57   20.25
   5   9   7  289.10   16.99
   5   9   8  875.32   29.86
   5   9   8  858.45   29.06
   5   9   9  246.51    9.45
   5   9   9  316.34   23.47
   5   9   9  293.84   13.04
   5   9  10  113.16    6.70
   5   9  10  138.96    9.27
   5   9  10  123.69    8.57
   5   9  11  203.31    7.49
  -5  -9 -11  221.91   13.32
   5   9  11  244.51   14.26
  -5  -9 -12   80.61   10.13
   5   9  12   70.59    8.33
  -5  -9 -13  172.71   11.94
  -5  -9 -14  122.12   12.62
   5   9  14  162.62   16.12
  -5 -10   4   37.98    7.76
  -5 -10   3  138.90   10.17
   5  10  -3   79.92   19.99
  -5 -10   2  135.49   10.80
   5  10  -2  120.38   10.78
  -5 -10   1   28.62    5.34
   5  10  -1   16.21    3.56
  -5 -10   0    7.80    2.24
   5  10   0   13.34    3.08
  -5 -10   0    7.86    1.60
  -5 -10  -1   47.73    4.66
   5  10   1   50.87    9.16
   5  10   1   44.28    6.05
  -5 -10  -2  339.31   12.83
   5  10   2  356.77   14.72
   5  10   2  349.63   13.60
  -5 -10  -3  485.18   17.56
   5  10   3  526.42   22.81
   5  10   3  484.19   18.50
   5  10   4    9.41    3.25
   5  10   4   12.66    3.18
   5  10   5   42.88    5.21
   5  10   6  231.51   21.03
   5  10   6  239.33   10.39
   5  10   7  745.81   42.81
   5  10   7  705.51   26.33
   5  10   8  247.80   16.73
   5  10   8  273.53   12.98
   5  10   9  289.88   26.68
   5  10   9  269.09   12.73
  -5 -10 -10  538.90   29.03
   5  10  10  548.02   29.03
  -5 -10 -11  212.64   11.81
   5  10  11  187.60    9.65
  -5 -10 -12  169.79   12.83
   5  10  12  159.62   11.26
  -5 -10 -13  299.34   20.89
   5  10  13  271.19   18.74
  -5 -10 -14   30.19    6.71
   5  10  14   33.71    6.75
  -5 -11   3  144.25   11.98
  -5 -11   2  110.50    8.96
   5  11  -2   78.77   16.58
  -5 -11   1   11.06    4.18
  -5 -11   0   85.20    9.54
   5  11   0   62.81   12.25
  -5 -11  -1   53.12    8.07
   5  11   1   39.81    8.64
  -5 -11  -2  322.93   16.90
   5  11   2  313.77   25.75
   5  11   2  312.23   18.52
   5  11   3  209.88   13.15
   5  11   3  206.23   12.27
   5  11   4  215.77   15.36
   5  11   4  204.18   11.22
   5  11   5  228.65   20.28
   5  11   5  216.81   10.09
   5  11   6  175.60   22.67
   5  11   6  182.18    8.89
   5  11   7  734.21   35.44
   5  11   7  803.37   95.95
   5  11   8   99.64    8.33
   5  11   8  101.25    7.79
   5  11   9  309.47   17.03
  -5 -11 -10  333.77   18.17
   5  11  10  304.80   15.51
  -5 -11 -11   90.80   11.01
   5  11  11   73.64    8.46
  -5 -11 -12  130.03    9.96
   5  11  12  118.75   11.64
  -5 -11 -13   90.62   14.15
   5  11  13   66.21   10.30
   5  12  -1   35.12    9.77
   5  12   0   65.54   14.27
   5  12   1   99.47   19.87
   5  12   2   46.67    7.95
   5  12   2   43.43    7.61
   5  12   3  232.61   27.32
   5  12   3  267.10   11.16
   5  12   4  401.92   20.25
   5  12   4  382.17   18.26
   5  12   5  122.60   13.72
   5  12   5   99.05   14.87
   5  12   6  260.36   20.68
   5  12   6  224.52   16.01
   5  12   7  400.93   20.37
   5  12   7  408.24   20.11
   5  12   8  202.30    9.56
  -5 -12  -9   82.64   11.77
   5  12   9   66.22    6.98
  -5 -12 -10  165.39   12.90
   5  12  10  174.77   12.17
  -5 -12 -11  104.92   11.06
   5  12  11  114.08   11.20
  -5 -12 -12   69.49   11.53
   5  12  12   59.13    9.49
  -5 -12 -13  105.12   10.05
   5  12  13  116.93    9.67
   5  13   1  177.86   17.37
   5  13   2   69.02   10.99
   5  13   3   58.75    9.11
   5  13   3   34.68    8.28
   5  13   4  157.95   11.22
   5  13   4  112.77   11.79
   5  13   5   83.54    6.96
   5  13   5   77.02    7.28
   5  13   6  143.82   17.16
  -5 -13  -7   97.72   10.65
   5  13   7   90.51   14.15
  -5 -13  -8  174.03   13.02
   5  13   8  177.09   11.40
  -5 -13  -9  117.22   13.14
   5  13   9  122.85   11.70
  -5 -13 -10  258.12   18.59
   5  13  10  266.95   18.18
  -5 -13 -11  196.64   19.89
   5  13  11  202.95   19.61
  -5 -13 -12  158.45   13.24
   5  13  12  163.03   12.66
  -5 -14  -3   42.07    9.08
  -5 -14  -4   74.39   10.99
  -5 -14  -5   39.12    8.24
   5  14   5   21.19    6.77
  -5 -14  -6   55.11    9.83
   5  14   6   39.56    9.71
  -5 -14  -7   20.29    6.56
   5  14   7   20.89    6.07
  -5 -14  -8   46.89    9.61
   5  14   8   34.27    8.94
  -5 -14  -9  391.84   37.36
  -5 -14 -10  207.24   16.90
   5  14  10  149.68   22.32
  -6   9   6   93.27    7.95
   6  -9  -6  115.33   11.59
  -6   9   6   60.38   14.98
   6  -9  -5   11.06    4.92
  -6   9   5   20.43    5.59
   6  -9  -4   23.66    6.28
  -6   9   3   72.27   10.88
   6  -9  -3   84.42   13.66
  -6   9   3   49.49   12.35
  -6   9   2  133.60   10.91
   6  -9  -2  109.34    9.88
  -6   9   1   21.29    8.02
   6  -9  -1   32.29    6.86
  -6   8   8   23.52    6.01
  -6   8   8   15.77    5.10
  -6   8   7  166.85   16.32
   6  -8  -7  161.00   16.90
  -6   8   7  140.81   24.20
  -6   8   6  139.97   10.44
   6  -8  -6  115.79   10.77
  -6   8   6  113.23   15.44
  -6   8   5   84.17    8.87
   6  -8  -5   90.21   12.11
  -6   8   5   78.51   16.67
  -6   8   4   25.97    5.64
   6  -8  -4   23.35    6.19
  -6   8   4   19.24    4.24
  -6   8   3  203.13   13.43
   6  -8  -3  179.24   13.03
  -6   8   3  146.50   19.72
  -6   8   2  185.94   12.55
   6  -8  -2  175.97   12.47
  -6   8   1   33.65    6.50
   6  -8  -1   39.44    7.73
  -6   8   0   47.43   13.19
   6  -8   0   53.03    9.04
  -6   8  -1  103.94   17.32
   6  -8   1  118.09   12.35
   6  -8   1  109.94   12.44
  -6   8  -2   32.98    8.14
   6  -8   2   36.06    7.28
   6  -8   2   18.54    6.05
  -6   7   9  136.42   11.29
   6  -7  -9  126.70   11.51
  -6   7   9  116.89   16.33
  -6   7   8   58.35    9.59
   6  -7  -8   72.99   12.95
  -6   7   8   46.32   11.41
  -6   7   7   70.48   11.04
   6  -7  -7   61.41   11.17
  -6   7   7   41.71    8.09
  -6   7   6  161.26   11.75
   6  -7  -6  151.74   12.06
  -6   7   6  143.43   20.23
  -6   7   5  214.04   10.23
   6  -7  -5  184.37   10.21
  -6   7   5  169.52   38.25
  -6   7   4   93.01   10.67
   6  -7  -4   78.77   10.54
  -6   7   4   91.15   14.01
  -6   7   3  165.44   12.62
   6  -7  -3  184.99   11.20
  -6   7   3  166.24   19.48
  -6   7   2   54.77    6.57
   6  -7  -2   42.62    6.37
  -6   7   2   36.23    6.77
  -6   7   1   39.70    4.77
   6  -7  -1   38.34    5.15
  -6   7   0  129.97   10.45
   6  -7   0  114.54    9.37
  -6   7  -1  105.81   14.55
   6  -7   1   88.16   15.11
   6  -7   1   84.91    7.72
  -6   7  -2   64.29   11.74
   6  -7   2  136.30    9.77
   6  -7   2   68.42   11.71
  -6   7  -3   40.49    9.14
   6  -7   3   37.58    6.52
   6  -7   3   57.23   10.70
  -6   7  -4   17.55    5.96
   6  -7   4   24.55    7.92
  -6   6  10   35.02    7.40
   6  -6 -10   29.18    6.47
  -6   6  10   15.03    5.49
  -6   6   9  191.73   13.98
  -6   6   9  133.85   19.76
  -6   6   8  189.43   12.92
   6  -6  -8  202.27   15.38
  -6   6   8  172.32   16.04
  -6   6   7   13.28    4.00
   6  -6  -7    6.07    5.52
  -6   6   7    2.49    2.84
  -6   6   6  387.07   19.60
   6  -6  -6  276.55   15.84
  -6   6   6  325.71   31.43
  -6   6   5  103.16    6.54
   6  -6  -5   79.66    9.41
  -6   6   5   83.08   12.25
  -6   6   4  129.85   19.02
   6  -6  -4  116.28   10.84
  -6   6   4  116.25   13.38
  -6   6   3  137.47   10.89
   6  -6  -3  140.03   11.81
  -6   6   3  116.51   15.48
  -6   6   2   51.25    6.07
   6  -6  -2   57.02    7.40
  -6   6   2   72.25   11.20
  -6   6   1   64.39    7.69
   6  -6  -1   52.35    7.44
  -6   6   0  132.96    6.97
   6  -6   0  135.11    7.69
  -6   6  -1  109.56    9.09
   6  -6   1   84.37    7.63
   6  -6   1   80.77    8.20
  -6   6  -2  136.88   15.03
   6  -6   2  133.77    8.38
   6  -6   2  144.65    9.40
  -6   6  -3   68.20    9.27
   6  -6   3   75.91    9.11
   6  -6   3   75.49   10.57
  -6   6  -4   43.76    8.47
   6  -6   4   43.56    6.33
   6  -6   4   50.60    9.76
  -6   6  -5   99.42   18.04
   6  -6   5   98.63   13.11
  -6   6  -6  145.97   21.77
   6  -6   6  179.53   15.42
  -6   5  10   13.46    4.34
   6  -5 -10   15.86    5.65
  -6   5  10   11.23    3.95
  -6   5   9   63.71   10.30
   6  -5  -9   47.87    8.44
  -6   5   9   57.73   11.80
  -6   5   8  118.99   12.14
   6  -5  -8   92.27   10.68
  -6   5   8   77.74   10.74
  -6   5   7  190.26   10.07
   6  -5  -7  175.31    9.94
  -6   5   7  205.77   14.46
  -6   5   6  178.54    8.52
   6  -5  -6  224.86   15.68
  -6   5   6  194.09   19.58
  -6   5   5   83.74    7.72
   6  -5  -5   98.46   10.21
  -6   5   5   74.78   11.76
  -6   5   4  118.03    8.76
   6  -5  -4   93.99    8.92
  -6   5   4  102.82   12.45
  -6   5   3  277.02   13.70
   6  -5  -3  255.98   13.45
  -6   5   3  270.53   13.26
  -6   5   2  160.12    9.84
   6  -5  -2  133.81    9.73
  -6   5   2  168.53   15.31
  -6   5   1  128.09    8.37
   6  -5  -1  136.13    9.97
  -6   5   0  288.42   14.15
   6  -5   0  284.10   14.28
  -6   5  -1  213.06   11.54
   6  -5   1  213.15   11.50
   6  -5   1  188.57   11.13
  -6   5  -2  123.23    9.86
   6  -5   2  115.31    9.18
   6  -5   2  103.40    9.80
  -6   5  -3   88.13   12.67
   6  -5   3  110.43    8.98
   6  -5   3   99.02   10.67
  -6   5  -4   10.41    4.46
   6  -5   4   20.73    4.64
   6  -5   4   17.70    6.76
  -6   5  -5   92.84   14.06
   6  -5   5   88.22   15.63
  -6   5  -6  125.38   27.55
   6  -5   6  154.61   12.73
  -6   5  -7   64.99   16.50
   6  -5   7   90.32   14.50
  -6   4  10   14.14    5.10
   6  -4 -10   15.81    5.16
  -6   4  10    3.58    2.60
  -6   4   9   62.48    5.74
   6  -4  -9   70.58    7.57
  -6   4   9   64.52    7.91
  -6   4   8   55.63    7.34
   6  -4  -8   77.07    9.53
  -6   4   8   38.89    6.63
  -6   4   7  224.37   13.33
   6  -4  -7  248.12   15.20
  -6   4   7  238.70   20.47
  -6   4   6    6.39    2.56
   6  -4  -6    8.38    3.75
  -6   4   6    5.18    2.06
  -6   4   5  119.14    8.72
   6  -4  -5  125.08   10.20
  -6   4   5  125.64   13.28
  -6   4   4  265.86   12.51
   6  -4  -4  265.80   13.59
  -6   4   4  264.14   19.99
  -6   4   3  271.04   18.57
   6  -4  -3  270.94   19.09
  -6   4   3  284.66   28.10
  -6   4   2   76.49    8.33
   6  -4  -2   86.02    9.88
  -6   4   2   80.84   11.22
  -6   4   1  328.66   12.92
   6  -4  -1  319.82   13.45
  -6   4   0  435.08   16.43
   6  -4   0  424.25   16.16
  -6   4  -1  260.31   17.89
   6  -4   1  260.45   18.25
  -6   4  -2   84.54    6.75
   6  -4   2   75.75    6.10
   6  -4   2   66.00    8.60
  -6   4  -3   60.46    8.56
   6  -4   3   43.47    5.46
   6  -4   3   40.12    6.09
  -6   4  -4  159.69   23.81
   6  -4   4  151.90   11.03
   6  -4   4  174.25   10.44
  -6   4  -5   19.31    4.33
   6  -4   5   11.01    2.99
   6  -4   5   19.66    6.93
  -6   4  -6   46.60    8.47
   6  -4   6   42.64    6.92
  -6   4  -7   14.37    5.72
   6  -4   7   35.76    9.44
  -6   4  -8   29.63    7.56
   6  -4   8   33.56    8.55
  -6   3  11   22.18    6.26
   6  -3 -11   24.34    6.37
  -6   3  11   12.05    4.46
  -6   3  10   15.79    5.39
   6  -3 -10   18.03    4.72
  -6   3  10   12.28    3.48
  -6   3   9   55.30   11.17
   6  -3  -9   24.29    6.50
  -6   3   9   30.70    7.50
  -6   3   8  103.09    7.11
   6  -3  -8  106.28    8.01
  -6   3   8   93.89   11.24
  -6   3   7  164.35    8.92
   6  -3  -7  170.51    8.26
  -6   3   7  173.92   14.66
  -6   3   6   17.70    5.36
   6  -3  -6   16.81    5.81
  -6   3   6   10.13    2.81
  -6   3   5   28.41    5.17
  -6   3   5   23.20    4.00
  -6   3   4  318.97   13.08
   6  -3  -4  321.54   13.80
  -6   3   4  350.39   24.23
  -6   3   3  162.34   15.65
   6  -3  -3  166.00   17.25
  -6   3   3  176.24   20.61
  -6   3   2  213.28   14.08
   6  -3  -2  216.18   15.00
  -6   3   2  260.64   25.93
  -6   3   1  346.81   13.08
   6  -3  -1  321.47   20.38
  -6   3   1  344.62   12.54
  -6   3   0  237.21   15.28
   6  -3   0  226.23   15.30
  -6   3  -1   94.76    9.98
   6  -3   1   82.33    8.82
   6  -3   1   95.72   10.73
  -6   3  -2   41.48    6.92
   6  -3   2   46.39    7.88
  -6   3  -3  322.25   12.64
   6  -3   3  302.97   20.24
   6  -3   3  307.29   21.07
  -6   3  -4  232.47   23.07
   6  -3   4  230.10   10.27
   6  -3   4  199.85   10.98
   6  -3   5   23.22    2.96
   6  -3   5   14.80    6.49
   6  -3   6   42.56    5.55
   6  -3   6   46.93    8.54
   6  -3   7   39.53    6.03
  -6   3  -8  132.27   15.55
   6  -3   8  101.93   11.42
   6  -3   9   52.49   10.78
   6  -2 -11    6.02    3.08
  -6   2  10   94.58   12.79
   6  -2 -10   65.60   10.68
  -6   2  10   39.99    9.31
  -6   2   9   12.75    5.20
  -6   2   9    9.50    3.09
  -6   2   8  155.91    9.86
   6  -2  -8  136.23    9.68
  -6   2   8  130.81    9.28
  -6   2   7   88.02    8.78
   6  -2  -7   64.88    7.70
  -6   2   7   95.23   10.58
  -6   2   6   34.05    5.41
   6  -2  -6   35.51    6.30
  -6   2   6   43.51    6.71
  -6   2   5    9.27    3.81
   6  -2  -5    7.12    4.04
  -6   2   5    2.14    2.15
  -6   2   4   42.75    7.57
   6  -2  -4   40.14    7.24
  -6   2   4   53.73   10.20
  -6   2   3  207.32   14.14
   6  -2  -3  151.02   10.70
  -6   2   3  224.09   20.14
  -6   2   2  232.92   12.51
   6  -2  -2  196.64   14.11
  -6   2   2  233.22   21.78
  -6   2   1  191.79   13.54
   6  -2  -1  203.21   14.72
  -6   2   0  144.69   10.55
   6  -2   0  149.75   11.10
   6  -2   1  161.24   11.98
   6  -2   1  155.04   12.32
   6  -2   2  341.48   21.03
   6  -2   2  342.65   49.61
  -6   2  -3  215.16   14.09
   6  -2   3  209.93   13.53
  -6   2  -4   18.04    3.80
   6  -2   4   17.78    3.99
   6  -2   4    7.39    4.36
  -6   2  -5  634.24   28.76
   6  -2   5  622.82   21.16
   6  -2   5  504.31   19.29
  -6   2  -6   82.74    9.96
   6  -2   6   69.31    6.62
   6  -2   6   70.01    8.61
  -6   2  -7  102.12   13.37
   6  -2   7  103.37    7.25
   6  -2   7  115.63   10.98
  -6   2  -8   92.04   12.15
   6  -2   8   86.13    9.19
  -6   2  -9  102.72   17.17
   6  -2   9  108.97   11.83
  -6   2 -10   18.29    5.91
   6  -2  10   37.31    8.29
  -6   1  11   12.81    5.21
   6  -1 -11    4.51    3.18
  -6   1  10   70.29   11.85
   6  -1 -10   65.08   10.38
  -6   1   9   65.91    7.81
   6  -1  -9   53.09    9.93
  -6   1   9   35.73    7.96
  -6   1   8   69.70    8.40
   6  -1  -8   72.88    6.65
  -6   1   8   42.90    8.16
  -6   1   7  218.38   11.53
   6  -1  -7  256.06   13.59
  -6   1   7  241.57   11.50
  -6   1   6  238.13   11.62
   6  -1  -6  240.48   12.19
  -6   1   6  225.44   10.14
  -6   1   5   55.24    9.91
   6  -1  -5   57.65    9.50
  -6   1   5   60.62   10.26
  -6   1   4   29.29    5.57
   6  -1  -4   14.58    2.95
  -6   1   4   25.83    3.37
   6  -1  -3  495.04   16.38
  -6   1   3  499.74   15.62
  -6   1   2  254.96   13.68
   6  -1  -2  236.33   12.76
  -6   1   2  254.69   15.50
  -6   1   1  191.50   11.47
   6  -1  -1  191.52   11.61
  -6   1   0  200.20   14.40
   6  -1   0  191.35   11.26
  -6   1  -1  145.27    9.06
   6  -1   1  141.78    8.86
   6  -1   1  145.81    9.48
  -6   1  -2  248.38   13.06
   6  -1   2  243.14   12.73
   6  -1   2  264.89   14.35
  -6   1  -3  121.49    9.34
   6  -1   3  150.61   10.76
   6  -1   3  141.85   11.55
  -6   1  -4  260.31   16.46
   6  -1   4  229.03   14.29
  -6   1  -5  498.93   20.91
   6  -1   5  480.54   12.76
   6  -1   5  534.14   15.89
  -6   1  -6  263.86   21.46
   6  -1   6  235.72   15.52
  -6   1  -6  172.01   15.28
   6  -1   6  211.50   15.78
  -6   1  -7   45.52    7.68
   6  -1   7   25.44    2.56
   6  -1   7   32.96    5.36
  -6   1  -8  173.14   21.14
   6  -1   8  172.00   10.04
  -6   1  -9   70.95   13.26
   6  -1   9   80.95   10.68
  -6   1 -10   23.11    7.12
   6  -1  10   39.11    7.43
  -6   1 -11   14.27    4.67
   6  -1  11   27.00    7.70
  -6   0  10    7.02    3.84
  -6   0   9   61.79    7.34
   6   0  -9   59.70   10.50
  -6   0   8   49.51    8.31
   6   0  -8   71.19    6.57
  -6   0   8   56.61    6.39
   6   0  -7  506.35   25.07
  -6   0   7  483.35   22.93
  -6   0   6  601.52   23.66
   6   0  -6  606.45   23.70
  -6   0   6  593.20   22.21
  -6   0   5  177.99   17.18
   6   0  -5  199.56   13.47
  -6   0   5  156.36   14.31
  -6   0   4   28.22    4.83
   6   0  -4   27.36    5.48
  -6   0   4   34.11    5.49
   6   0  -4   17.67    1.96
  -6   0   3  121.29   10.33
   6   0  -3  123.00   10.12
  -6   0   3  138.89   11.45
   6   0  -3  116.22    7.94
  -6   0   2  830.20   20.79
   6   0  -2  820.22   20.99
  -6   0   2  828.13   20.03
  -6   0   1  270.13   13.87
   6   0  -1  402.08   20.00
  -6   0   0  133.02    8.83
   6   0   0  135.37    8.86
   6   0   0  138.86    8.56
  -6   0  -1   39.81    3.71
   6   0   1   47.50    4.30
   6   0   1   42.90    5.05
  -6   0  -2  685.89   17.41
   6   0   2  698.72   17.76
   6   0   2  683.11   17.58
  -6   0  -3  191.26   10.94
   6   0   3  196.46   11.44
   6   0   3  193.15   11.69
  -6   0  -4  339.45   17.11
   6   0   4  330.93   16.37
   6   0   4  333.74   17.27
  -6   0  -5  212.62   14.73
   6   0   5  219.82   13.75
  -6   0  -6  606.29   33.53
   6   0   6  569.51   14.47
   6   0   6  591.92   17.33
  -6   0  -7   86.89   16.47
   6   0   7   83.57    7.71
  -6   0  -7   64.19    7.10
   6   0   7   82.65    9.96
  -6   0  -8  102.85   10.11
   6   0   8   68.81    7.58
   6   0   8   90.69    9.12
  -6   0  -9   40.58    8.01
   6   0   9   36.69    7.56
  -6   0 -10   57.44   11.54
   6   0  10   62.20    7.93
  -6   0 -11   65.31   15.49
   6   0  11   75.89    9.93
  -6   0 -12   54.84   14.78
   6   0  12   83.11    8.86
  -6  -1  10   28.82    7.45
   6   1 -10    2.70    2.75
  -6  -1   9   38.10    8.49
   6   1  -9   35.43    6.68
  -6  -1   8   88.87    8.23
   6   1  -8   79.47    6.62
  -6  -1   8   62.15    5.01
  -6  -1   7  129.67   10.86
   6   1  -7  122.79    9.63
  -6  -1   7  105.47    7.90
  -6  -1   6  453.77   18.89
   6   1  -6  490.73   19.57
  -6  -1   6  443.63   16.70
  -6  -1   5  259.15   16.43
   6   1  -5  309.85   19.01
  -6  -1   5  278.39   16.05
   6   1  -5  246.95   14.08
  -6  -1   4  163.05   11.55
   6   1  -4  188.51   12.59
  -6  -1   4  157.56   10.44
   6   1  -4  155.87    9.50
  -6  -1   3  187.86   13.67
   6   1  -3  157.43   11.63
  -6  -1   3  176.32   11.69
   6   1  -3  157.95   10.42
  -6  -1   2  176.97   10.31
   6   1  -2  163.82    8.69
  -6  -1   1  832.69   23.47
   6   1  -1  872.18   24.97
   6   1  -1  767.59   21.26
  -6  -1   0  198.59   12.14
   6   1   0  202.00   12.45
   6   1   0  175.56   10.02
   6   1   0  182.57   10.71
  -6  -1  -1  181.84   11.13
   6   1   1  180.02   11.27
   6   1   1  151.56    8.95
   6   1   1  188.11   11.27
  -6  -1  -2  150.69    9.68
   6   1   2  140.50    8.76
   6   1   2  134.55    9.25
  -6  -1  -3  815.17   23.01
   6   1   3  861.50   24.00
   6   1   3  868.88   24.55
  -6  -1  -4 1119.69   26.76
   6   1   4 1184.23   28.03
   6   1   4 1143.37   27.86
  -6  -1  -5  346.83   17.66
   6   1   5  350.14   17.04
   6   1   5  366.98   18.95
  -6  -1  -6  498.24   24.08
   6   1   6  464.35   15.05
  -6  -1  -7  643.63   19.14
   6   1   7  624.96   15.55
   6   1   7  653.34   19.02
  -6  -1  -8    5.81    2.70
   6   1   8    3.63    1.80
  -6  -1  -8    3.80    2.04
   6   1   8    3.32    6.92
  -6  -1  -9  186.72   12.28
   6   1   9  167.13    7.49
   6   1   9  182.72    8.95
  -6  -1 -10  282.96   16.32
   6   1  10  269.05   14.88
  -6  -1 -11  177.24   16.17
   6   1  11  186.20   13.51
  -6  -1 -12   62.54   15.14
   6   1  12   86.87   11.38
  -6  -2  10   44.99    9.66
  -6  -2   9   20.08    5.88
   6   2  -9   25.22    4.62
  -6  -2   8   56.69    7.98
   6   2  -8   47.92    5.23
  -6  -2   7   62.85   10.94
   6   2  -7   45.70    6.42
  -6  -2   7   39.71    5.91
  -6  -2   6  106.85    9.14
   6   2  -6  103.15    7.05
  -6  -2   6  110.10    5.90
  -6  -2   5   51.40    7.25
   6   2  -5   68.00    8.64
  -6  -2   5   66.37    8.15
   6   2  -5   50.15    5.50
  -6  -2   4   73.33    8.53
   6   2  -4   73.28    7.52
  -6  -2   4   64.13    5.69
   6   2  -4   60.88    5.16
  -6  -2   3  226.88   12.70
   6   2  -3  208.22   14.80
   6   2  -3  213.99   17.25
  -6  -2   2 1388.89   33.29
   6   2  -2 1324.33   31.64
   6   2  -2 1263.39   28.32
   6   2  -2 1310.55   29.57
  -6  -2   1 1602.92   43.19
   6   2  -1 1529.10   40.07
   6   2  -1 1612.95   42.43
  -6  -2   0  115.04    7.70
   6   2   0   85.53    7.50
   6   2   0  102.72    8.69
   6   2   0  104.69    6.54
  -6  -2  -1  340.54   15.08
   6   2   1  382.35   17.10
   6   2   1  328.63   14.57
   6   2   1  353.57   15.19
  -6  -2  -2  352.68   15.63
   6   2   2  297.49   13.28
   6   2   2  342.84   15.06
  -6  -2  -3 2116.88   56.10
   6   2   3 2096.26   55.56
   6   2   3 2182.39   58.02
  -6  -2  -4  510.26   21.85
   6   2   4  513.06   21.81
   6   2   4  486.23   20.99
  -6  -2  -5  539.50   14.50
   6   2   5  526.47   13.39
   6   2   5  554.86   15.47
  -6  -2  -6  734.92   23.31
   6   2   6  744.08   20.96
   6   2   6  759.59   22.80
  -6  -2  -7  432.72   16.97
   6   2   7  389.17   13.59
  -6  -2  -8  103.11   14.61
   6   2   8   89.23   10.38
  -6  -2  -8   71.00    7.85
   6   2   8   92.62    9.73
  -6  -2  -9  250.97   13.91
   6   2   9  242.96   14.15
   6   2   9  249.21   13.34
  -6  -2 -10  609.97   44.90
   6   2  10  490.44   22.73
   6   2  10  596.48   29.76
  -6  -2 -11  238.16   20.18
   6   2  11  246.66   12.33
  -6  -2 -12   95.76   16.69
   6   2  12  116.15   12.39
  -6  -2 -13   11.61    4.73
   6   2  13   20.31    5.62
  -6  -3   9    8.41    4.31
   6   3  -9   13.78    3.05
  -6  -3   8   44.85    8.86
   6   3  -8   36.03    6.54
  -6  -3   7  165.63    9.33
   6   3  -7  162.99    7.62
  -6  -3   6   44.25    6.96
   6   3  -6   21.74    3.48
  -6  -3   5   19.38    4.62
   6   3  -5   10.30    2.62
   6   3  -5   10.78    1.28
  -6  -3   4  129.36   13.37
   6   3  -4  149.99   14.39
   6   3  -4  119.78   10.69
   6   3  -4  114.97   10.27
  -6  -3   3  682.04   22.94
   6   3  -3  676.00   22.09
   6   3  -3  630.20   18.85
   6   3  -3  614.50   18.41
  -6  -3   2 1598.49   37.68
   6   3  -2 1560.78   36.65
   6   3  -2 1510.84   33.31
   6   3  -2 1548.50   34.20
  -6  -3   1  283.71   14.47
   6   3  -1  301.02   15.31
   6   3  -1  280.24   13.14
   6   3  -1  277.68   13.16
  -6  -3   0  962.28   26.66
   6   3   0  989.43   27.54
   6   3   0  915.77   24.14
   6   3   0  950.40   25.24
  -6  -3  -1  319.72   14.27
   6   3   1  324.33   14.45
   6   3   1  301.19   12.57
   6   3   1  341.61   14.59
  -6  -3  -2  940.06   25.87
   6   3   2  937.88   25.98
   6   3   2  929.23   25.16
  -6  -3  -3  610.19   17.51
   6   3   3  602.33   17.57
   6   3   3  571.15   23.99
  -6  -3  -3  529.04   22.00
  -6  -3  -4  222.27   12.73
   6   3   4  202.44   11.85
   6   3   4  228.35   13.07
  -6  -3  -5  190.28   10.63
   6   3   5  201.59   13.65
   6   3   5  198.60   11.98
  -6  -3  -6  980.34   39.51
   6   3   6  986.60   27.41
   6   3   6  940.77   27.35
  -6  -3  -7  536.17   31.14
   6   3   7  522.64   17.02
   6   3   7  519.32   17.82
  -6  -3  -8  304.05   30.57
   6   3   8  271.30   17.81
  -6  -3  -9   45.47    6.31
   6   3   9   34.35    5.01
   6   3   9   37.86    5.75
  -6  -3 -10  382.68   34.18
   6   3  10  288.30   14.41
   6   3  10  322.88   17.03
  -6  -3 -11  698.01   35.48
   6   3  11  718.57   34.84
  -6  -3 -12  169.88   14.76
   6   3  12  163.47   12.10
  -6  -3 -13   48.28    8.41
   6   3  13  135.92   14.40
  -6  -4   9  121.12   11.75
  -6  -4   8   49.96    8.39
   6   4  -8   44.77    6.15
  -6  -4   7  206.37   11.03
   6   4  -7  178.28    7.89
  -6  -4   6   73.44    9.11
   6   4  -6   65.53    6.77
  -6  -4   5   46.37    7.73
   6   4  -5   37.79    4.90
  -6  -4   4  306.17   21.27
   6   4  -4  321.37   12.29
  -6  -4   3  695.01   23.11
   6   4  -3  684.21   22.24
  -6  -4   2  331.54   17.06
   6   4  -2  309.61   15.53
  -6  -4   1  471.44   23.11
   6   4  -1  442.25   21.83
  -6  -4   0  533.34   13.92
   6   4   0  486.28   22.50
   6   4   0  502.00   32.08
  -6  -4  -1  185.18   11.11
   6   4   1  162.35    9.83
   6   4   1  167.78    9.37
  -6  -4  -2  460.83   19.58
   6   4   2  479.13   20.42
   6   4   2  476.95   19.80
  -6  -4  -2  448.13   18.56
  -6  -4  -3  331.13   14.43
   6   4   3  373.31   16.28
   6   4   3  372.95   16.02
  -6  -4  -3  325.05   13.81
  -6  -4  -4  113.49    7.05
   6   4   4  129.94    8.02
   6   4   4  115.71    7.45
  -6  -4  -5   40.93    3.54
   6   4   5   27.09    2.96
   6   4   5   42.91    4.75
  -6  -4  -6  318.81   15.67
   6   4   6  326.64   16.21
   6   4   6  336.75   17.15
  -6  -4  -7  283.16   20.79
   6   4   7  243.74   12.78
   6   4   7  255.80   14.18
  -6  -4  -8  631.11   16.78
   6   4   8  614.62   17.82
   6   4   8  580.32   16.71
  -6  -4  -9  335.65   20.82
   6   4   9  312.32   23.74
  -6  -4 -10   15.97    3.64
   6   4  10   15.44    2.59
   6   4  10   12.32    3.74
  -6  -4 -11  637.16   91.09
   6   4  11  571.38   29.49
   6   4  11  535.87   28.89
  -6  -4 -12  249.97   17.39
   6   4  12  298.28   13.71
  -6  -4 -13  101.20   11.99
   6   4  13  105.46   13.24
   6   4  14   12.68    5.02
   6   4  14   16.35    5.46
  -6  -5   8   70.40   11.23
  -6  -5   7   72.66    6.83
   6   5  -7   60.70    4.51
  -6  -5   6   99.20    9.00
   6   5  -6   97.23    7.40
  -6  -5   5   92.61    8.77
   6   5  -5   98.27    7.75
  -6  -5   4  271.05   12.57
   6   5  -4  257.92   11.21
  -6  -5   3  284.26   17.34
   6   5  -3  266.59   15.91
  -6  -5   2   13.38    5.00
   6   5  -2   13.43    3.27
  -6  -5   1  308.34   15.70
   6   5  -1  295.05   15.09
  -6  -5   0  235.59   12.11
   6   5   0  241.54   12.76
  -6  -5  -1   63.92    4.90
   6   5   1   64.40    3.71
  -6  -5  -2  211.40   12.00
   6   5   2  187.06   10.56
   6   5   2  222.98   13.36
   6   5   2  211.24   11.75
  -6  -5  -2  212.75   11.81
  -6  -5  -3  890.61   24.19
   6   5   3  856.65   23.17
   6   5   3  906.67   25.22
   6   5   3  918.30   24.77
  -6  -5  -3  842.34   22.74
  -6  -5  -4  122.78    7.59
   6   5   4   95.58    5.75
   6   5   4  125.68    8.07
   6   5   4  118.45    7.65
  -6  -5  -4  116.68    6.99
  -6  -5  -5  604.15   14.85
   6   5   5  509.80   12.43
   6   5   5  562.35   14.38
   6   5   5  557.33   14.23
  -6  -5  -6  131.85    7.65
   6   5   6  146.40   11.30
   6   5   6  138.23    8.72
  -6  -5  -7  305.92   16.77
   6   5   7  336.14   17.51
   6   5   7  291.55   14.86
  -6  -5  -8  419.53   15.49
   6   5   8  431.80   14.80
   6   5   8  426.22   15.38
  -6  -5  -9   68.59   10.04
   6   5   9   59.10    8.57
   6   5   9   54.90    7.82
  -6  -5 -10  113.60   14.66
   6   5  10  107.53    8.23
  -6  -5 -11  212.38   20.98
   6   5  11  187.23   13.01
   6   5  11  196.82    9.32
  -6  -5 -12  525.08  106.20
  -6  -5 -12  488.63   18.45
   6   5  12  521.41  102.53
   6   5  13   15.20    5.42
   6   5  14   22.08    6.40
   6   5  14   26.23    6.66
  -6  -6   8   49.08    8.13
  -6  -6   7   11.18    5.65
   6   6  -7    5.81    2.50
  -6  -6   6   40.55    8.49
   6   6  -6   23.25    5.02
  -6  -6   5   19.43    4.65
   6   6  -5   28.71    4.32
  -6  -6   4  134.29    9.88
   6   6  -4  139.40    9.05
  -6  -6   3  100.99    7.78
   6   6  -3  106.73    6.76
  -6  -6   2   18.01    4.48
   6   6  -2   27.45    5.28
  -6  -6   1   67.34    6.97
   6   6  -1   66.90    6.67
  -6  -6   0  201.71   13.92
   6   6   0  202.28   14.12
  -6  -6  -1  199.14   13.49
   6   6   1  216.92   11.65
   6   6   1  207.88   13.36
  -6  -6  -1  196.95   12.74
  -6  -6  -2 1237.82   28.61
   6   6   2 1134.31   26.01
   6   6   2 1249.38   29.52
   6   6   2 1238.42   27.84
  -6  -6  -2 1227.36   27.59
  -6  -6  -3  448.80   21.38
   6   6   3  412.71   19.62
   6   6   3  362.58   17.85
   6   6   3  457.31   21.61
  -6  -6  -3  423.65   20.05
  -6  -6  -4  195.92   10.58
   6   6   4  185.76    9.97
   6   6   4  192.67   17.11
   6   6   4  183.32   10.03
  -6  -6  -4  179.34    9.82
  -6  -6  -5 1054.93   24.30
   6   6   5 1033.47   23.77
   6   6   5 1069.47   25.52
   6   6   5 1067.11   25.10
  -6  -6  -6  597.18   16.82
   6   6   6  573.16   16.05
   6   6   6  615.64   18.04
   6   6   6  625.79   18.41
  -6  -6  -7   81.39    8.88
   6   6   7   55.98    5.15
   6   6   7   92.61    9.85
   6   6   7   60.12    6.02
  -6  -6  -8   24.14    4.19
   6   6   8   25.30    5.13
   6   6   8   23.77    4.65
  -6  -6  -9  349.43   13.94
   6   6   9  331.69   12.99
   6   6   9  344.33   13.25
  -6  -6 -10  207.22   10.49
   6   6  10  217.84   10.57
   6   6  10  224.90   11.61
  -6  -6 -11    5.99    2.48
   6   6  11    6.96    2.31
   6   6  11    2.39    3.25
  -6  -6 -12  241.92   12.47
  -6  -6 -12  246.76   12.79
   6   6  13   11.07    3.51
  -6  -6 -13    9.60    2.98
   6   6  13   10.10    3.53
   6   6  14   11.40    3.78
   6   6  14   22.05    6.84
  -6  -7   7   21.08    7.01
  -6  -7   6    8.91    3.97
   6   7  -6    9.18    2.46
  -6  -7   5   17.19    3.36
   6   7  -5   13.72    2.29
  -6  -7   4   33.38    6.13
   6   7  -4   29.53    5.79
  -6  -7   3   17.83    3.91
   6   7  -3   13.35    2.98
  -6  -7   2  236.44   11.23
   6   7  -2  220.14   15.24
  -6  -7   1  203.13   14.04
   6   7  -1  207.12   16.38
  -6  -7   0   12.77    3.36
   6   7   0   32.01    5.29
  -6  -7  -1   53.60    5.36
   6   7   1   53.16    8.03
   6   7   1   41.64    3.93
  -6  -7  -1   46.72    3.98
  -6  -7  -2  424.54   12.56
   6   7   2  382.89   18.20
   6   7   2  432.14   13.79
   6   7   2  430.05   11.92
  -6  -7  -2  417.25   11.74
  -6  -7  -3  705.71   19.57
   6   7   3  698.96   19.31
   6   7   3  721.32   21.87
   6   7   3  720.12   19.79
  -6  -7  -3  735.92   20.32
  -6  -7  -4 1111.30   30.01
   6   7   4 1108.63   29.89
   6   7   4 1174.02   36.14
   6   7   4 1167.16   31.74
  -6  -7  -5  595.24   16.50
   6   7   5  591.82   16.40
   6   7   5  616.43   18.59
   6   7   5  628.49   17.95
  -6  -7  -6  227.76   11.17
   6   7   6  205.76   13.49
   6   7   6  224.30   17.15
   6   7   6  230.02   11.88
  -6  -7  -7   11.40    2.37
   6   7   7    6.16    2.31
   6   7   7    9.83    1.98
   6   7   7    8.38    3.90
  -6  -7  -8  110.61   10.51
   6   7   8  101.64    9.38
   6   7   8  131.56   14.78
   6   7   8  143.15   13.88
  -6  -7  -9  425.04   14.74
   6   7   9  414.69   15.42
   6   7   9  422.27   15.64
  -6  -7 -10    4.51    2.75
   6   7  10    8.47    3.19
   6   7  10   15.58    4.52
  -6  -7 -11  116.79    8.62
   6   7  11  137.37   11.73
   6   7  11  141.71   11.10
   6   7  12   61.20    5.49
  -6  -7 -12   40.13    6.46
   6   7  12   55.47    5.49
   6   7  13  207.05   13.21
  -6  -7 -13  211.45   13.49
   6   7  13  185.30   12.38
   6   7  14   31.13    6.30
   6   7  14   18.49    5.43
  -6  -8   6   18.68    6.33
   6   8  -5   13.77    4.06
  -6  -8   4   60.11    7.14
   6   8  -4   47.20    7.87
  -6  -8   3   45.31    6.80
   6   8  -3   34.24    6.25
  -6  -8   2  209.02    8.72
   6   8  -2  200.76   14.76
  -6  -8   1  264.61   12.10
   6   8  -1  260.91   24.43
  -6  -8   0   40.48    5.28
   6   8   0   37.76    7.48
  -6  -8  -1   15.07    3.36
   6   8   1   23.27    4.52
   6   8   1   14.48    2.88
  -6  -8  -1   13.62    2.25
  -6  -8  -2   34.62    5.76
   6   8   2   26.77    4.43
   6   8   2   43.93    8.50
   6   8   2   32.25    6.18
  -6  -8  -2   33.90    5.13
  -6  -8  -3  240.68   14.50
   6   8   3  215.57   13.06
   6   8   3  246.89   15.53
   6   8   3  262.61   15.71
  -6  -8  -3  222.64   13.46
  -6  -8  -4  492.12   15.38
   6   8   4  486.55   15.14
   6   8   4  502.41   29.41
   6   8   4  485.33   15.42
  -6  -8  -4  413.26   13.36
  -6  -8  -5  144.77    8.80
   6   8   5  132.19    8.06
   6   8   5  152.25   14.99
   6   8   5  154.69   10.03
  -6  -8  -6   43.96    6.13
   6   8   6   41.87    3.76
   6   8   6   48.44    6.01
   6   8   6   54.01    5.34
  -6  -8  -7   57.74    9.02
   6   8   7   55.61    8.13
   6   8   7   85.55   10.78
   6   8   7   68.56   10.38
  -6  -8  -8  320.37   10.93
   6   8   8  345.05   11.70
   6   8   8  376.24   14.09
   6   8   8  387.81   14.31
  -6  -8  -9  328.03   13.10
   6   8   9  391.01   25.81
   6   8   9  375.75   15.38
   6   8  10  106.83   12.79
   6   8  10  111.31    8.08
   6   8  11  175.60    7.13
   6   8  11  171.85   20.43
   6   8  11  181.34    8.82
   6   8  12   70.10   14.18
  -6  -8 -12   80.57    9.87
   6   8  12   67.40    7.25
   6   8  13  126.45    8.37
  -6  -8 -13  122.38   11.94
   6   8  13  131.84    9.46
  -6  -8 -14  223.70   21.58
   6   8  14  224.71   21.72
  -6  -9   5   74.98   11.35
  -6  -9   4  122.37   10.25
   6   9  -4   98.22   17.28
  -6  -9   3   74.09    6.38
   6   9  -3   73.68    8.88
  -6  -9   2  173.60    8.73
   6   9  -2  173.13   11.42
  -6  -9   1  297.57   15.34
   6   9  -1  253.62   21.65
  -6  -9   0   32.83    3.91
   6   9   0   27.21    5.63
  -6  -9  -1    3.98    3.06
   6   9   1   11.56    2.97
   6   9   1    2.68    1.29
  -6  -9  -2   38.66    4.48
  -6  -9  -2   46.30    5.50
   6   9   2   52.61    8.95
   6   9   2   41.05    6.06
  -6  -9  -2   43.15    4.79
  -6  -9  -3   89.43    8.24
   6   9   3   97.06    8.84
   6   9   3  100.90   15.29
   6   9   3  102.91   10.15
  -6  -9  -3   80.08    7.32
  -6  -9  -4  242.17   13.73
   6   9   4  225.20   12.78
   6   9   4  259.33   14.93
  -6  -9  -5   86.80    7.92
   6   9   5   80.93    7.41
   6   9   5   92.34   12.71
   6   9   5   92.60    8.81
  -6  -9  -6    2.63    1.26
   6   9   6    6.39    1.43
   6   9   6    6.74    3.44
   6   9   6    4.46    2.58
  -6  -9  -7  177.35   15.38
   6   9   7  195.37   12.47
   6   9   7  246.79   24.36
   6   9   7  202.90   13.76
   6   9   8 1023.00   37.85
   6   9   8 1091.31   40.00
   6   9   9  389.48   14.80
   6   9   9  411.80   23.84
   6   9   9  376.58   15.61
   6   9  10  279.45   13.23
   6   9  10  318.23   23.84
   6   9  10  286.50   14.74
   6   9  11  261.66   12.64
   6   9  11  338.33   17.13
   6   9  11  292.05   14.98
  -6  -9 -12  102.66   23.96
   6   9  12  113.80    9.23
  -6  -9 -13   50.13    7.56
   6   9  13   40.37    6.53
  -6  -9 -14  432.31   94.06
   6   9  14  407.66   38.41
  -6 -10   4   15.43    5.18
  -6 -10   3   77.69    9.79
   6  10  -3   55.12   12.97
  -6 -10   2  224.43   14.88
   6  10  -2  180.68   24.03
  -6 -10   1  243.42   10.59
   6  10  -1  233.44   24.52
  -6 -10   0   84.75    6.96
   6  10   0   88.64   11.63
  -6 -10  -1   61.22    6.40
   6  10   1   69.78   11.42
  -6 -10  -2  209.81    9.72
   6  10   2  258.54   13.01
   6  10   2  200.95    8.88
   6  10   3  492.76   24.13
   6  10   3  508.31   19.45
  -6 -10  -4   74.42    4.11
   6  10   4   91.49   10.97
   6  10   4   86.97    7.55
   6  10   5  166.35   22.45
   6  10   5  176.92    7.82
   6  10   6   48.08    7.77
   6  10   6   42.59    5.15
   6  10   7  401.31   17.15
   6  10   7  400.93   16.10
   6  10   8  976.20   51.70
   6  10   8  893.95   34.31
   6  10   9  191.33   14.51
   6  10   9  192.74    7.97
   6  10  10  494.42   35.92
   6  10  10  496.98   26.44
   6  10  11  308.16   13.37
   6  10  11  291.56   12.55
  -6 -10 -12   44.68    8.66
   6  10  12   30.08    6.61
  -6 -10 -13   95.00   11.74
   6  10  13   90.60   11.06
  -6 -10 -14   49.69    7.57
   6  10  14   49.09    7.39
  -6 -11   2  101.99   10.88
   6  11  -2   65.18   16.43
  -6 -11   1   58.44    8.76
   6  11  -1   44.21    8.49
  -6 -11   0   59.47   10.13
   6  11   0   56.24   12.07
  -6 -11  -1  201.05    9.10
   6  11   1  219.56   18.60
  -6 -11  -2  519.36   24.24
   6  11   2  527.10   32.06
   6  11   2  498.23   23.29
   6  11   3  217.93   39.08
   6  11   3  203.72    7.47
   6  11   4  260.02   26.32
   6  11   4  251.74   10.96
   6  11   5  429.00   26.18
   6  11   5  428.36   21.12
   6  11   6  142.66   15.36
   6  11   6  127.23    9.12
   6  11   7  220.79   20.65
   6  11   7  195.44    7.22
   6  11   8  181.24   15.26
   6  11   8  176.17    7.47
   6  11   9  198.50   16.74
   6  11   9  218.08   15.04
   6  11  10  128.34   10.33
   6  11  10  110.62    8.58
  -6 -11 -11  333.06   22.19
   6  11  11  326.34   21.11
  -6 -11 -12  178.88   12.86
   6  11  12  165.07   10.98
  -6 -11 -13   61.52   10.74
   6  11  13   54.71    9.34
   6  12  -1   16.19    6.46
   6  12   0   26.04    7.20
   6  12   1   54.86   12.23
   6  12   2  107.04   19.52
   6  12   3  129.78   17.29
   6  12   4  481.93   20.58
   6  12   5  106.10   11.65
   6  12   5   73.33    9.06
   6  12   6  143.35   14.82
   6  12   6  142.48    6.92
   6  12   7  123.03   14.16
   6  12   7  129.22    6.69
   6  12   8   88.77   15.57
   6  12   8   97.65   10.67
   6  12   9   87.42   10.19
   6  12   9   91.69   10.29
   6  12  10   95.15    9.56
  -6 -12 -11  305.97   19.71
   6  12  11  293.39   18.06
  -6 -12 -12  290.60   27.98
   6  12  12  294.45   27.93
  -6 -12 -13  143.65   12.30
   6  12  13  124.48   10.12
   6  13   1   14.40    5.98
   6  13   2   28.93    8.17
   6  13   3   90.25   19.26
   6  13   4   70.01   17.43
   6  13   5  100.30   20.66
   6  13   5   78.66   16.75
   6  13   6  105.83   20.73
   6  13   6   98.90   11.92
   6  13   7  126.94   12.16
   6  13   8   52.78    7.68
   6  13   8   54.84    7.40
   6  13   9   60.01    9.04
  -6 -13 -10  229.46   22.39
   6  13  10  210.42   14.65
  -6 -13 -11  149.69   15.54
   6  13  11  134.00   13.29
  -6 -13 -12  382.99   28.36
   6  13  12  406.20   29.28
   6  14   4   39.04    7.70
   6  14   5   44.38   10.52
   6  14   6  105.44   11.30
   6  14   6   58.09   12.78
   6  14   7   70.03   11.85
  -6 -14  -8   66.72   10.78
   6  14   8   31.98    8.25
  -6 -14  -9  153.71   13.59
   6  14   9   97.65   14.31
   6  14  10  131.25   10.22
  -7   8   5  101.80    9.01
   7  -8  -5   81.14    8.37
  -7   8   5   71.64   15.00
  -7   8   4   64.69    9.44
   7  -8  -4   71.06   11.52
  -7   8   4   52.42   11.53
   7  -8  -3   42.73    9.12
  -7   8   2  100.76    8.93
   7  -8  -2   89.99    9.25
  -7   8   1   46.39    9.07
   7  -8  -1   36.02    8.01
  -7   7   7   56.45    8.34
   7  -7  -7   39.01    8.66
  -7   7   7   49.79    9.41
  -7   7   6   43.82   10.40
   7  -7  -6   37.13    8.93
  -7   7   6   30.54    7.37
  -7   7   5  137.07   10.40
   7  -7  -5  140.37   12.39
  -7   7   5  106.51   17.24
  -7   7   4   81.17    9.96
   7  -7  -4   66.72   12.17
  -7   7   4   53.93   13.91
  -7   7   3  115.19   11.77
   7  -7  -3  103.58   11.81
  -7   7   3  111.79   11.78
  -7   7   2   32.97    6.48
   7  -7  -2   50.50    8.55
  -7   7   1   59.32    9.87
   7  -7  -1   41.20    6.89
  -7   7   0   35.11    6.65
   7  -7   0   30.55    6.51
   7  -7   0   44.87    8.55
  -7   7  -1   35.57    9.29
   7  -7   1   24.47    6.70
   7  -7   1   42.70    9.44
  -7   7  -2   64.29   13.50
   7  -7   2   69.22   10.79
   7  -7   2   91.19   14.72
  -7   6   8   46.11    9.15
   7  -6  -8   45.43    9.33
  -7   6   8   32.52    7.71
  -7   6   7   78.17   10.00
   7  -6  -7   55.04   10.32
  -7   6   7   50.01   11.11
  -7   6   6   69.72   10.73
   7  -6  -6   84.49   10.46
  -7   6   6   60.10   11.97
  -7   6   5   94.56    9.91
   7  -6  -5  113.11   13.58
  -7   6   5   84.46   11.79
  -7   6   4   96.78   10.79
   7  -6  -4   72.06    7.83
  -7   6   4   76.94    9.57
  -7   6   3  101.79   11.75
   7  -6  -3  125.28   11.00
  -7   6   3   93.55   14.14
  -7   6   2  124.49    9.92
   7  -6  -2  124.47   10.64
  -7   6   1   80.12   10.03
   7  -6  -1   64.30    8.01
  -7   6   0   97.90   11.99
   7  -6   0   81.58    9.77
   7  -6   0   69.81   15.08
  -7   6  -1  141.89   14.50
   7  -6   1  152.76   11.37
   7  -6   1  143.24   14.93
  -7   6  -2   93.68   14.38
   7  -6   2  107.60   10.92
   7  -6   2   84.88    9.57
  -7   6  -3   28.10    7.17
   7  -6   3   18.36    4.33
   7  -6   3   29.21    7.11
  -7   6  -4   32.84    7.02
   7  -6   4   22.16    6.73
  -7   5   9   33.96    7.43
   7  -5  -9   21.74    6.12
  -7   5   9   14.17    4.75
  -7   5   8   11.48    4.30
   7  -5  -8   15.51    4.57
  -7   5   8    6.48    2.41
  -7   5   7  134.89    9.67
   7  -5  -7  121.72   13.25
  -7   5   7  121.71   17.14
  -7   5   6  217.22   15.05
   7  -5  -6  208.91   14.92
  -7   5   6  174.77   16.05
  -7   5   5   11.82    5.26
   7  -5  -5   17.47    4.03
  -7   5   5    2.14    2.32
  -7   5   4   37.90    7.32
   7  -5  -4   21.31    6.95
  -7   5   4   25.76    5.30
  -7   5   3  133.48    7.18
   7  -5  -3  108.68   10.24
  -7   5   3  116.67   16.53
  -7   5   2  351.88   19.82
   7  -5  -2  346.00   20.18
  -7   5   1   54.91    8.12
   7  -5  -1   45.43    7.13
  -7   5   0  135.36    7.77
   7  -5   0  137.81    8.02
  -7   5  -1  201.84   10.45
   7  -5   1  212.57   11.40
   7  -5   1  208.25   12.34
  -7   5  -2  104.90    7.65
   7  -5   2  133.66    8.45
  -7   5  -3   45.80    9.65
   7  -5   3   66.75    7.39
   7  -5   3   37.05    5.80
  -7   5  -4   58.31   11.72
   7  -5   4   50.15    6.95
   7  -5   4   69.26   12.65
  -7   5  -5    9.40    3.25
   7  -5   5    6.58    5.24
  -7   5  -6   14.90    5.12
   7  -5   6   34.29    8.95
  -7   4   9   14.66    5.27
   7  -4  -9   27.18    7.54
  -7   4   9   12.27    4.19
  -7   4   8   43.18    7.21
   7  -4  -8   38.19    8.72
  -7   4   8   33.46    7.74
  -7   4   7   63.61    7.03
   7  -4  -7   31.70    7.23
  -7   4   7   46.41   10.83
  -7   4   6  212.26   10.93
  -7   4   6  200.25   20.85
  -7   4   5   11.59    3.27
  -7   4   5   13.85    3.68
  -7   4   4   18.61    3.27
   7  -4  -4   17.92    4.95
  -7   4   4   20.63    3.88
  -7   4   3   85.28    7.53
   7  -4  -3   84.44    8.76
  -7   4   3   77.59   12.96
  -7   4   2  164.64    9.14
   7  -4  -2  148.03   11.04
  -7   4   2  180.19   10.12
  -7   4   1  166.93    9.46
   7  -4  -1  168.42   10.13
  -7   4   0  138.47   10.13
   7  -4   0  107.46    8.50
  -7   4  -1  256.18   31.57
   7  -4   1  205.69    8.83
   7  -4   1  237.34   10.31
  -7   4  -2   80.23   11.72
   7  -4   2   66.34    7.48
   7  -4   2   61.93    7.75
  -7   4  -3   36.26    6.32
   7  -4   3   31.35    4.97
   7  -4   3   25.09    5.54
  -7   4  -4  144.94   14.34
   7  -4   4  134.37    7.62
   7  -4   4  150.82   10.17
  -7   4  -5   40.70    9.35
   7  -4   5   22.31    5.07
   7  -4   5   32.09    8.81
  -7   4  -6   49.94    8.90
   7  -4   6   44.14    7.75
  -7   4  -7   38.04    8.29
   7  -4   7   40.48   10.00
  -7   3  10   21.16    5.85
   7  -3 -10   35.13    7.13
  -7   3  10   16.76    4.96
  -7   3   9   39.93    7.58
   7  -3  -9   36.79    7.42
  -7   3   9   34.81    7.23
  -7   3   8   27.01    5.87
   7  -3  -8   23.85    6.37
  -7   3   8   28.98    7.51
  -7   3   7   23.87    4.44
   7  -3  -7   13.60    4.13
  -7   3   7   21.21    3.92
  -7   3   6   77.38    7.40
   7  -3  -6   89.76    9.34
  -7   3   6   76.12    8.62
  -7   3   5  220.89    9.33
   7  -3  -5  202.75   10.13
  -7   3   5  213.21   13.50
  -7   3   4   20.20    5.00
   7  -3  -4   19.69    6.58
  -7   3   4    5.15    2.55
  -7   3   3   23.89    4.59
   7  -3  -3   13.92    4.19
  -7   3   3   28.17    4.93
  -7   3   2   45.21    6.99
   7  -3  -2   55.58    8.32
  -7   3   2   50.61    7.39
  -7   3   1  143.49    9.69
   7  -3  -1  141.90   10.33
  -7   3   0  122.06    8.87
   7  -3   0   96.00    7.81
  -7   3  -1   97.75    7.40
   7  -3   1   95.85    7.52
   7  -3   1  111.35    8.69
  -7   3  -2   38.56    5.94
   7  -3   2   30.52    4.91
   7  -3   2   19.01    5.29
  -7   3  -3  425.46   18.15
   7  -3   3  365.78   15.49
  -7   3  -4  177.41   14.64
   7  -3   4  146.31   10.73
   7  -3   4  166.85   10.23
   7  -3   5   50.87    7.13
   7  -3   5   48.02    9.06
   7  -3   6   67.18    6.55
   7  -3   6   78.48   10.50
  -7   3  -7   86.81   13.20
   7  -3   7  103.35   12.20
  -7   3  -8   68.01   12.78
   7  -3   8   45.48   11.25
  -7   2  10   13.41    4.62
   7  -2 -10    4.92    3.21
  -7   2   9   37.31    6.87
   7  -2  -9   59.61   10.16
  -7   2   9   37.08    9.13
  -7   2   8   51.09    9.50
   7  -2  -8   69.39    7.66
  -7   2   8   45.81    9.96
  -7   2   7   73.36    7.80
   7  -2  -7   78.10    8.40
  -7   2   7   59.18    8.03
  -7   2   6   98.64    8.49
   7  -2  -6   96.54    8.77
  -7   2   6  120.01   13.38
  -7   2   5  316.95   14.41
   7  -2  -5  330.44   15.63
  -7   2   5  348.88   19.52
  -7   2   4   54.62    7.05
   7  -2  -4   70.41    6.09
  -7   2   4   67.60   10.25
  -7   2   3   11.22    4.87
   7  -2  -3    6.57    4.53
  -7   2   3   11.65    2.67
  -7   2   2  498.96   18.38
   7  -2  -2  515.02   19.41
  -7   2   2  501.28   18.20
  -7   2   1  119.65   12.32
   7  -2  -1  108.36   11.06
  -7   2   0  154.63   14.89
   7  -2   0  134.43   13.51
   7  -2   1   36.84    7.14
   7  -2   1   56.47   10.25
  -7   2  -2  109.87   10.86
   7  -2   2   86.67    9.16
   7  -2   2   94.89   10.55
  -7   2  -3  163.05   15.39
   7  -2   3  160.20   14.87
   7  -2   3  156.96   15.34
  -7   2  -4   62.99    8.03
   7  -2   4   58.57    7.04
   7  -2   4   83.54    7.07
  -7   2  -5  256.26   18.26
   7  -2   5  238.91   11.23
   7  -2   5  260.61   13.96
  -7   2  -6  196.21   14.87
   7  -2   6  198.80    7.86
   7  -2   6  212.67   11.21
  -7   2  -7  132.06   17.34
   7  -2   7  125.73   10.82
  -7   2  -8   72.90   11.64
   7  -2   8   74.18    6.76
  -7   2  -9   27.05    8.93
   7  -2   9   24.25    6.48
  -7   1  10   10.87    4.23
   7  -1 -10   21.60    5.77
  -7   1   9   30.72    6.56
   7  -1  -9   34.84    6.31
  -7   1   8   67.78    7.32
   7  -1  -8   68.81    6.98
  -7   1   8   46.74   11.15
  -7   1   7   34.92    6.39
   7  -1  -7   41.96    7.28
  -7   1   7   26.73    6.56
  -7   1   6  383.01   19.81
   7  -1  -6  358.61   18.73
  -7   1   6  368.21   24.75
  -7   1   5  304.50   14.01
   7  -1  -5  304.92   14.20
  -7   1   5  315.24   14.55
   7  -1  -4  488.30   18.67
  -7   1   4  430.67   16.21
   7  -1  -3   37.04    6.26
  -7   1   3   34.27    5.18
  -7   1   2  121.14   12.27
   7  -1  -2  107.22   11.04
  -7   1   1  471.38   16.52
   7  -1  -1  490.90   17.99
  -7   1   0  457.86   16.06
   7  -1   0  460.59   17.13
   7  -1   0  431.45   15.52
  -7   1  -1   86.21    8.24
   7  -1   1   90.72    8.88
   7  -1   1   76.37    8.00
  -7   1  -2   55.02    5.87
   7  -1   2   52.57    6.16
   7  -1   2   60.89    7.25
  -7   1  -3   72.67    9.26
   7  -1   3   78.78    8.35
   7  -1   3   73.47    9.38
  -7   1  -4  258.64   17.90
   7  -1   4  218.09   14.84
   7  -1   4  223.96   16.13
  -7   1  -5  232.28   23.35
   7  -1   5  191.24    8.67
   7  -1   5  251.31   13.03
  -7   1  -6  190.30   18.44
   7  -1   6  164.57    7.98
   7  -1   6  187.94   11.59
  -7   1  -7  192.22   22.88
   7  -1   7  173.14    6.70
   7  -1   7  203.60   11.19
  -7   1  -8   87.04   12.80
   7  -1   8   74.09   10.02
  -7   1  -9   79.79   16.93
   7  -1   9   50.75    8.13
  -7   1 -10   14.05    5.78
   7  -1  10   11.80    5.48
  -7   0   9   29.71    6.54
   7   0  -9   23.00    5.35
  -7   0   8   40.94    8.24
   7   0  -8   45.51    8.55
   7   0  -7   90.70    7.91
  -7   0   7   75.03   10.58
  -7   0   6  151.17   12.39
   7   0  -6  140.65   11.56
  -7   0   6  134.13   10.02
  -7   0   5  207.46   10.36
   7   0  -5  232.03   12.17
  -7   0   5  199.13    8.86
  -7   0   4  156.05   15.13
   7   0  -4  162.20   15.30
  -7   0   4  166.43   15.02
  -7   0   3  207.10   13.21
  -7   0   3  207.73   14.63
  -7   0   2   12.06    3.41
   7   0  -2   13.09    4.00
  -7   0   1  862.65   27.71
   7   0  -1  985.86   31.94
  -7   0   0  479.87   15.09
   7   0   0  464.80   14.95
   7   0   0  479.40   15.06
  -7   0  -1  275.95   14.61
   7   0   1  262.95   13.66
   7   0   1  269.22   13.95
  -7   0  -2  134.87    9.35
   7   0   2  151.32   10.36
   7   0   2  143.88   10.78
  -7   0  -3  133.28    9.91
   7   0   3  124.40   11.24
   7   0   3  128.31   19.57
  -7   0  -4  351.93   11.17
   7   0   4  360.09   10.87
   7   0   4  333.97   11.45
  -7   0  -5  358.85   13.95
   7   0   5  321.78   11.82
   7   0   5  349.41   14.28
  -7   0  -6  210.39   19.07
   7   0   6  194.95    8.69
  -7   0  -7  362.49   29.99
   7   0   7  346.33   13.79
   7   0   7  368.26   16.56
  -7   0  -8  243.02   25.26
   7   0   8  207.41    7.63
   7   0   8  204.43   10.33
  -7   0  -9   24.12    4.82
   7   0   9   33.85    7.69
  -7   0 -10   31.50    9.89
   7   0  10   43.14    7.81
  -7   0 -11   81.90   18.14
   7   0  11  104.60   12.11
  -7  -1   9   27.63    7.69
   7   1  -9   49.76    8.56
  -7  -1   8   36.84    8.03
   7   1  -8   43.36    8.10
  -7  -1   7  125.46    9.35
   7   1  -7  134.42    8.29
  -7  -1   6   65.21    7.74
   7   1  -6   74.79    8.54
  -7  -1   6   60.94    6.35
  -7  -1   5  135.50   10.05
   7   1  -5  147.56    9.76
  -7  -1   5  134.29    7.47
  -7  -1   4   26.81    6.33
   7   1  -4   19.94    4.07
  -7  -1   4   23.60    3.44
   7   1  -4   13.13    1.81
  -7  -1   3   74.18    8.56
   7   1  -3   83.58    9.76
   7   1  -3   57.53    8.44
  -7  -1   2   37.30    5.50
   7   1  -2   27.68    4.32
   7   1  -2   23.19    2.34
  -7  -1   1  741.70   22.09
   7   1  -1  578.69   17.85
   7   1  -1  663.71   19.21
  -7  -1   0 1275.88   35.74
   7   1   0 1336.48   37.64
   7   1   0 1259.61   34.65
  -7  -1  -1  410.13   13.41
   7   1   1  392.50   19.81
   7   1   1  405.00   12.73
  -7  -1  -2  241.09   13.10
   7   1   2  226.18   12.02
   7   1   2  251.75   13.72
  -7  -1  -3  474.71   15.19
   7   1   3  475.09   14.77
   7   1   3  481.54   15.62
  -7  -1  -4 1161.72   36.66
   7   1   4 1068.88   33.39
   7   1   4 1134.21   36.07
  -7  -1  -5  304.80   18.60
   7   1   5  279.05   16.42
   7   1   5  305.58   19.68
  -7  -1  -6  197.64   19.55
   7   1   6  189.41   12.83
   7   1   6  168.44   16.10
  -7  -1  -7  352.81   18.54
   7   1   7  321.11   12.51
  -7  -1  -8  272.38   25.00
   7   1   8  280.92   13.85
   7   1   8  311.36   14.83
  -7  -1  -9   95.07   10.29
   7   1   9   64.29   10.91
   7   1   9   77.99    8.44
  -7  -1 -10  139.64   21.53
   7   1  10  172.68   10.99
  -7  -1 -11   99.32   22.42
   7   1  11  131.90   11.08
  -7  -1 -12  155.99   18.62
   7   1  12  220.84   17.65
  -7  -2   9   71.79   12.22
   7   2  -9   51.21    8.56
  -7  -2   8   22.84    6.02
   7   2  -8   16.75    3.80
  -7  -2   7   27.17    5.35
   7   2  -7   32.03    4.02
  -7  -2   6  186.13    9.65
   7   2  -6  199.65    9.28
  -7  -2   5  105.67    9.23
   7   2  -5  100.53    7.78
  -7  -2   5   90.46    5.60
  -7  -2   4  178.71   17.16
   7   2  -4  169.81   15.98
  -7  -2   3   83.58    9.78
   7   2  -3   76.86    8.94
   7   2  -3   61.07    8.91
  -7  -2   2  785.64   25.60
   7   2  -2  790.46   25.84
   7   2  -2  729.14   22.29
   7   2  -2  770.58   23.82
  -7  -2   1  227.56   12.37
   7   2  -1  245.80   13.46
   7   2  -1  213.82   17.30
   7   2  -1  241.03   11.85
  -7  -2   0  614.39   18.52
   7   2   0  597.53   18.08
   7   2   0  491.10   17.93
  -7  -2  -1  640.95   16.74
   7   2   1  621.51   16.22
   7   2   1  635.01   16.00
  -7  -2  -2   88.94    6.49
   7   2   2   88.31    6.03
   7   2   2   97.28    7.11
  -7  -2  -3  599.34   17.89
   7   2   3  614.25   18.30
   7   2   3  610.18   18.26
  -7  -2  -4  472.53   14.67
   7   2   4  479.03   14.90
   7   2   4  466.91   15.07
  -7  -2  -5  198.35   12.83
   7   2   5  202.37   12.80
   7   2   5  198.81   13.76
  -7  -2  -6  212.06   13.55
   7   2   6  215.78   12.88
   7   2   6  196.55   13.27
  -7  -2  -7  231.60   24.66
   7   2   7  190.54   12.83
   7   2   7  187.85   13.95
  -7  -2  -8  259.87   24.70
   7   2   8  241.18   13.34
   7   2   8  246.63   12.24
  -7  -2  -9  395.57   26.06
   7   2   9  337.28   22.10
   7   2   9  318.73   16.97
  -7  -2 -10   70.27   10.58
   7   2  10   67.20    6.90
  -7  -2 -11  158.94   17.00
   7   2  11  201.89   14.99
  -7  -2 -12  125.03   15.39
   7   2  12  187.04   19.61
  -7  -3   9   57.09    9.10
   7   3  -9   43.60    7.94
  -7  -3   8   99.26   12.93
   7   3  -8   71.45   11.31
  -7  -3   7   66.27    8.01
   7   3  -7   55.34    6.12
  -7  -3   6  166.13    8.82
   7   3  -6  158.05    7.78
  -7  -3   5   69.24    7.98
   7   3  -5   68.36    7.13
  -7  -3   4   52.28    7.70
   7   3  -4   57.84    7.67
   7   3  -4   40.54    4.33
   7   3  -4   45.49    4.89
  -7  -3   3  589.89   17.02
   7   3  -3  593.11   16.42
   7   3  -3  567.03   13.29
   7   3  -3  557.93   13.19
  -7  -3   2 1443.47  205.85
   7   3  -2 1394.42   43.62
   7   3  -2 1318.16   39.43
   7   3  -2 1417.24   42.53
  -7  -3   1  124.19    9.27
   7   3  -1  131.09    9.94
   7   3  -1  114.18    7.55
   7   3  -1  133.38    8.96
  -7  -3   0   50.92    5.26
   7   3   0   64.23    6.66
   7   3   0   51.54    5.78
   7   3   0   62.61    5.17
  -7  -3  -1  592.99   15.39
   7   3   1  645.24   17.01
   7   3   1  564.52   13.34
   7   3   1  639.70   15.69
  -7  -3  -2  196.94   11.43
   7   3   2  199.54   11.58
   7   3   2  149.81   13.91
   7   3   2  192.66   10.91
  -7  -3  -3  218.26   11.59
   7   3   3  228.44   12.05
   7   3   3  231.92   12.10
  -7  -3  -4  109.22    8.31
   7   3   4  111.25    8.16
   7   3   4  108.56    8.76
  -7  -3  -5  150.22   10.75
   7   3   5  163.17   11.42
   7   3   5  168.33   13.00
  -7  -3  -6   92.04    8.64
   7   3   6  104.53    9.24
   7   3   6  114.57   11.30
  -7  -3  -7  216.18   18.99
   7   3   7  206.36   12.37
   7   3   7  206.34   14.00
  -7  -3  -8   73.26    8.24
   7   3   8   63.94    9.42
   7   3   8   65.68    8.53
  -7  -3  -9  229.43   16.72
   7   3   9  195.50   13.25
   7   3   9  211.26   11.33
  -7  -3 -10  135.38   11.77
   7   3  10  132.44   11.74
   7   3  10  159.44    9.16
  -7  -3 -11  193.41   13.53
   7   3  11  207.85   10.73
  -7  -3 -12  154.64   24.53
   7   3  12  196.12   14.83
  -7  -3 -13  205.15   21.86
   7   3  13  224.39   17.59
  -7  -4   8   90.28   14.48
   7   4  -8   89.78   12.99
  -7  -4   7   67.07   11.53
   7   4  -7   62.17    9.18
  -7  -4   6   58.21    6.33
   7   4  -6   53.86    5.13
  -7  -4   5   75.66   10.86
   7   4  -5   68.01    7.03
  -7  -4   4    7.97    4.73
   7   4  -4    1.26    2.43
  -7  -4   3  501.60   18.53
   7   4  -3  484.30   17.52
  -7  -4   2  331.59   35.56
   7   4  -2  335.90   11.12
  -7  -4   1  188.02   12.71
   7   4  -1  166.33   11.61
   7   4  -1  155.82    9.14
   7   4  -1  164.11    9.69
  -7  -4   0  114.48    8.94
   7   4   0  112.82    8.35
   7   4   0  112.29    7.60
  -7  -4  -1  153.22   11.12
   7   4   1  143.03   10.41
   7   4   1  134.76   10.88
   7   4   1  145.33    9.88
  -7  -4  -2  262.08   13.56
   7   4   2  253.82   13.37
   7   4   2  235.33   11.85
  -7  -4  -3  123.69    7.67
   7   4   3  129.81    8.35
   7   4   3  119.77    7.32
  -7  -4  -3  111.26    6.45
  -7  -4  -4  522.74   15.52
   7   4   4  504.85   15.30
   7   4   4  512.92   15.40
  -7  -4  -5   81.74    6.70
   7   4   5   72.80    5.77
   7   4   5   64.81    6.18
  -7  -4  -6  406.23   13.89
   7   4   6  402.74   13.67
   7   4   6  436.92   15.60
  -7  -4  -7  330.50   37.47
   7   4   7  317.60   21.81
   7   4   7  296.55   18.26
  -7  -4  -8  220.77   18.61
   7   4   8  216.22   16.85
   7   4   8  222.45   15.99
  -7  -4  -9   50.45    6.39
   7   4   9   48.16    6.57
   7   4   9   47.48    6.84
  -7  -4 -10  144.82   16.73
   7   4  10  126.57   11.56
   7   4  10  142.70   11.20
  -7  -4 -11    8.64    3.87
  -7  -4 -12  116.34   19.64
   7   4  12  137.02   10.62
  -7  -4 -13  204.43   26.39
   7   4  13  258.71   25.23
  -7  -5   8   93.10    9.35
  -7  -5   7   29.44    6.28
   7   5  -7   24.47    4.95
  -7  -5   6   41.93    8.49
   7   5  -6   26.35    5.80
  -7  -5   5   50.76    9.23
   7   5  -5   47.63    7.49
  -7  -5   4    4.28    3.80
   7   5  -4    7.49    2.40
  -7  -5   3   16.60    4.29
   7   5  -3   16.87    3.19
  -7  -5   2   52.08    6.77
   7   5  -2   49.76    6.17
  -7  -5   1   78.33    8.80
   7   5  -1   85.90    9.05
  -7  -5   0  183.96   12.27
   7   5   0  183.57   12.28
   7   5   0  185.98   10.83
   7   5   0  176.68   10.32
  -7  -5  -1   31.55    3.56
   7   5   1   25.03    3.41
   7   5   1   29.90    4.07
   7   5   1   32.24    2.61
  -7  -5  -2  346.96   17.10
   7   5   2  286.62   14.55
   7   5   2  338.83   16.17
  -7  -5  -3  884.75   24.85
   7   5   3  843.79   24.16
  -7  -5  -3  825.65   22.74
  -7  -5  -4  477.74   14.30
   7   5   4  471.08   14.45
   7   5   4  469.78   13.90
  -7  -5  -5  359.60   17.66
   7   5   5  345.42   17.16
   7   5   5  356.21   17.71
  -7  -5  -6  419.25   14.05
   7   5   6  403.73   13.82
   7   5   6  414.41   14.57
  -7  -5  -7  627.41   16.24
   7   5   7  614.75   28.22
   7   5   7  612.33   16.70
  -7  -5  -8  233.46   20.21
   7   5   8  254.30   22.46
   7   5   8  256.56   17.78
  -7  -5  -9    3.34    2.27
   7   5   9    4.19    2.00
   7   5   9    8.68    5.29
  -7  -5 -10  166.04   10.23
   7   5  10  160.07   20.65
   7   5  10  172.60    8.28
  -7  -5 -11   17.75    3.50
   7   5  11   20.45    5.33
   7   5  11   11.75    3.61
  -7  -5 -12   41.72    9.81
   7   5  12   21.06    6.32
   7   5  12   38.13    7.35
  -7  -5 -13   40.87    9.60
   7   5  13   52.05    8.78
  -7  -6   7   70.13   10.68
   7   6  -7   42.46    7.70
  -7  -6   6   66.59   11.05
   7   6  -6   60.01    8.94
  -7  -6   5   28.48    4.85
   7   6  -5   24.32    3.20
  -7  -6   4   72.62    6.78
   7   6  -4   83.76    6.70
  -7  -6   3   27.69    5.57
   7   6  -3   26.57    3.76
  -7  -6   2   18.86    6.22
   7   6  -2    9.12    3.26
  -7  -6   1  120.19   11.72
   7   6  -1  113.43   11.11
  -7  -6   0  227.98   14.30
   7   6   0  238.99   15.08
  -7  -6  -1   20.54    3.02
   7   6   1   29.23    4.25
   7   6   1   22.21    3.01
   7   6   1   28.00    2.43
  -7  -6  -2   35.72    4.26
   7   6   2   37.44    4.09
   7   6   2   32.98    4.93
  -7  -6  -2   34.58    3.26
  -7  -6  -3  524.51   15.38
   7   6   3  531.41   16.37
   7   6   3  521.27   14.83
  -7  -6  -3  466.94   13.29
  -7  -6  -4  281.69   14.04
   7   6   4  281.27   14.55
   7   6   4  242.03   12.12
  -7  -6  -5  798.18   25.00
   7   6   5  796.52   25.79
   7   6   5  793.77   25.04
  -7  -6  -6  585.42   18.78
   7   6   6  548.51   18.18
   7   6   6  554.19   18.34
  -7  -6  -7  414.88   11.28
   7   6   7  414.31   12.30
   7   6   7  432.63   12.66
  -7  -6  -8   50.69    7.52
   7   6   8   60.50    9.40
   7   6   8   44.14    5.83
  -7  -6  -9  340.24   13.39
   7   6   9  339.19   13.96
   7   6   9  335.42   14.62
  -7  -6 -10  297.90   15.29
   7   6  10  315.45   15.67
   7   6  10  311.82   16.23
  -7  -6 -11   57.62    8.61
   7   6  11   57.07    9.11
   7   6  11   53.74    5.72
  -7  -6 -12    7.34    3.75
   7   6  12    8.32    3.13
   7   6  12    7.91    3.81
  -7  -6 -13   14.11    3.92
   7   6  13   11.73    3.72
   7   6  14   95.87    8.40
   7   6  14  103.01    9.51
  -7  -7   6  138.14   14.67
   7   7  -6   92.53   16.69
  -7  -7   5   36.83    7.42
   7   7  -5   28.47    5.17
  -7  -7   4   84.66   10.55
   7   7  -4   97.47   10.85
  -7  -7   3  126.14   10.02
   7   7  -3  132.99    6.50
  -7  -7   2  100.72    7.63
   7   7  -2   99.56    7.31
  -7  -7   1  311.76   13.29
   7   7  -1  271.57   12.04
  -7  -7   0  150.33   13.89
   7   7   0  184.20   20.25
  -7  -7  -1   55.20    8.55
   7   7   1   51.07    8.12
  -7  -7  -2   16.26    3.61
   7   7   2    9.15    3.26
   7   7   2    6.42    1.80
  -7  -7  -2    5.15    2.34
  -7  -7  -3  111.55    9.54
   7   7   3  125.35   16.30
   7   7   3  113.37    9.46
  -7  -7  -3  110.99    9.37
  -7  -7  -4  302.68   18.24
   7   7   4  376.51   28.00
   7   7   4  354.93   11.75
  -7  -7  -4  317.61   18.97
  -7  -7  -5   76.34    6.74
   7   7   5   72.59    6.45
   7   7   5   83.49   10.57
   7   7   5   73.46    6.69
  -7  -7  -6  192.46   11.47
   7   7   6  178.19   16.24
   7   7   6  216.66   20.52
   7   7   6  198.61   12.09
  -7  -7  -7    6.62    2.56
   7   7   7   10.58    3.83
   7   7   7    5.69    4.05
  -7  -7  -8   97.36    9.22
   7   7   8   65.14    9.01
   7   7   8   57.85    7.31
  -7  -7  -9  613.68   23.68
   7   7   9  641.74   25.48
   7   7   9  615.32   24.52
  -7  -7 -10  229.67   12.86
   7   7  10  234.59   14.66
   7   7  10  198.37    8.30
  -7  -7 -11  239.92   19.24
   7   7  11  226.49   15.83
   7   7  11  237.58   13.02
  -7  -7 -12  184.34   12.84
   7   7  12  197.80   17.05
   7   7  12  207.05   14.27
  -7  -7 -13   42.42    9.76
   7   7  13   35.68    6.17
   7   7  14   61.82    8.65
   7   7  14   69.46    9.87
  -7  -8   5   23.43    7.19
   7   8  -5   15.30    4.29
  -7  -8   4   49.18    8.09
   7   8  -4   33.13    7.15
  -7  -8   3  205.26   10.31
   7   8  -3  162.14   17.51
  -7  -8   2  164.78    8.30
   7   8  -2  160.12   15.78
  -7  -8   1  326.24   16.42
   7   8  -1  290.43   21.12
  -7  -8   0  496.10   19.11
   7   8   0  503.30   33.30
  -7  -8  -1   14.25    3.29
   7   8   1   13.60    3.45
  -7  -8  -2    0.68    2.11
   7   8   2    2.17    2.27
   7   8   2    2.12    1.33
  -7  -8  -2    6.02    2.02
  -7  -8  -3  201.68   12.02
   7   8   3  202.14   11.59
  -7  -8  -3  192.23   11.15
  -7  -8  -4  507.02   12.93
   7   8   4  460.79   11.61
   7   8   4  550.37   15.23
   7   8   4  539.64   13.57
  -7  -8  -4  462.45   11.85
  -7  -8  -5   74.57    7.18
   7   8   5   64.50    9.48
   7   8   5   96.32   14.35
   7   8   5   79.15    7.77
  -7  -8  -6   95.07    8.69
   7   8   6   80.92    7.47
   7   8   6   92.04   12.39
   7   8   6   91.10    8.63
  -7  -8  -7    3.59    1.70
   7   8   7    6.03    1.80
   7   8   7    6.75    3.09
   7   8   7    7.34    2.39
  -7  -8  -8  244.69   10.36
   7   8   8  246.05   18.52
   7   8   8  243.86   10.89
  -7  -8  -9  350.81   14.19
   7   8   9  387.79   23.71
   7   8   9  348.16   14.66
  -7  -8 -10  360.74   18.13
   7   8  10  388.72   26.69
   7   8  10  331.08   16.77
  -7  -8 -11  259.15   13.40
   7   8  11  303.14   18.65
   7   8  11  274.29   14.76
   7   8  12  447.03   28.26
   7   8  12  442.58   28.25
   7   8  13  120.60    9.21
  -7  -8 -13  121.02    9.74
   7   8  13  145.83   11.67
  -7  -8 -14   37.94    7.14
   7   8  14   35.36    6.92
  -7  -9   4   34.51    7.12
   7   9  -4   13.18    4.30
  -7  -9   3   38.70    6.48
   7   9  -3   40.66    7.28
  -7  -9   2   64.84    7.13
   7   9  -2   56.50    8.72
  -7  -9   1  234.28   16.19
   7   9  -1  195.75   18.09
  -7  -9   0  456.41   21.96
   7   9   0  491.66   33.08
  -7  -9  -1  129.76    8.51
   7   9   1  150.14   17.49
  -7  -9  -2   17.04    2.85
   7   9   2   23.71    4.70
   7   9   2   13.23    2.49
  -7  -9  -3  220.68    9.39
   7   9   3  250.28   17.09
   7   9   3  243.60    9.74
  -7  -9  -4  457.36   16.94
   7   9   4  358.35   13.25
   7   9   4  495.16   31.31
   7   9   4  443.79   16.45
  -7  -9  -5  604.24   21.90
   7   9   5  567.94   22.81
   7   9   5  635.05   23.35
  -7  -9  -6  154.55    8.22
   7   9   6  150.00   15.74
   7   9   6  139.69    7.96
  -7  -9  -7   90.99    5.01
   7   9   7  114.18   16.80
   7   9   7   95.95    6.01
  -7  -9  -8  412.39   16.01
   7   9   8  463.00   25.30
   7   9   8  435.29   17.44
  -7  -9  -9  605.50   27.97
   7   9   9  671.36   33.36
   7   9   9  672.99   32.03
  -7  -9 -10  124.66    8.50
   7   9  10  130.66   21.39
   7   9  10  130.87   18.88
   7   9  11  166.84   14.18
   7   9  11  145.85   11.00
   7   9  12  151.80   24.16
   7   9  12  182.96   12.67
  -7  -9 -13  109.66   26.91
   7   9  13  108.84   25.57
  -7  -9 -14   58.42    8.45
   7   9  14   59.51    8.72
  -7 -10   3   16.61    5.41
   7  10  -3   11.56    3.77
  -7 -10   2   51.23    7.41
   7  10  -2   44.85    8.42
  -7 -10   1  118.92   12.03
   7  10  -1  110.76   14.57
  -7 -10   0  104.92    6.46
   7  10   0   93.63   10.57
  -7 -10  -1  104.97    7.86
   7  10   1  109.91   14.90
  -7 -10  -2  177.90    6.75
   7  10   2  198.64   16.56
  -7 -10  -3  443.06   20.82
   7  10   3  481.07   35.20
   7  10   3  453.22   21.08
  -7 -10  -4  186.58    8.40
   7  10   4  194.53   14.10
   7  10   4  182.91    8.32
  -7 -10  -5  393.69   14.89
   7  10   5  427.71   32.60
   7  10   5  406.20   15.92
   7  10   6  321.34   28.02
   7  10   6  257.48   11.71
   7  10   7  350.38   28.37
   7  10   7  322.77   15.76
   7  10   8  511.56   25.10
   7  10   8  470.46   22.65
   7  10   9  273.08   17.95
   7  10   9  256.38   14.28
   7  10  10  152.40   16.11
   7  10  10  167.69    8.58
   7  10  11   46.48   10.40
   7  10  11   63.32    6.83
   7  10  12  124.43   23.12
   7  10  12  101.11   10.36
  -7 -10 -13  233.66   22.96
  -7 -11   2   22.69    6.13
   7  11  -2   21.29    6.35
  -7 -11   1   56.01    9.05
   7  11  -1   46.52    9.05
  -7 -11   0   47.27    6.71
   7  11   0   45.23    9.03
  -7 -11  -1   89.12    9.78
   7  11   1   87.52   14.69
  -7 -11  -2  309.57   14.90
   7  11   2  317.06   28.00
   7  11   3   58.66    6.74
   7  11   4  150.39   17.02
   7  11   4  124.26   11.60
   7  11   5  318.12   16.75
   7  11   6  169.60   18.78
   7  11   6  139.66    5.86
   7  11   7   98.73   15.30
   7  11   7  101.12    7.40
   7  11   8   88.41   11.52
   7  11   8   84.86    6.37
   7  11   9  266.13   23.53
   7  11   9  248.14   12.71
   7  11  10  190.45   12.45
   7  11  10  173.68    8.04
   7  11  11  111.81   17.84
   7  11  11  121.82   11.68
   7  11  12  319.33   21.66
   7  11  12  297.34   20.27
  -7 -11 -13  155.98   13.13
   7  11  13  158.13   12.31
   7  12   0   23.71    7.39
   7  12   1   49.45    9.88
   7  12   2  101.25   16.13
   7  12   3   93.49   10.51
   7  12   4  276.04   20.40
   7  12   5   69.71   17.99
   7  12   6   60.44    5.90
   7  12   7   42.53    8.10
   7  12   7   40.24    3.47
   7  12   8   74.18    9.18
   7  12   8   86.49   14.26
   7  12   9   78.60   14.88
   7  12   9   96.12    9.45
   7  12  10   71.45   15.17
   7  12  10   82.96    8.16
   7  12  11  261.75   18.40
   7  12  11  231.39   15.95
  -7 -12 -12  220.45   22.09
   7  12  12  213.40   20.48
   7  13   2   21.88    7.80
   7  13   3  188.01   25.36
   7  13   4  109.17   33.09
   7  13   5   65.61   13.16
   7  13   6   73.33   14.90
   7  13   6   56.33   11.52
   7  13   7   74.86   13.74
   7  13   7   52.75   10.66
   7  13   8   59.57   13.76
   7  13   8   56.21    8.76
   7  13   9   42.27    8.51
   7  13   9   38.04    5.94
   7  13  10  108.55   11.36
   7  13  10   94.31   13.63
   7  13  11  102.22    8.39
   7  14   5   54.64   12.91
   7  14   6   71.92   17.76
   7  14   7   50.26    9.74
   7  14   7   37.26    9.38
   7  14   8   25.19    9.52
   7  14   8   24.46    7.54
   7  14   9  197.69   15.70
   7  14   9  198.35   14.69
  -8   7   3   11.55    4.12
   8  -7  -3   32.13    7.34
   8  -7  -2   36.50    7.72
  -8   7   1   59.11    8.73
   8  -7  -1   71.40   10.59
   8  -7  -1   81.51    8.88
  -8   6   6   66.46    9.64
   8  -6  -6   72.71   12.02
  -8   6   6   54.26   11.43
  -8   6   5   76.82   11.69
   8  -6  -5   59.07   10.55
  -8   6   5   52.51   15.09
  -8   6   4   48.70    8.63
   8  -6  -4   53.63    9.88
  -8   6   4   43.30   11.12
  -8   6   3    2.20    3.14
   8  -6  -3   13.34    6.07
  -8   6   2   31.03    5.65
   8  -6  -2   34.57    7.37
  -8   6   1  171.74   13.09
   8  -6  -1  161.77   12.55
  -8   6   0   48.72    8.46
   8  -6   0   21.46    5.26
   8  -6   0   42.36    7.73
  -8   6  -1   74.60   11.62
   8  -6   1   77.11   12.04
   8  -6   1   77.40   13.04
  -8   6  -2   58.88   10.35
   8  -6   2   74.07   10.30
   8  -6   2   93.16    9.17
  -8   5   7   36.69    7.63
   8  -5  -7   33.68    7.53
  -8   5   7   20.99    6.24
  -8   5   6   24.74    5.95
   8  -5  -6   18.82    4.86
  -8   5   5   81.07   10.09
   8  -5  -5   82.85   10.83
  -8   5   5   63.65   13.45
  -8   5   4   21.41    5.07
   8  -5  -4   21.50    6.08
  -8   5   4   13.31    3.77
  -8   5   3    6.85    4.50
   8  -5  -3    6.98    3.93
  -8   5   2   33.36    7.80
   8  -5  -2   31.37    7.45
  -8   5   1  131.77   13.55
   8  -5  -1  100.16   10.92
  -8   5   0   55.82   10.24
   8  -5   0   56.25   10.70
   8  -5   0   43.87    8.67
  -8   5  -1   64.04   10.04
   8  -5   1   68.90   11.06
   8  -5   1   71.34   12.22
  -8   5  -2  130.88    9.95
   8  -5   2  112.92   11.43
   8  -5   2  136.31   11.39
   8  -5   3   13.89    3.75
   8  -5   3   23.90    6.90
  -8   5  -4   51.36   10.02
   8  -5   4   39.18    7.54
   8  -5   4   38.19    8.18
  -8   4   8   13.54    3.92
   8  -4  -8    7.54    4.07
  -8   4   8   10.08    3.91
  -8   4   7  106.21   12.76
   8  -4  -7  109.07   26.28
  -8   4   7   90.11   14.18
  -8   4   6    8.23    4.61
  -8   4   6    9.20    4.56
  -8   4   5   74.49    6.82
   8  -4  -5   56.81   10.82
  -8   4   5   63.11    8.27
  -8   4   4   42.56    4.64
   8  -4  -4   40.68    5.42
  -8   4   4   53.84    8.73
  -8   4   3    3.50    2.81
   8  -4  -3    5.69    3.63
  -8   4   2   11.96    3.53
   8  -4  -2   27.10    7.06
  -8   4   1   58.56    6.75
   8  -4  -1   48.36    8.26
  -8   4   0   85.57    7.91
   8  -4   0   90.80    8.67
   8  -4   0   86.25    8.41
  -8   4  -1   52.27    8.64
   8  -4   1   64.51    6.67
   8  -4   1   64.54    7.24
  -8   4  -2   36.75    4.88
   8  -4   2   45.82    5.95
   8  -4   2   46.52    6.55
  -8   4  -3   18.63    5.12
   8  -4   3   30.90    6.99
  -8   4  -4   42.23    8.74
   8  -4   4   66.02   10.82
  -8   4  -5   76.93   13.61
   8  -4   5   99.03   12.55
  -8   4  -6   59.98   14.59
   8  -4   6   58.87    9.53
  -8   3   8   46.69    8.64
   8  -3  -8   35.23    7.46
  -8   3   8   35.90    9.16
  -8   3   7   28.07    6.36
   8  -3  -7   45.77    8.48
  -8   3   7   27.71    5.81
  -8   3   6   73.11    7.03
   8  -3  -6   68.81    7.27
  -8   3   6   66.48    7.86
  -8   3   5   80.44   10.22
  -8   3   5   79.86   13.71
  -8   3   4  300.81   16.22
   8  -3  -4  301.17   17.13
  -8   3   4  298.03   25.31
  -8   3   3   31.54    6.47
   8  -3  -3   14.68    4.54
  -8   3   3   18.14    3.49
  -8   3   2   26.74    4.86
   8  -3  -2   14.05    4.47
  -8   3   1  127.88   10.53
   8  -3  -1  118.02   10.02
  -8   3   0  225.15    9.99
   8  -3   0  230.25   10.57
   8  -3   0  221.73   10.20
  -8   3  -1  138.36    7.55
   8  -3   1  142.05    7.52
   8  -3   1  134.99    8.77
  -8   3  -2    2.66    2.98
   8  -3   2   10.09    4.65
   8  -3   2    4.15    6.62
  -8   3  -3  110.67    7.30
   8  -3   3  100.54    8.18
   8  -3   3  115.04    8.51
  -8   3  -4   56.16    8.15
   8  -3   4   63.97    7.03
   8  -3   4   52.03    7.10
   8  -3   5   44.43    8.11
   8  -3   5   44.53    9.16
   8  -3   6  108.09   12.06
  -8   3  -7   41.65    9.36
   8  -3   7   52.92   10.22
  -8   2   8   48.74    9.13
   8  -2  -8   41.81    8.80
  -8   2   8   31.22    7.86
  -8   2   7   25.06    5.65
   8  -2  -7   23.49    5.33
  -8   2   6   94.91   11.35
   8  -2  -6   94.03   11.27
  -8   2   6   73.60   11.71
  -8   2   5  186.69   10.08
   8  -2  -5  190.17   11.20
  -8   2   5  158.23   10.93
  -8   2   4  302.59   17.29
   8  -2  -4  332.17   19.99
  -8   2   4  262.24   17.61
  -8   2   3  401.64   20.52
   8  -2  -3  427.30   22.64
  -8   2   2   46.51    5.48
   8  -2  -2   48.26    7.35
  -8   2   1   47.09    6.11
   8  -2  -1   24.93    4.64
   8  -2   0  156.16   15.71
   8  -2   0  173.18   10.03
   8  -2   1  245.53   13.22
   8  -2   1  267.28   13.64
  -8   2  -2  134.34    9.96
   8  -2   2  128.45    9.61
   8  -2   2  129.11    9.81
  -8   2  -3   86.63    8.49
   8  -2   3   79.04   10.50
   8  -2   3   80.87   11.40
  -8   2  -4   29.50    5.59
   8  -2   4   23.73    3.85
   8  -2   4   16.52    5.43
  -8   2  -5  123.83   14.26
   8  -2   5  112.46    6.24
   8  -2   5  139.59   11.84
  -8   2  -6  151.28   15.25
   8  -2   6  111.21    8.34
   8  -2   6  148.95   13.02
  -8   2  -7  151.04   15.62
   8  -2   7  192.02   14.05
  -8   2  -8   32.34    7.08
   8  -2   8   31.91    7.85
  -8   1   8   30.51    6.03
   8  -1  -8   24.27    5.63
  -8   1   7   33.67    7.01
   8  -1  -7   47.75    7.70
  -8   1   7   30.19    5.98
  -8   1   6   61.25    8.14
   8  -1  -6   54.82    7.63
  -8   1   6   54.69   10.77
  -8   1   5  161.06    8.90
   8  -1  -5  182.28   10.35
  -8   1   5  151.02   10.74
  -8   1   4   43.36    5.66
  -8   1   4   41.12    7.10
   8  -1  -3  306.79   15.20
  -8   1   2   86.37    7.11
   8  -1  -2   86.05    7.22
  -8   1   1   37.57    5.51
   8  -1  -1   35.80    5.60
   8  -1  -1   41.66    6.09
  -8   1   0  364.33   16.07
   8  -1   0  345.42   14.75
   8  -1   0  326.02   13.97
  -8   1  -1  331.16   14.25
   8  -1   1  317.36   13.76
   8  -1   1  337.10   14.56
  -8   1  -2  265.49   12.65
   8  -1   2  262.13   12.56
   8  -1   2  259.49   12.62
  -8   1  -3   16.74    5.17
   8  -1   3   14.30    4.62
   8  -1   3   14.68    6.26
  -8   1  -4  225.58   12.65
   8  -1   4  174.28    9.00
   8  -1   4  211.01   12.51
  -8   1  -5  356.81   18.50
   8  -1   5  343.12   17.02
   8  -1   5  331.33   18.14
  -8   1  -6  195.83   20.08
   8  -1   6  193.88    9.04
   8  -1   6  208.58   11.89
  -8   1  -7  169.37   36.52
   8  -1   7  140.94    9.97
  -8   1  -8   67.05   14.11
   8  -1   8   77.01   12.57
  -8   1  -9   62.38   14.22
   8  -1   9   73.70   11.85
  -8   0   8   24.64    5.94
   8   0  -8   14.96    4.47
   8   0  -7   27.00    6.57
  -8   0   6   88.93   11.07
   8   0  -6   81.42   10.09
  -8   0   6   72.07    9.13
  -8   0   5   90.77    8.17
   8   0  -5   79.27    7.70
  -8   0   5   83.10   11.65
  -8   0   4  114.76    9.56
   8   0  -4  101.62    9.01
  -8   0   3   15.91    4.28
   8   0  -3    6.98    3.95
  -8   0   2  159.50   11.05
   8   0  -2   99.13    8.64
  -8   0   1  125.95   12.63
   8   0  -1   95.81    9.81
   8   0  -1   89.50    9.41
  -8   0   0  368.12   14.31
   8   0   0  381.70   15.77
   8   0   0  380.31   14.35
  -8   0  -1  439.21   16.48
   8   0   1  457.05   17.53
   8   0   1  445.75   16.52
  -8   0  -2  289.59   19.81
   8   0   2  286.15   19.72
   8   0   2  274.59   19.20
  -8   0  -3  142.46   13.78
   8   0   3  135.92   13.16
   8   0   3  131.61   13.04
  -8   0  -4  234.01   11.69
   8   0   4  237.60   10.93
   8   0   4  208.34   11.04
  -8   0  -5  342.75   15.14
   8   0   5  318.84   13.35
   8   0   5  359.41   16.82
  -8   0  -6  212.59   19.31
   8   0   6  207.15    7.73
   8   0   6  221.98   11.22
  -8   0  -7  165.50   19.35
   8   0   7  158.34    6.86
   8   0   7  146.04    8.34
  -8   0  -8  245.30   21.46
   8   0   8  255.59   10.17
   8   0   8  254.65   12.61
  -8   0  -9   54.51   11.60
   8   0   9   73.46   12.04
  -8   0 -10   60.77   13.97
   8   0  10   57.44   10.49
  -8  -1   8   77.73   12.59
   8   1  -8   87.44   13.14
  -8  -1   7   36.34    7.56
   8   1  -7   54.11    7.97
  -8  -1   6   52.76    6.74
   8   1  -6   46.42    5.72
  -8  -1   5   82.13    7.57
   8   1  -5   78.62    6.90
  -8  -1   4  142.70   10.83
   8   1  -4  129.81    9.57
  -8  -1   3   43.25    7.65
   8   1  -3   16.84    4.27
  -8  -1   2  206.83   15.45
   8   1  -2  198.27   14.40
   8   1  -2  215.88   14.64
  -8  -1   0  145.25   14.50
   8   1   0  136.52   13.84
   8   1   0  149.16   14.26
  -8  -1  -1  608.91   17.28
   8   1   1  578.43   16.61
   8   1   1  575.21   15.87
  -8  -1  -2  294.61   17.88
   8   1   2  310.89   19.00
   8   1   2  269.17   16.63
  -8  -1  -3  221.08   13.78
   8   1   3  250.13   15.83
   8   1   3  229.78   14.79
  -8  -1  -4  139.56   13.83
   8   1   4  131.53   12.43
   8   1   4  128.83   12.74
  -8  -1  -5  170.65    9.08
   8   1   5  173.49    8.32
   8   1   5  153.44   10.25
  -8  -1  -6   94.53    7.27
   8   1   6   79.52    5.92
   8   1   6   88.21    8.49
  -8  -1  -7  123.52   13.68
   8   1   7  128.22    9.28
   8   1   7  120.90   10.94
  -8  -1  -8  189.40   20.20
   8   1   8  144.89    6.92
   8   1   8  163.67    9.86
  -8  -1  -9  127.83   15.18
   8   1   9  120.09   10.05
  -8  -1 -10   49.57    9.37
   8   1  10   57.48    9.90
   8   1  11  126.80   11.28
  -8  -2   8   48.70    9.07
   8   2  -8   57.17    9.59
  -8  -2   7   81.30   10.07
   8   2  -7   99.96   10.37
  -8  -2   6   91.82   11.43
   8   2  -6   71.87    8.58
  -8  -2   5  259.63   15.45
   8   2  -5  250.83   14.98
  -8  -2   4  105.65    9.09
   8   2  -4   92.93    8.39
   8   2  -4   93.78    6.86
  -8  -2   3   16.61    6.41
   8   2  -3   15.10    5.15
   8   2  -3    3.80    1.80
  -8  -2   2  117.94   11.61
   8   2  -2  148.06   14.03
   8   2  -2   98.84    8.87
   8   2  -2  115.09   10.58
   8   2  -1 1237.07   29.76
  -8  -2   0  207.97   13.69
   8   2   0  258.89   16.43
   8   2   0  228.37   13.72
  -8  -2  -1   77.13    8.87
   8   2   1   98.87   10.46
   8   2   1   80.96    8.32
  -8  -2  -2  224.42   14.73
   8   2   2  198.60   12.92
   8   2   2  226.64   14.12
  -8  -2  -3  336.33   11.21
   8   2   3  352.52   11.12
   8   2   3  355.77   11.49
  -8  -2  -4  258.57   15.85
   8   2   4  260.64   15.71
   8   2   4  277.67   17.24
  -8  -2  -5  128.47   12.91
   8   2   5  122.21   11.74
   8   2   5  113.13   11.58
  -8  -2  -6   60.51    7.64
   8   2   6   47.62    6.10
   8   2   6   41.84    6.85
  -8  -2  -7   13.70    2.54
   8   2   7   11.82    1.97
   8   2   7   14.66    3.90
  -8  -2  -8   97.97   10.44
   8   2   8   84.07    6.53
   8   2   8   88.70    8.88
  -8  -2  -9  175.39   24.59
   8   2   9  168.38   12.58
   8   2   9  193.48   10.85
  -8  -2 -10   29.74    7.74
   8   2  10   46.16    9.12
  -8  -2 -11   62.35   13.35
   8   2  11   65.68   10.93
  -8  -2 -12   43.25   10.39
   8   2  12   38.98    8.32
  -8  -3   8   56.79    9.95
   8   3  -8   52.90    7.64
  -8  -3   7  103.32   13.75
   8   3  -7   84.17   10.09
  -8  -3   6   64.62    7.16
   8   3  -6   35.97    6.64
  -8  -3   5  146.25    9.67
   8   3  -5  138.29    8.30
  -8  -3   4  103.84    8.96
   8   3  -4  119.22    9.70
  -8  -3   3   48.43    6.37
   8   3  -3   34.63    4.52
   8   3  -3   36.76    3.37
  -8  -3   2  327.74   13.37
   8   3  -2  308.59   20.91
   8   3  -2  316.32   33.31
  -8  -3   1   57.54    7.47
   8   3  -1   43.10    4.77
   8   3  -1   51.37    6.01
  -8  -3   0  225.06   14.45
   8   3   0  224.75   14.01
   8   3   0  182.35   16.48
   8   3   0  219.33   12.87
  -8  -3  -1    5.27    3.50
   8   3   1   13.81    4.19
   8   3   1   18.41    4.72
  -8  -3  -2  394.29   14.34
   8   3   2  367.39   13.48
   8   3   2  396.86   13.69
  -8  -3  -3  132.09    9.45
   8   3   3  131.42    9.16
   8   3   3  148.77   10.16
  -8  -3  -4  190.80   12.20
   8   3   4  193.34   12.10
   8   3   4  190.96   12.38
  -8  -3  -5  346.70   10.93
   8   3   5  339.63   10.45
   8   3   5  344.30   11.19
  -8  -3  -6  117.90   11.71
   8   3   6  119.29   11.16
   8   3   6  113.52   11.95
  -8  -3  -7  139.99   13.60
   8   3   7  170.47    7.84
   8   3   7  159.68   10.24
  -8  -3  -8  257.99   38.64
   8   3   8  239.11   17.43
   8   3   8  241.56   10.97
  -8  -3  -9   72.63   10.49
   8   3   9   65.95    8.38
   8   3   9   73.65    7.05
  -8  -3 -10   40.19    6.19
   8   3  10   28.98    4.56
   8   3  10   41.45    6.74
  -8  -3 -11   52.30   10.08
   8   3  11   39.26    6.98
  -8  -3 -12   15.84    5.52
   8   3  12   14.89    5.11
  -8  -4   7   70.80   11.43
   8   4  -7   61.22   10.04
  -8  -4   6   30.56    6.89
   8   4  -6   17.96    3.92
  -8  -4   5   22.45    4.76
   8   4  -5   21.97    3.16
  -8  -4   4   52.51    8.00
   8   4  -4   55.52    7.76
  -8  -4   3   76.50    6.36
   8   4  -3   75.20    6.55
  -8  -4   2  104.09    8.13
   8   4  -2  110.89    7.53
  -8  -4   1   22.58    4.24
   8   4  -1   12.92    3.06
   8   4  -1   15.24    1.79
   8   4  -1   18.30    2.31
  -8  -4   0  110.29   11.34
   8   4   0  110.09   11.19
   8   4   0   86.25    8.39
   8   4   0   94.98    8.83
  -8  -4  -1   50.35    8.07
   8   4   1   41.51    7.32
   8   4   1   39.65    7.25
   8   4   1   53.35    8.16
  -8  -4  -2   12.98    5.08
   8   4   2   10.19    3.58
   8   4   2    1.07    1.20
   8   4   2    6.17    2.44
  -8  -4  -3  264.28   16.58
   8   4   3  257.00   16.53
   8   4   3  264.42   16.52
  -8  -4  -4  514.84   14.53
   8   4   4  518.38   14.61
   8   4   4  519.98   14.76
  -8  -4  -5  493.74   14.07
   8   4   5  489.88   13.82
   8   4   5  494.76   14.39
  -8  -4  -6  266.00   18.11
   8   4   6  287.96   19.41
   8   4   6  287.18   19.60
  -8  -4  -7  411.18   16.55
   8   4   7  415.59   16.25
   8   4   7  421.56   17.20
  -8  -4  -8  327.50   25.94
   8   4   8  311.69   19.84
   8   4   8  324.94   15.46
  -8  -4  -9   22.62    3.98
   8   4   9   27.63    4.29
   8   4   9   34.02    6.23
  -8  -4 -10   56.02    7.60
   8   4  10   63.69    8.82
   8   4  10   61.89    6.17
  -8  -4 -11   74.72    8.82
   8   4  11   41.75    9.30
   8   4  11   53.47   10.29
  -8  -4 -12    8.81    3.79
   8   4  12   16.62    5.46
  -8  -5   7   18.03    5.71
  -8  -5   6   48.09    9.46
  -8  -5   5   63.00    7.09
   8   5  -5   63.10    5.15
  -8  -5   4   15.46    5.03
   8   5  -4   11.54    2.55
  -8  -5   3   31.45    4.63
   8   5  -3   42.81    4.90
  -8  -5   2   19.96    3.97
   8   5  -2   23.42    3.74
  -8  -5   1  191.44    9.69
   8   5  -1  189.42    9.34
  -8  -5   0   93.61    9.65
   8   5   0  116.45   11.43
   8   5   0  106.83    9.63
   8   5   0  103.72    9.12
  -8  -5  -1  507.47   14.36
   8   5   1  510.55   14.48
   8   5   1  443.72   10.78
   8   5   1  488.72   12.02
  -8  -5  -2   43.44    7.15
   8   5   2   55.74    9.67
   8   5   2   29.67    5.35
   8   5   2   47.04    7.31
  -8  -5  -3   31.66    5.32
   8   5   3   34.15    6.01
   8   5   3   39.00    6.43
  -8  -5  -4  486.20   13.44
   8   5   4  506.88   14.34
   8   5   4  478.62   13.26
  -8  -5  -5  365.13   10.77
   8   5   5  386.64   11.79
   8   5   5  382.33   11.37
  -8  -5  -6  189.27   13.05
   8   5   6  190.89   13.60
   8   5   6  177.97   16.54
  -8  -5  -7  437.05   17.21
   8   5   7  449.67   26.78
   8   5   7  430.04   17.40
  -8  -5  -8  381.23   23.60
   8   5   8  317.27   14.41
   8   5   8  322.53   14.18
  -8  -5  -9   12.36    3.31
   8   5   9   10.26    2.90
   8   5   9    8.94    5.28
  -8  -5 -10  102.07    9.93
   8   5  10  103.70   11.06
   8   5  10  114.29    7.69
  -8  -5 -11   55.13   12.32
   8   5  11   56.65   12.22
   8   5  11   68.76    8.06
  -8  -5 -12   66.57   15.78
   8   5  12   86.00   11.05
   8   5  13   28.17    4.31
  -8  -6   6   32.00    6.93
   8   6  -6   36.42    6.84
  -8  -6   5  103.94   11.31
   8   6  -5   81.50    8.26
  -8  -6   4   52.58    6.47
   8   6  -4   63.19    6.85
  -8  -6   3   81.38    7.91
   8   6  -3   69.95    6.32
  -8  -6   2   94.70    8.44
   8   6  -2   82.43    7.23
  -8  -6   1   65.24    6.91
   8   6  -1   61.99    6.67
  -8  -6   0  291.15   13.33
   8   6   0  306.49   13.25
  -8  -6  -1  482.52   17.24
   8   6   1  547.13   19.97
   8   6   1  464.92   15.07
   8   6   1  487.98   15.85
  -8  -6  -2  174.12   16.74
   8   6   2  189.47   12.48
   8   6   2  187.07   10.86
  -8  -6  -3   85.79    8.60
   8   6   3   84.49    9.00
   8   6   3   79.45    7.78
  -8  -6  -3   65.65    9.70
  -8  -6  -4  260.06   15.28
   8   6   4  250.91   15.56
   8   6   4  259.21   15.22
  -8  -6  -5  210.28   12.69
   8   6   5  199.98   12.91
   8   6   5  217.50   13.52
  -8  -6  -6  137.88   12.70
   8   6   6  134.09   16.14
   8   6   6  129.31   12.29
  -8  -6  -7  188.60    8.61
   8   6   7  201.88   13.62
   8   6   7  199.29    9.44
  -8  -6  -8   37.17    4.67
   8   6   8   23.33    5.47
   8   6   8   17.57    3.80
  -8  -6  -9   80.06   14.73
   8   6   9   88.99    9.19
   8   6   9   78.44   10.65
  -8  -6 -10  357.87   25.06
   8   6  10  395.12   28.05
   8   6  10  415.90   23.01
  -8  -6 -11  188.82   12.53
   8   6  11  205.05    8.81
   8   6  11  217.61   10.47
  -8  -6 -12   90.16   15.74
   8   6  12   85.46   10.53
   8   6  12  127.29    9.90
  -8  -6 -13   43.65   14.25
   8   6  13   76.16   12.09
  -8  -7   5   55.68   10.12
   8   7  -5   44.16   10.06
  -8  -7   4   40.94    6.53
   8   7  -4   46.22    6.81
  -8  -7   3   85.77   10.76
   8   7  -3   69.48   14.25
  -8  -7   2  273.01   15.93
   8   7  -2  229.74   13.38
  -8  -7   1   42.07    5.49
   8   7  -1   48.43    5.77
  -8  -7   0  273.78   13.10
   8   7   0  262.58   12.91
  -8  -7  -1  522.67   20.17
   8   7   1  566.90   22.19
  -8  -7  -2  150.26   14.02
   8   7   2  136.94   12.04
  -8  -7  -3   52.96    6.47
   8   7   3   58.94    7.83
   8   7   3   46.60    5.32
  -8  -7  -3   38.94    4.55
  -8  -7  -4   99.71    9.34
   8   7   4  118.57   11.57
   8   7   4   94.01    8.73
  -8  -7  -5  562.54   19.18
   8   7   5  548.33   20.06
   8   7   5  561.86   19.21
  -8  -7  -6  212.84   14.30
   8   7   6  227.35   20.75
   8   7   6  213.57   14.79
  -8  -7  -7   15.00    2.45
   8   7   7   13.62    3.43
  -8  -7  -8   12.63    2.29
   8   7   8    4.98    2.60
   8   7   8   32.16    5.08
  -8  -7  -9  406.80   25.58
   8   7   9  418.21   20.61
   8   7   9  431.26   21.36
  -8  -7 -10  323.80   21.25
   8   7  10  346.26   23.07
   8   7  10  347.90   17.60
  -8  -7 -11  359.26   15.28
   8   7  11  379.40   24.81
   8   7  11  363.00   15.35
  -8  -7 -12   69.21   13.68
   8   7  12   69.15   13.22
   8   7  12   90.88    9.63
  -8  -7 -13  168.51   22.68
   8   7  13  224.31   21.99
  -8  -8   5   28.77    6.32
  -8  -8   4   36.34    7.16
   8   8  -4   27.94    5.48
  -8  -8   3   65.63   10.40
   8   8  -3   53.92    9.07
  -8  -8   2  141.82   11.39
   8   8  -2  130.91   10.38
  -8  -8   1   75.99    6.31
   8   8  -1   84.45    7.07
  -8  -8   0  138.54   10.42
   8   8   0  161.75    7.64
  -8  -8  -1  350.54   14.46
   8   8   1  386.20   29.87
  -8  -8  -2   86.92    5.85
   8   8   2   98.39   11.74
   8   8   2   89.21    4.68
  -8  -8  -3  290.29   12.12
   8   8   3  313.11   23.52
   8   8   3  291.44   11.50
  -8  -8  -4  112.98    6.73
   8   8   4  102.80   11.54
   8   8   4  108.94    6.16
  -8  -8  -5  416.32   15.75
   8   8   5  400.15   17.90
   8   8   5  406.31   15.38
  -8  -8  -6  421.32   15.95
   8   8   6  443.28   17.85
   8   8   6  431.95   16.55
  -8  -8  -7   81.21    5.51
   8   8   7   81.91   10.09
   8   8   7   83.31    6.06
  -8  -8  -8  202.84    9.63
   8   8   8  206.05   16.48
   8   8   8  194.31    9.90
  -8  -8  -9  193.07    8.68
   8   8   9  196.89   15.37
   8   8   9  204.53    9.10
  -8  -8 -10  570.38   28.04
   8   8  10  590.48   36.31
   8   8  10  594.40   28.71
  -8  -8 -11  213.12   16.98
   8   8  11  231.23   14.68
   8   8  11  259.08   11.83
  -8  -8 -12  130.14   13.98
   8   8  12  139.28   12.99
   8   8  12  173.29   11.67
  -8  -8 -13  123.60   12.24
   8   8  13   88.59   18.81
   8   8  13  158.05   15.90
  -8  -9   4   94.52    9.13
  -8  -9   3  122.13    9.65
   8   9  -3   81.63   14.21
  -8  -9   2   41.67    6.45
   8   9  -2   39.28    7.53
  -8  -9   1   97.68   10.90
   8   9  -1   89.27   12.35
  -8  -9   0  193.61    9.43
   8   9   0  158.47   18.96
  -8  -9  -1  122.44    9.00
   8   9   1  111.81   15.44
  -8  -9  -2   93.68    7.55
   8   9   2   92.57   13.17
  -8  -9  -3  280.83   12.83
   8   9   3  297.28   16.39
   8   9   3  269.91   11.64
  -8  -9  -4  375.82   14.92
   8   9   4  397.55   16.74
   8   9   4  357.87   13.88
  -8  -9  -5  272.03   12.08
   8   9   5  297.74   17.54
   8   9   5  282.81   12.59
  -8  -9  -6  667.34   25.26
   8   9   6  711.45   30.09
   8   9   6  708.55   27.08
  -8  -9  -7  158.82   20.59
   8   9   7  173.17   14.69
   8   9   7  157.20   19.18
  -8  -9  -8  155.17   18.91
   8   9   8  172.88    9.89
   8   9   8  167.87    6.77
  -8  -9  -9  188.82    7.64
   8   9   9  198.60   14.98
   8   9   9  210.25    9.01
  -8  -9 -10  211.48   10.59
   8   9  10  272.69   19.71
   8   9  10  276.05   14.24
   8   9  11   78.14   10.14
   8   9  11   94.07    9.85
   8   9  12   87.83   14.78
   8   9  12  111.90    8.79
   8   9  13  120.14   12.05
   8   9  13  113.92   11.78
  -8 -10   2   46.64    8.33
   8  10  -2   22.38    7.06
  -8 -10   1   53.33    7.74
   8  10  -1   45.63    8.55
  -8 -10   0  123.52   12.12
   8  10   0  119.03   17.54
  -8 -10  -1   34.54    3.92
   8  10   1   33.72    5.18
  -8 -10  -2  119.36    6.56
   8  10   2  114.77   14.83
  -8 -10  -3  192.43    7.52
   8  10   3  203.99   17.78
  -8 -10  -4  151.65    6.09
   8  10   4  180.42   15.05
   8  10   4  144.24    5.48
  -8 -10  -5  156.78   18.98
   8  10   5  172.55   21.45
   8  10   5  153.35   18.54
  -8 -10  -6  266.44   13.94
   8  10   6  278.81   15.83
   8  10   6  294.20   15.64
   8  10   7  393.63   23.61
   8  10   7  383.16   20.30
   8  10   8   56.34    8.58
   8  10   8   52.88    8.00
   8  10   9   93.32   11.71
   8  10   9   90.04    6.88
   8  10  10  119.95   12.27
   8  10  10  138.23   10.25
   8  10  11   87.87   12.98
   8  10  11   76.67   11.33
   8  10  12   45.32   11.26
   8  10  12   47.96    7.92
   8  10  13  330.54   24.10
   8  10  13  321.85   23.64
  -8 -11   1   15.01    4.89
  -8 -11   0   41.25    6.64
   8  11   0   37.86    8.24
  -8 -11  -1   43.87    6.21
   8  11   1   40.40    7.19
  -8 -11  -2   78.62    5.37
   8  11   2  120.37   15.66
   8  11   3   99.95   16.00
   8  11   4   93.02   15.84
   8  11   5  149.52    6.67
   8  11   6   76.35   11.80
   8  11   6   64.33    4.74
   8  11   7  282.09   22.76
   8  11   7  298.01   14.49
   8  11   8   44.08    6.15
   8  11   8   53.62    5.59
   8  11   9   95.01   13.61
   8  11   9  110.31   10.65
   8  11  10   69.75   13.39
   8  11  10  116.25   11.08
   8  11  11   50.98   12.94
   8  11  11   52.76    8.53
   8  11  12  128.11   19.61
   8  11  12  161.24   15.78
   8  12   1   69.98   14.13
   8  12   2   23.75    6.46
   8  12   3   35.33    7.86
   8  12   4  304.84   27.95
   8  12   5   95.23   12.90
   8  12   6   49.18    8.37
   8  12   7   35.20    8.03
   8  12   7   40.03    6.96
   8  12   8  169.07   20.11
   8  12   8  204.55   12.70
   8  12   9   64.26   11.65
   8  12   9   50.05    6.70
   8  12  10   97.40   15.49
   8  12  10   95.80   10.97
   8  12  11  140.63   22.48
   8  12  11  171.56   16.56
   8  12  12   78.34   21.14
   8  12  12  108.05    8.69
   8  13   3   52.15    9.30
   8  13   4  114.07   17.55
   8  13   5   46.24   11.92
   8  13   6   34.09    9.59
   8  13   7   23.86    7.68
   8  13   7   20.95    4.15
   8  13   8   78.69   12.77
   8  13   8   89.77   10.16
   8  13   9   49.60   13.63
   8  13   9   59.93    9.62
   8  13  10  102.24   19.26
   8  13  10  123.04    9.51
  -9   5   4   48.26    6.26
   9  -5  -4   61.93   11.18
  -9   5   3   25.95    7.18
   9  -5  -2   29.07    7.01
  -9   5   1   11.28    4.41
   9  -5  -1   10.79    4.75
   9  -5  -1   19.66    7.32
  -9   5   0   40.27    8.36
   9  -5   0   36.34    8.28
   9  -5   0   15.39    5.15
  -9   5  -1   51.01    8.13
   9  -5   1   48.81    7.73
   9  -5   1   47.72   10.10
  -9   5  -2   23.90    6.64
   9  -5   2   33.48    7.90
  -9   4   6   32.41    7.29
   9  -4  -6   23.51    7.42
  -9   4   6   26.76    7.94
  -9   4   5   25.33    6.72
   9  -4  -5   40.34    8.92
  -9   4   5   15.99    5.64
  -9   4   4   84.35   10.97
   9  -4  -4   90.18   11.85
  -9   4   3  135.64   11.03
   9  -4  -3   91.29   11.63
  -9   4   2   73.63   11.78
   9  -4  -2   66.93   10.53
  -9   4   1   30.94    6.71
   9  -4  -1   33.50    6.83
   9  -4  -1   45.67    7.56
  -9   4   0   32.42    6.98
   9  -4   0   29.78    6.63
   9  -4   0   11.75    5.57
  -9   4  -1   90.66    9.60
   9  -4   1   93.28   10.20
   9  -4   1  113.02   12.95
  -9   4  -2   34.08    7.25
   9  -4   2   57.33    9.72
   9  -4   2   40.18    7.90
  -9   4  -3   20.94    6.50
   9  -4   3   18.14    5.18
   9  -4   3   18.09    6.18
  -9   4  -4   43.34    9.70
   9  -4   4   32.56    6.43
   9  -4   4   35.38    8.75
  -9   3   6   16.84    5.79
   9  -3  -6   14.53    4.74
  -9   3   6   13.58    5.40
   9  -3  -5   97.28   12.85
  -9   3   5   67.55   14.93
  -9   3   4  120.59   12.23
   9  -3  -4  136.86   11.20
  -9   3   3  159.93   11.65
   9  -3  -3  164.33   13.31
  -9   3   2   86.70   14.81
   9  -3  -2  108.98   11.54
  -9   3   1   94.70   11.33
   9  -3  -1  101.77   12.26
   9  -3  -1   75.39    9.62
  -9   3   0   44.75    6.62
   9  -3   0   46.57    6.53
   9  -3   0   43.46    5.63
  -9   3  -1   66.04    6.86
   9  -3   1   73.75    6.69
   9  -3   1   72.98    7.16
  -9   3  -2   83.92    8.02
   9  -3   2   76.68    6.64
   9  -3   2   81.35    8.17
  -9   3  -3   88.24   10.74
   9  -3   3   46.48    7.26
   9  -3   3   59.21    9.82
  -9   3  -4   28.04    5.97
   9  -3   4   27.48    7.39
   9  -3   4   43.17    8.03
   9  -3   5   35.11    6.86
   9  -3   5   38.04    8.77
  -9   3  -6   11.30    4.80
  -9   2   7   27.42    7.52
   9  -2  -7   23.45    6.88
  -9   2   7   17.23    5.38
  -9   2   6   42.36    7.71
   9  -2  -6   18.19    5.51
  -9   2   6   25.78    7.57
  -9   2   5   50.67    7.60
  -9   2   5   64.74    9.64
  -9   2   4  128.41   13.26
   9  -2  -4  129.23   14.30
  -9   2   3   70.41    8.83
   9  -2  -3   58.32    7.18
  -9   2   2   72.90    7.55
   9  -2  -2   85.20    7.68
  -9   2   1   32.91    5.86
   9  -2  -1   37.87    7.77
   9  -2  -1   17.49    3.51
   9  -2   0  162.81   10.21
   9  -2   0  167.69    9.76
   9  -2   1   85.54    7.45
   9  -2   1   78.84    7.38
  -9   2  -2  267.98   14.92
   9  -2   2  254.35   13.80
   9  -2   2  285.36   16.09
   9  -2   3  126.88   10.35
   9  -2   3  155.20   12.60
  -9   2  -4    6.82    3.59
   9  -2   4   12.62    4.49
   9  -2   4    5.48    4.35
  -9   2  -5  103.88   15.06
   9  -2   5   96.95    9.76
   9  -2   5  108.35   12.68
  -9   2  -6   60.91   11.89
   9  -2   6   52.50    8.25
   9  -2   6   41.92    7.86
  -9   2  -7   74.67   13.47
  -9   1   7   15.31    4.82
   9  -1  -7   22.52    6.25
  -9   1   6   36.80    7.64
   9  -1  -6   33.69    6.44
  -9   1   6   18.11    6.16
  -9   1   5   39.18    8.34
   9  -1  -5   15.49    4.71
  -9   1   4  112.97   10.09
   9  -1  -4  117.65   10.19
   9  -1  -3   86.70    7.67
  -9   1   2   27.29    5.27
   9  -1  -2   20.33    4.94
   9  -1  -2   15.25    3.56
  -9   1   1   29.39    5.93
   9  -1  -1   25.64    5.64
   9  -1  -1   13.73    3.84
  -9   1   0  102.43    9.42
   9  -1   0  116.35    9.74
   9  -1   0  109.50    9.31
  -9   1  -1  253.10   11.49
   9  -1   1  234.44   10.26
   9  -1   1  261.46   14.58
  -9   1  -2  290.66   17.30
   9  -1   2  295.81   16.96
   9  -1   2  315.33   18.34
  -9   1  -3  126.84   10.47
   9  -1   3  128.42    9.91
   9  -1   3  159.07    9.44
  -9   1  -4  120.32    8.40
   9  -1   4  106.44    6.56
   9  -1   4   89.88    8.07
  -9   1  -5  161.43   12.75
   9  -1   5  118.88    9.03
   9  -1   5  136.11   11.95
  -9   1  -6  195.14   26.00
   9  -1   6  191.91   12.89
   9  -1   6  189.11   14.98
  -9   1  -7   45.97   11.48
   9  -1   7   34.33    7.67
  -9   1  -8   57.41   12.17
   9   0  -7   68.04   10.87
  -9   0   6   40.44    7.12
   9   0  -6   38.84    6.58
  -9   0   5   49.54    9.64
   9   0  -5   32.25    7.71
  -9   0   4   69.34    6.74
   9   0  -4   71.77    7.58
  -9   0   3  142.07    8.59
   9   0  -3  172.73    9.98
  -9   0   2    0.24    3.44
   9   0  -2   10.82    4.27
   9   0  -2    7.13    4.50
  -9   0   1  221.20   10.28
   9   0  -1  203.39    9.74
   9   0  -1  216.79    8.81
  -9   0   0  337.84   15.17
   9   0   0  347.42   15.53
   9   0   0  371.02   15.96
  -9   0  -1  322.96   14.60
   9   0   1  294.94   27.14
   9   0   1  342.74   15.15
  -9   0  -2  106.02    9.08
   9   0   2   79.28   11.12
   9   0   2  100.59    8.63
  -9   0  -3  168.76    8.90
   9   0   3  166.89    7.84
   9   0   3  179.87    9.33
  -9   0  -4  214.96   30.79
   9   0   4  224.35   13.14
   9   0   4  232.06   14.38
  -9   0  -5   76.76    8.16
   9   0   5   69.36    6.14
   9   0   5   69.09    7.51
  -9   0  -6  171.03   36.70
   9   0   6  174.06    8.35
   9   0   6  184.19   10.97
  -9   0  -7   45.61    9.82
   9   0   7   38.14    6.79
   9   0   7   35.33    7.71
  -9   0  -8   32.77    6.94
   9   0   8   37.30    7.66
  -9   0  -9   92.50   17.99
  -9  -1   7   44.57   10.79
   9   1  -7   67.46   10.69
  -9  -1   6   61.58    9.86
   9   1  -6   68.69   10.92
  -9  -1   5   60.16    6.13
   9   1  -5   69.15    6.06
  -9  -1   4  141.24    8.87
   9   1  -4  144.71    9.00
   9   1  -4  128.92    6.74
  -9  -1   3  121.14   10.22
   9   1  -3  134.12    8.04
   9   1  -3  115.51    8.51
  -9  -1   2   31.10    4.94
   9   1  -2   50.54    6.84
   9   1  -2   39.68    5.06
  -9  -1   1  110.18    8.29
   9   1  -1  123.31    9.33
   9   1  -1  116.89    7.77
  -9  -1   0  557.79   23.26
   9   1   0  532.54   22.40
   9   1   0  490.66   19.64
  -9  -1  -1  198.31   11.44
   9   1   1  211.85   11.73
   9   1   1  233.81   12.98
  -9  -1  -2   55.46    6.25
   9   1   2   53.82    7.17
   9   1   2   60.04    6.74
  -9  -1  -3   58.44    6.93
   9   1   3   58.70    6.35
   9   1   3   51.93    7.08
  -9  -1  -4  186.99   10.91
   9   1   4  168.91    9.27
   9   1   4  179.48   10.23
  -9  -1  -5  127.47   10.23
   9   1   5  124.92    9.64
   9   1   5  143.61   11.41
  -9  -1  -6   80.64    7.93
   9   1   6   68.33    5.60
   9   1   6  105.73    9.89
  -9  -1  -7   72.37   12.86
   9   1   7   64.42    6.64
   9   1   7   74.73    9.56
  -9  -1  -8    9.48    3.34
   9   1   8   15.18    3.68
   9   1   8   12.68    4.85
  -9  -1  -9   61.11   11.05
   9   1   9   78.22   10.18
  -9  -1 -10   57.65   15.03
  -9  -2   7   51.56    8.81
   9   2  -7   49.82    7.44
  -9  -2   6  101.64   13.27
   9   2  -6   84.46   10.26
  -9  -2   5   17.90    5.16
   9   2  -5   42.31    8.45
  -9  -2   4  114.74    7.69
   9   2  -4  101.74    6.68
  -9  -2   3   32.79    5.79
   9   2  -3   26.79    5.64
   9   2  -3   22.29    3.40
  -9  -2   2   93.03    8.34
   9   2  -2  113.52    8.36
  -9  -2   1  101.39    7.78
   9   2  -1  114.84    9.43
   9   2  -1   93.20    6.47
  -9  -2   0  265.22   13.21
   9   2   0  265.76   12.85
   9   2   0  258.20   11.61
  -9  -2  -1  102.70    8.36
   9   2   1   97.35    7.68
   9   2   1   94.12    6.58
  -9  -2  -2   14.72    4.51
   9   2   2   18.05    4.19
   9   2   2   23.80    6.10
  -9  -2  -3  117.59    8.54
   9   2   3  134.15    8.91
   9   2   3  145.18    9.36
  -9  -2  -4   39.49    4.82
   9   2   4   38.64    4.55
   9   2   4   61.89    7.31
  -9  -2  -5  176.56   10.10
   9   2   5  166.99    8.85
   9   2   5  160.19    9.33
  -9  -2  -6  110.60    9.37
   9   2   6   94.07    7.57
   9   2   6  101.92    9.17
  -9  -2  -7   56.18   10.03
   9   2   7   56.94    7.52
   9   2   7   56.68    8.61
  -9  -2  -8  104.11   14.26
   9   2   8  126.78    9.51
   9   2   8  130.65   11.24
  -9  -2  -9  154.76   19.34
   9   2   9  129.96   14.93
   9   2   9  176.08   13.05
  -9  -2 -10   66.01   14.88
   9   2  10   85.91   10.81
  -9  -2 -11   39.57   10.66
  -9  -3   7  111.15   10.22
   9   3  -7  101.32    8.74
  -9  -3   6   74.71   18.45
   9   3  -6   74.09   11.85
  -9  -3   5   35.44    7.24
   9   3  -5   32.78    7.43
  -9  -3   4   15.12    3.97
   9   3  -4   15.48    2.98
  -9  -3   3   21.62    4.52
   9   3  -3   31.25    5.82
  -9  -3   2   33.79    5.23
   9   3  -2   35.29    5.21
   9   3  -2   31.40    3.37
  -9  -3   1   47.68    6.69
   9   3  -1   32.29    4.95
   9   3  -1   30.24    3.44
  -9  -3   0    3.14    3.25
   9   3   0    6.76    3.81
   9   3   0    6.40    2.43
  -9  -3  -1  138.60    8.92
   9   3   1  132.62    9.55
   9   3   1  136.18    8.09
  -9  -3  -2  135.96    9.16
   9   3   2  104.21    8.17
   9   3   2  116.71    7.54
  -9  -3  -3   50.13    7.37
   9   3   3   39.67    5.74
   9   3   3   46.32    7.00
  -9  -3  -4   40.92    6.20
   9   3   4   44.22    5.90
   9   3   4   41.64    6.25
  -9  -3  -5  550.78   22.44
   9   3   5  515.09   20.81
   9   3   5  516.80   21.27
  -9  -3  -6  338.06   14.94
   9   3   6  348.07   14.84
   9   3   6  364.10   16.14
  -9  -3  -7   80.29   11.21
   9   3   7   65.21    6.75
   9   3   7   79.68   10.91
  -9  -3  -8  290.63   21.93
   9   3   8  281.20   14.02
   9   3   8  293.58   16.09
  -9  -3  -9  102.98   22.58
   9   3   9   87.42   14.22
   9   3   9  120.22   10.83
  -9  -3 -10   23.98    6.62
   9   3  10   19.19    4.84
   9   3  10   28.15    6.56
  -9  -3 -11   46.81   10.85
   9   3  11   62.69   14.48
  -9  -4   6   48.24    9.70
   9   4  -6   35.34    7.15
  -9  -4   5   39.80    6.87
   9   4  -5   38.66    5.96
  -9  -4   4   60.27    7.31
   9   4  -4   62.08    7.37
  -9  -4   3  119.86    8.41
   9   4  -3  109.41    6.84
  -9  -4   2   24.82    4.36
   9   4  -2   18.56    3.89
  -9  -4   1   40.86    5.54
   9   4  -1   44.25    5.68
   9   4  -1   48.81    4.34
  -9  -4   0   32.29    5.23
   9   4   0   10.21    3.34
   9   4   0   11.41    1.96
  -9  -4  -1   51.53    7.01
   9   4   1   69.16    6.13
   9   4   1   58.78    6.98
  -9  -4  -2  609.81   23.65
   9   4   2  569.93   22.25
   9   4   2  611.60   22.88
  -9  -4  -3    2.81    3.24
   9   4   3    7.06    3.51
   9   4   3    6.97    3.87
  -9  -4  -4   21.50    3.73
   9   4   4   16.29    3.28
   9   4   4   19.28    3.40
  -9  -4  -5  185.99    9.90
   9   4   5  180.26    9.19
   9   4   5  169.08    8.55
  -9  -4  -6  472.00   19.50
   9   4   6  473.11   19.42
   9   4   6  482.45   19.92
  -9  -4  -7  163.99    7.85
   9   4   7  149.85   11.25
   9   4   7  170.26    8.88
  -9  -4  -8  185.12   21.45
   9   4   8  195.04   11.12
   9   4   8  197.36   10.05
  -9  -4  -9   64.44    8.85
   9   4   9   57.35    8.72
   9   4   9   59.41    7.08
  -9  -4 -10   34.33    7.87
   9   4  10   21.74    5.19
   9   4  10   17.50    4.72
  -9  -4 -11   62.87   13.85
   9   4  11   92.93   11.94
  -9  -4 -12   53.16   10.56
   9   4  12   95.05    9.16
  -9  -5   6   35.03    7.87
   9   5  -6   30.60    6.05
  -9  -5   5   33.02    7.42
   9   5  -5   11.19    2.98
  -9  -5   4  139.87   14.08
   9   5  -4  130.18   13.01
  -9  -5   3   53.04    8.91
   9   5  -3   46.22    7.89
  -9  -5   2  101.16    8.45
   9   5  -2  103.55    8.42
  -9  -5   1  239.91   10.26
   9   5  -1  246.64   10.41
  -9  -5   0  115.10    8.11
   9   5   0  125.48    8.95
   9   5   0  106.36    6.22
  -9  -5  -1   27.02    4.30
   9   5   1   40.00    6.38
   9   5   1   27.69    3.41
  -9  -5  -2  386.17   16.01
   9   5   2  409.03   17.32
   9   5   2  385.34   14.77
  -9  -5  -3  139.36    9.13
   9   5   3  124.94    8.22
   9   5   3  134.20    8.03
  -9  -5  -4   12.47    3.92
   9   5   4    6.16    3.38
   9   5   4    8.35    3.55
  -9  -5  -5  106.74    7.55
   9   5   5  126.45    8.43
   9   5   5  106.87    7.92
  -9  -5  -6  112.99    8.25
   9   5   6  110.49    7.86
   9   5   6  122.21    8.66
  -9  -5  -7  255.03   31.16
   9   5   7  262.63   13.71
   9   5   7  258.26   31.63
  -9  -5  -8   78.45   12.37
   9   5   8   68.32    8.66
   9   5   8   64.97    6.37
  -9  -5  -9    9.16    3.80
   9   5   9    6.14    4.00
   9   5   9    6.44    3.99
  -9  -5 -10   19.06    4.61
   9   5  10    8.31    2.66
   9   5  10   19.44    5.18
  -9  -5 -11  100.34   19.20
   9   5  11  101.40   13.25
   9   5  11  123.93   12.69
  -9  -5 -12  290.87   33.76
   9   5  12  364.45   34.82
  -9  -6   5   39.36    8.06
   9   6  -5   28.49    6.77
  -9  -6   4   45.70    7.65
   9   6  -4   40.92    6.15
  -9  -6   3   12.29    5.18
   9   6  -3   24.09    5.97
  -9  -6   2   94.21    7.90
   9   6  -2   95.94    8.09
  -9  -6   1  307.26   17.76
   9   6  -1  335.91   18.90
  -9  -6   0  191.67    8.63
   9   6   0  212.74    9.29
  -9  -6  -1  347.12   15.17
   9   6   1  288.58   12.29
  -9  -6  -2  270.45   12.19
   9   6   2  286.08   13.09
   9   6   2  277.82   11.25
  -9  -6  -3  162.11    9.72
   9   6   3  161.48   10.62
   9   6   3  151.37    8.32
  -9  -6  -4   27.49    4.45
   9   6   4   32.54    4.95
   9   6   4   33.45    4.39
  -9  -6  -5   79.20    5.67
   9   6   5   95.07    7.04
   9   6   5   78.25    5.66
  -9  -6  -6  261.19   12.64
   9   6   6  221.92   11.18
   9   6   6  237.47   11.60
  -9  -6  -7  371.05   18.30
   9   6   7  339.25   23.28
   9   6   7  366.28   18.25
  -9  -6  -8    4.36    2.36
   9   6   8   10.36    3.49
  -9  -6  -9   28.46    6.63
   9   6   9   18.58    4.10
   9   6   9   16.94    4.36
  -9  -6 -10  152.19   21.62
   9   6  10  182.97   12.19
   9   6  10  165.84   12.67
  -9  -6 -11  282.37   18.28
   9   6  11  274.85   23.30
   9   6  11  312.04   19.81
  -9  -6 -12  177.52   21.71
   9   6  12  164.40   16.12
   9   6  12  205.19   20.26
  -9  -7   4   28.49    7.73
   9   7  -4   15.40    4.27
  -9  -7   3   36.92    7.79
   9   7  -3   15.01    3.38
  -9  -7   2   39.31    5.01
   9   7  -2   51.60    6.40
  -9  -7   1   76.11    6.42
   9   7  -1   75.16    6.46
  -9  -7   0   91.19    7.70
   9   7   0   87.12    7.67
  -9  -7  -1  391.37   19.50
   9   7   1  401.31   20.18
  -9  -7  -2  335.36   14.12
   9   7   2  345.89   15.11
   9   7   2  293.42   25.99
  -9  -7  -3  117.80    8.00
   9   7   3  137.21    9.83
   9   7   3  132.17    7.88
  -9  -7  -4  275.78   12.86
   9   7   4  303.13   13.95
   9   7   4  279.57   12.43
  -9  -7  -5   60.81    5.88
   9   7   5   70.69    7.92
   9   7   5   62.11    5.87
  -9  -7  -6  597.36   23.32
   9   7   6  545.92   21.96
   9   7   6  575.18   22.48
  -9  -7  -7  129.98    9.60
   9   7   7  154.22   20.93
   9   7   7  173.21    7.49
  -9  -7  -8  146.84   10.96
   9   7   8  178.43   13.23
   9   7   8  159.06    7.56
  -9  -7  -9  118.58   13.79
   9   7   9  124.08   13.14
   9   7   9  147.37    8.67
  -9  -7 -10  141.28   16.51
   9   7  10  161.51   17.21
   9   7  10  175.99    9.45
  -9  -7 -11  390.34   24.87
   9   7  11  361.32   28.27
   9   7  11  396.16   24.38
  -9  -7 -12   46.01   10.43
   9   7  12   45.69   12.12
   9   7  12   78.88   12.10
  -9  -8   4   34.43    7.40
   9   8  -4   20.17    5.04
  -9  -8   3   36.35    6.72
   9   8  -3   41.36    6.71
  -9  -8   2  137.85   10.18
   9   8  -2  132.36    9.36
  -9  -8   1   24.97    4.02
   9   8  -1   26.57    4.29
  -9  -8   0   62.26    5.46
   9   8   0   51.66    8.10
  -9  -8  -1  136.35    6.67
   9   8   1  104.96    8.31
  -9  -8  -2  154.13   19.07
   9   8   2  169.85    8.11
  -9  -8  -3  114.94    8.56
   9   8   3  119.34    9.55
   9   8   3  115.44    7.94
  -9  -8  -4  487.23   23.23
   9   8   4  512.63   25.28
   9   8   4  488.83   22.83
  -9  -8  -5  223.19    8.13
   9   8   5  211.57   20.46
   9   8   5  223.21    7.63
  -9  -8  -6  213.37    7.97
   9   8   6  219.11   12.45
   9   8   6  208.50    7.57
  -9  -8  -7  443.40   21.35
   9   8   7  449.47   28.34
   9   8   7  411.00   19.93
  -9  -8  -8  411.58   27.95
   9   8   8  422.05   22.82
   9   8   8  427.67   22.85
  -9  -8  -9   58.91    7.19
   9   8   9   64.44    8.31
   9   8   9   60.82    5.46
  -9  -8 -10  115.14   13.41
   9   8  10  113.27   12.92
   9   8  10  127.44   12.62
  -9  -8 -11  194.28   17.64
   9   8  11  244.12   16.43
   9   8  11  258.06   16.47
  -9  -8 -12   52.79   13.37
   9   8  12   63.41   14.69
   9   8  12   78.08   11.88
  -9  -9   3   96.37    9.03
   9   9  -3   70.42   16.07
  -9  -9   2   71.35   10.99
   9   9  -2   52.57   10.89
  -9  -9   1   51.70    8.08
   9   9  -1   56.05   12.63
  -9  -9   0   72.72    6.19
   9   9   0   52.45   10.43
  -9  -9  -1   46.69    5.34
   9   9   1   44.62   10.89
  -9  -9  -2   28.61    5.01
   9   9   2   21.70    4.34
  -9  -9  -3  115.84    8.70
   9   9   3  109.86   18.77
  -9  -9  -4  141.81    6.45
   9   9   4  151.52   11.76
   9   9   4  141.61    5.38
  -9  -9  -5  403.70   21.34
   9   9   5  434.71   23.65
   9   9   5  398.69   20.75
  -9  -9  -6   30.66    4.43
   9   9   6   38.90    7.21
   9   9   6   29.85    4.04
  -9  -9  -7  280.97   15.18
   9   9   7  305.54   31.67
   9   9   7  283.89   15.32
  -9  -9  -8  185.83    9.35
   9   9   8  198.77   19.60
   9   9   8  189.24    8.88
  -9  -9  -9   57.39    8.99
   9   9   9   75.66    9.71
   9   9   9   76.42    8.63
   9   9  10  101.64   12.36
   9   9  10   91.60   11.47
   9   9  11  100.69   11.89
   9   9  11  102.06   10.62
   9   9  12   86.08   15.79
   9   9  12   97.18   22.94
  -9 -10   1   86.04   12.73
   9  10  -1   62.10   13.82
  -9 -10   0   26.14    5.71
   9  10   0   35.07    6.83
  -9 -10  -1   42.89    7.83
   9  10   1   65.73    9.25
  -9 -10  -2   42.61    7.66
   9  10   2   34.64    7.76
  -9 -10  -3   44.72    4.91
   9  10   3   35.03    5.93
  -9 -10  -4   62.04    4.90
  -9 -10  -5  257.28   12.50
   9  10   5  263.69   18.01
   9  10   5  259.13   12.46
  -9 -10  -6  119.53    6.12
   9  10   6  103.46   11.69
   9  10   6  105.06    5.42
   9  10   7   35.30    5.50
   9  10   7   36.57    3.35
   9  10   8  206.15   14.63
   9  10   8  180.81    7.96
   9  10   9   69.52    6.78
   9  10   9   48.27    8.49
   9  10  10   71.32   14.43
   9  10  10   78.13   11.35
   9  10  11   35.67    7.95
   9  10  11   40.94    6.68
   9  10  12   61.14   12.49
   9  10  12   56.28    8.06
  -9 -11   0   56.45    7.99
   9  11   0   40.38   10.27
  -9 -11  -1   41.06    6.57
   9  11   1   45.14   10.50
   9  11   2  134.55   22.18
   9  11   3   17.27    4.00
   9  11   4   53.44   12.09
   9  11   5  153.85   13.01
   9  11   6  383.80   25.03
   9  11   6  324.32   20.28
   9  11   7   62.83    8.48
   9  11   7   42.46    7.30
   9  11   8   37.48    8.55
   9  11   8   34.98    6.06
   9  11   9  152.44   20.26
   9  11   9  159.16   10.26
   9  11  10   47.90    9.10
   9  11  10   65.01   10.17
   9  11  11   33.37    7.87
   9  11  11   40.29    7.51
   9  11  12   91.99   16.54
   9  11  12  121.04    9.68
   9  12   2   30.40    9.71
   9  12   3   23.96    7.31
   9  12   4   65.44   13.35
   9  12   5  123.96   12.71
   9  12   6  129.34   20.18
   9  12   7   46.97   13.54
   9  12   7   39.53    5.93
   9  12   8   17.22    4.29
   9  12   8    9.85    2.36
   9  12   9  202.30   15.09
   9  12   9  191.24   13.10
   9  12  10   64.78    9.47
   9  12  11  136.12   17.36
   9  12  11  138.99   10.66
   9  13   4    4.69    3.04
   9  13   5   10.00    3.94
   9  13   6   20.01    7.14
   9  13   7   28.51    8.41
   9  13   8   23.50    7.82
   9  13   9    5.72    3.03
   9  13   9    8.48    2.62
 -10   4   1   55.09    8.55
  10  -4  -1   43.67    8.59
  10  -4  -1   48.00    9.56
 -10   4   0   18.42    5.68
  10  -4   0   10.21    3.80
  10  -4   0   14.69    4.79
 -10   3   4   22.35    6.26
  10  -3  -4   27.93    7.92
 -10   3   3   47.40    9.35
  10  -3  -3   44.16   10.76
  10  -3  -3   67.80   11.08
 -10   3   2  120.63   13.06
  10  -3  -2  126.12   13.85
  10  -3  -2   97.62   21.84
 -10   3   1   52.44    9.70
  10  -3  -1   38.31    8.20
  10  -3  -1   27.51    7.73
 -10   3   0   20.93    6.00
  10  -3   0   27.75    5.44
  10  -3   0   37.06    8.37
 -10   3  -1   41.43    8.84
  10  -3   1   38.39    7.80
  10  -3   1   51.04    9.26
 -10   3  -2   60.33   10.64
  10  -3   2   71.76   11.16
  10  -3   2   58.99   11.42
 -10   3  -3   92.54    8.65
  10  -3   3  105.37    9.13
  10  -3   3   95.42    9.01
 -10   2   5   24.81    7.10
 -10   2   4   20.36    6.20
  10  -2  -4   23.87    7.52
 -10   2   3   29.08    6.14
  10  -2  -3   28.67    6.70
  10  -2  -3   38.09    7.20
 -10   2   2   89.28   11.06
  10  -2  -2  114.31   10.43
  10  -2  -2   89.35   10.78
 -10   2   1   32.16    7.37
  10  -2  -1   46.68    8.00
  10  -2  -1   44.05    7.11
 -10   2   0   22.44    5.81
  10  -2   0   17.96    5.19
  10  -2   0   14.51    5.64
  10  -2   1   65.01   10.40
  10  -2   1   50.31    8.10
 -10   2  -2  166.59   12.34
  10  -2   2  170.14   12.10
  10  -2   2  165.19   12.45
 -10   2  -3  132.02   11.07
  10  -2   3  154.11   11.55
  10  -2   3  144.27   12.39
 -10   2  -4   46.91    9.17
  10  -2   4   31.45    6.66
  10  -2   4   34.78    8.48
 -10   2  -5   37.46    9.40
  10  -2   5   47.89    9.17
  10  -2   5   54.27    8.71
 -10   1   5   17.51    5.81
  10  -1  -5   36.04    7.61
 -10   1   4   20.39    5.06
  10  -1  -3   63.86   10.19
  10  -1  -3   53.65    7.58
 -10   1   2   30.35    7.37
  10  -1  -2   32.66    7.58
  10  -1  -2   33.58    7.52
 -10   1   1   30.51    7.42
  10  -1  -1   19.76    5.54
  10  -1  -1   26.97    6.46
 -10   1   0   47.23    9.04
  10  -1   0   30.78    7.23
  10  -1   0   49.28    9.40
 -10   1  -1  234.73   16.45
  10  -1   1  216.65   14.99
  10  -1   1  226.40   15.60
 -10   1  -2  233.34   16.19
  10  -1   2  283.48   19.13
  10  -1   2  300.49   20.31
 -10   1  -3   27.13    6.47
  10  -1   3   20.98    4.98
  10  -1   3   41.59    9.02
 -10   1  -4   76.50   11.82
  10  -1   4   85.97    8.90
  10  -1   4   99.92   10.87
  10  -1   5   69.63   11.15
  10  -1   5   72.26   13.58
 -10   1  -6   61.30   12.79
  10  -1   6   62.01   10.09
  10  -1   6   63.22   11.60
 -10   1  -7   46.37   12.01
  10  -1   7   88.65    9.14
 -10   0   6   57.22    8.94
  10   0  -6   77.00   10.75
 -10   0   5   75.78   12.31
  10   0  -5   44.99   11.06
 -10   0   4   52.76    8.95
  10   0  -4   76.30   10.08
  10   0  -4   68.47   10.63
 -10   0   3  104.24   11.17
  10   0  -3  115.70   12.28
  10   0  -3   96.59    9.36
 -10   0   2   37.79    7.33
  10   0  -2   43.45    8.28
  10   0  -2   49.40    8.90
 -10   0   1   56.93    7.08
  10   0  -1   32.12    4.62
  10   0  -1   43.31    4.83
 -10   0   0  105.32    9.92
  10   0   0  108.72    9.66
  10   0   0  101.42   11.30
 -10   0  -1  215.88   15.97
  10   0   1  186.86   10.26
  10   0   1  218.53   16.17
 -10   0  -2  128.94   10.96
  10   0   2  128.78   10.75
  10   0   2  134.76   10.72
 -10   0  -3   41.54    5.09
  10   0   3   56.33    6.55
  10   0   3   60.52    7.40
 -10   0  -4   78.36   10.16
  10   0   4   72.61    8.65
  10   0   4   88.28   10.93
 -10   0  -5   49.32    9.16
  10   0   5   69.63    5.66
  10   0   5   41.09    8.54
 -10   0  -6   57.90    9.55
  10   0   6   61.62    9.40
  10   0   6   54.59    9.18
 -10   0  -7   33.90    8.31
  10   0   7   44.38   10.20
  10   0   7   38.96    8.37
 -10   0  -8   28.69    8.34
  10   0   8   28.14    5.54
 -10  -1   6   41.76    9.11
  10   1  -6   15.71    4.58
 -10  -1   5   99.54   22.70
 -10  -1   4   43.80    7.40
  10   1  -4   33.14    6.74
 -10  -1   3   73.28    7.24
  10   1  -3   41.28    7.44
 -10  -1   2   57.53    7.39
  10   1  -2   38.42    4.77
  10   1  -2   40.69    4.06
 -10  -1   1   54.92    6.53
  10   1  -1   33.15    5.97
  10   1  -1   35.27    5.84
 -10  -1   0   84.28    7.57
  10   1   0   98.08    8.58
  10   1   0   95.17    8.36
 -10  -1  -1  110.18    7.71
  10   1   1  118.89    7.54
  10   1   1  104.21    6.77
 -10  -1  -2    8.96    3.57
  10   1   2   22.50    5.74
  10   1   2   15.21    3.80
 -10  -1  -3   93.46    8.00
  10   1   3  105.43    7.33
  10   1   3  111.75    7.59
 -10  -1  -4   32.41    6.17
  10   1   4   38.63    6.56
  10   1   4   32.37    6.58
 -10  -1  -5   50.18    6.37
  10   1   5   40.75    4.35
  10   1   5   43.27    6.01
 -10  -1  -6   96.52   10.48
  10   1   6   93.35    9.44
  10   1   6  103.63   11.43
 -10  -1  -7   98.90   15.23
  10   1   7  101.12    9.83
  10   1   7  119.16   13.56
 -10  -1  -8   48.48   10.42
  10   1   8   31.72    5.97
  10   1   8   57.31   10.66
 -10  -1  -9   31.30    7.49
  10   1   9   35.56    7.89
  10   2  -6   42.58    8.49
 -10  -2   5   93.41   14.28
  10   2  -5  127.54   13.49
 -10  -2   4   25.05    6.32
  10   2  -4   36.26    7.34
 -10  -2   3   23.64    6.44
  10   2  -3   31.65    7.96
 -10  -2   2   44.42    9.66
  10   2  -2   40.57    4.73
  10   2  -2   36.43    3.39
 -10  -2   1   14.60    5.16
  10   2  -1   11.15    2.97
  10   2  -1   16.41    3.33
 -10  -2   0   53.40    8.44
  10   2   0   56.45    8.92
  10   2   0   51.45    7.10
 -10  -2  -1   32.32    6.17
  10   2   1   29.97    5.99
  10   2   1   27.20    4.56
 -10  -2  -2    7.61    3.40
  10   2   2    8.02    3.65
  10   2   2   24.27    5.46
 -10  -2  -3  113.22   10.33
  10   2   3   76.25    7.29
  10   2   3   81.07    7.19
 -10  -2  -4   53.43    8.04
  10   2   4   47.75    6.85
  10   2   4   42.07    7.03
 -10  -2  -5   24.25    5.24
  10   2   5   36.70    6.24
  10   2   5   28.17    5.71
 -10  -2  -6  292.34   13.32
  10   2   6  251.60   11.13
  10   2   6  271.87   13.32
 -10  -2  -7  183.56   16.16
  10   2   7  188.52   12.78
  10   2   7  189.71   14.22
 -10  -2  -8   83.64   14.02
  10   2   8   79.78   15.02
  10   2   8   90.13   10.47
 -10  -2  -9  136.41   25.21
  10   2   9  204.96   20.91
 -10  -3   5   31.30    7.48
  10   3  -5   35.74    7.43
 -10  -3   4   43.05    8.10
  10   3  -4   32.46    6.80
 -10  -3   3   43.83    9.13
  10   3  -3   26.87    6.50
 -10  -3   2   91.96   11.63
  10   3  -2   48.26    6.45
 -10  -3   1   14.92    4.94
  10   3  -1   11.90    4.50
  10   3  -1   10.48    2.13
 -10  -3   0  129.08   10.77
  10   3   0  126.19   10.38
  10   3   0  121.43    8.73
 -10  -3  -1   12.82    4.19
  10   3   1   16.29    4.13
  10   3   1   15.09    3.31
 -10  -3  -2   83.75    8.05
  10   3   2   71.63    8.77
  10   3   2   88.01    7.33
 -10  -3  -3  152.89   11.92
  10   3   3  131.29   10.75
  10   3   3  152.63   11.55
 -10  -3  -4   62.90    9.87
  10   3   4   62.53    9.67
  10   3   4   82.29    7.43
 -10  -3  -5   23.34    5.58
  10   3   5   13.54    4.03
  10   3   5   14.43    5.39
 -10  -3  -6   66.50    6.98
  10   3   6   56.32    4.98
  10   3   6   81.40    7.73
 -10  -3  -7  169.01   33.82
  10   3   7  167.66   12.37
  10   3   7  165.97   13.50
 -10  -3  -8  107.68   22.56
  10   3   8  141.79   13.56
  10   3   8  171.90   13.56
 -10  -3  -9  114.09   17.62
  10   3   9  121.06   11.03
  10   3   9  126.03   10.84
 -10  -3 -10   43.70   11.24
  10   3  10   49.52    9.35
 -10  -4   5   51.06    9.01
  10   4  -5   25.34    6.34
 -10  -4   4   25.75    6.12
  10   4  -4   11.57    3.41
 -10  -4   3  176.62   13.38
  10   4  -3  163.48   11.73
 -10  -4   2   41.19    5.30
  10   4  -2   28.70    4.50
 -10  -4   1   55.66    7.01
  10   4  -1   63.47    6.59
 -10  -4   0  154.61    8.94
  10   4   0  144.41    8.49
  10   4   0  114.34    8.01
 -10  -4  -1  197.88    9.67
  10   4   1  208.78   10.10
  10   4   1  192.08    7.66
 -10  -4  -2  189.96    9.50
  10   4   2  184.11    9.03
  10   4   2  198.23    7.86
 -10  -4  -3  199.19    8.51
  10   4   3  193.14    8.87
  10   4   3  189.85    7.47
 -10  -4  -4   44.19    6.15
  10   4   4   48.71    6.15
  10   4   4   44.58    5.56
 -10  -4  -5    9.33    3.35
  10   4   5   16.68    3.96
  10   4   5   21.89    4.24
 -10  -4  -6   25.45    5.01
  10   4   6   37.70    6.36
  10   4   6   29.20    5.64
 -10  -4  -7  176.14    9.73
  10   4   7  156.43    8.16
  10   4   7  164.11    9.81
 -10  -4  -8   72.85   11.37
  10   4   8   90.46    9.14
  10   4   8   88.56   15.09
 -10  -4  -9   10.50    3.66
  10   4   9    9.86    3.06
  10   4   9   35.25    7.84
 -10  -4 -10   20.32    6.51
  10   4  10   19.02    5.74
  10   4  10   18.41    6.15
 -10  -4 -11   14.08    4.87
  10   4  11    9.68    4.15
 -10  -5   4   49.92    9.64
  10   5  -4   36.62    7.63
 -10  -5   3   94.40   10.44
  10   5  -3   92.26    9.97
 -10  -5   2    6.75    3.83
  10   5  -2    9.86    3.88
 -10  -5   1   95.53   11.58
  10   5  -1  101.74   11.65
 -10  -5   0  122.86    8.39
 -10  -5  -1  163.06    8.41
  10   5   1  163.89    8.29
  10   5   1  146.59    5.85
 -10  -5  -2  220.93    9.81
  10   5   2  213.87    9.64
  10   5   2  192.04    6.73
 -10  -5  -3  379.76   19.17
  10   5   3  401.73   20.35
  10   5   3  417.45   20.08
 -10  -5  -4  104.36    8.93
  10   5   4  103.23    8.92
  10   5   4  114.96    9.06
 -10  -5  -5   10.35    3.78
  10   5   5   12.38    4.41
  10   5   5   17.99    4.31
 -10  -5  -6   35.57    5.35
  10   5   6   32.31    5.31
  10   5   6   36.94    6.04
 -10  -5  -7  163.74    8.82
  10   5   7  153.95    8.15
  10   5   7  159.84    9.24
 -10  -5  -8  152.32   14.40
  10   5   8  152.28   20.88
  10   5   8  177.55    9.40
 -10  -5  -9   16.41    4.29
  10   5   9   22.44    5.39
  10   5   9   18.63    5.27
 -10  -5 -10   10.82    3.94
  10   5  10    3.82    2.78
  10   5  10   18.67    5.62
 -10  -5 -11   53.28   12.01
  10   5  11   44.95   10.93
  10   5  11   69.29    9.92
 -10  -6   4   35.39    7.69
  10   6  -4   24.29    6.31
 -10  -6   3   22.26    6.10
 -10  -6   2   87.45    9.95
  10   6  -2   64.85    9.82
 -10  -6   1   66.54    8.36
  10   6  -1   58.68    6.72
 -10  -6   0   85.98    7.19
  10   6   0   93.67    8.13
 -10  -6  -1   35.98    6.14
 -10  -6  -2  251.85   14.64
  10   6   2  208.93    9.79
  10   6   2  224.48   11.94
 -10  -6  -3  164.13    7.75
  10   6   3  159.30    8.24
  10   6   3  147.01    5.88
 -10  -6  -4  180.99    8.76
  10   6   4  175.95    8.57
  10   6   4  172.59    7.10
 -10  -6  -5  147.78    7.71
  10   6   5  140.60    7.33
  10   6   5  129.51    9.53
 -10  -6  -6  199.86    8.90
  10   6   6  217.05   30.96
  10   6   6  227.84   13.09
 -10  -6  -7  315.68   16.14
  10   6   7  289.94   14.95
  10   6   7  323.94   16.64
 -10  -6  -8  144.19   11.92
  10   6   8  136.08   17.04
  10   6   8  177.55    8.69
 -10  -6  -9  166.02   14.63
  10   6   9  162.50   19.59
  10   6   9  217.69   15.07
 -10  -6 -10    6.05    3.42
  10   6  10   14.22    4.19
  10   6  10   17.73    4.46
 -10  -6 -11  106.48   17.80
  10   6  11  101.53   18.46
  10   6  11  163.65   16.33
 -10  -7   3   46.68    9.02
  10   7  -3   45.18   10.38
 -10  -7   2   72.33   12.01
  10   7  -2   54.22    8.81
 -10  -7   1  100.11   10.78
  10   7  -1   91.94   10.00
 -10  -7   0   91.08   10.74
  10   7   0   85.43   10.15
 -10  -7  -1   99.94    8.15
  10   7   1  112.01    7.21
 -10  -7  -2  168.46    8.68
  10   7   2  173.82    9.40
 -10  -7  -3   55.26    7.42
  10   7   3   69.94    6.39
  10   7   3   57.11    7.10
 -10  -7  -4   44.43    6.42
  10   7   4   40.96    6.77
  10   7   4   30.55    4.16
 -10  -7  -5  256.27   14.38
  10   7   5  261.75   15.08
  10   7   5  239.25   13.04
 -10  -7  -6  406.81   19.92
  10   7   6  442.43   22.82
  10   7   6  461.66   22.17
 -10  -7  -7  145.49    7.41
  10   7   7  142.58   11.97
  10   7   7  155.16    7.85
 -10  -7  -8  159.14   12.31
  10   7   8  148.44   19.73
  10   7   8  153.46   11.48
 -10  -7  -9  342.98   28.52
  10   7   9  401.03   26.51
  10   7   9  411.98   26.46
 -10  -7 -10   61.45   11.55
  10   7  10   71.17   13.08
  10   7  10   82.29    8.78
  10   7  11   79.03   16.36
  10   7  11  106.10   11.06
 -10  -8   2   98.28   21.95
  10   8  -2  106.23   10.96
 -10  -8   1   73.40   12.06
  10   8  -1   82.53   10.20
 -10  -8   0   25.06    5.99
  10   8   0   23.33    5.94
 -10  -8  -1   66.90    7.22
  10   8   1   69.68   14.26
 -10  -8  -2   67.24    7.07
  10   8   2   67.29    7.39
 -10  -8  -3  144.26    7.78
  10   8   3  159.88    8.59
 -10  -8  -4   42.22    6.82
  10   8   4   44.34    7.46
  10   8   4   30.37    5.39
 -10  -8  -5  125.41    6.92
  10   8   5  140.30   15.47
  10   8   5  133.22    6.54
 -10  -8  -6  193.67    9.39
  10   8   6  201.43   18.69
  10   8   6  195.91    8.89
 -10  -8  -7   66.94    7.09
  10   8   7   66.29   12.48
  10   8   7   55.59    5.91
 -10  -8  -8  270.40   11.33
  10   8   8  276.22   12.02
 -10  -8  -9   56.37   11.61
  10   8   9   61.31    8.41
  10   8   9   66.65    5.37
 -10  -8 -10   72.15   14.61
  10   8  10   88.70   13.07
  10   8  10  119.00    9.14
 -10  -8 -11   25.92    8.50
  10   8  11   29.84    6.64
  10   8  11   44.72   10.75
 -10  -9   1   50.21    8.78
  10   9  -1   52.77   13.00
 -10  -9   0   58.47    9.63
  10   9   0   82.24   14.78
 -10  -9  -1   22.25    4.93
  10   9   1   18.13    4.39
 -10  -9  -2   61.80    5.40
  10   9   2   67.78    9.80
 -10  -9  -3  102.81   20.66
 -10  -9  -4   72.30    8.21
  10   9   4   66.04    9.22
 -10  -9  -5   48.07    5.47
  10   9   5   43.01    5.14
  10   9   5   34.76    2.84
 -10  -9  -6  159.71   11.50
  10   9   6  159.78   24.69
  10   9   6  161.41   11.27
 -10  -9  -7  159.30   11.54
  10   9   7  157.13   21.78
  10   9   7  130.73    9.45
 -10  -9  -8   50.97   10.52
  10   9   8   69.74    8.69
  10   9   8   56.46    9.82
 -10  -9  -9   42.35    8.49
  10   9   9   60.54   11.54
  10   9   9   33.94    5.97
  10   9  10  102.95   15.47
  10   9  10   96.06   11.08
  10   9  11   54.00   13.33
  10   9  11   65.76    9.83
 -10 -10   0   53.97    7.67
  10  10   0   39.62    8.70
 -10 -10  -1   31.20    5.52
  10  10   1   32.70    6.92
 -10 -10  -2   38.69    6.32
  10  10   2   35.97    6.90
 -10 -10  -3   59.30    8.88
  10  10   3   55.02   11.75
 -10 -10  -4   60.04    4.83
  10  10   4   51.35   12.50
 -10 -10  -5   75.41    5.35
  10  10   5   72.13   10.69
  10  10   6  113.82   18.81
  10  10   6  103.13    9.70
  10  10   7  315.91   27.33
  10  10   7  261.44   16.62
  10  10   8   28.10    5.89
  10  10   8   25.48    4.54
  10  10   9   48.66   11.38
  10  10   9   50.51    7.93
  10  10  10   62.65   15.48
  10  10  10   80.16   11.66
  10  10  11   93.19   15.51
  10  10  11  107.53    8.68
  10  11   1   50.86   12.73
  10  11   2   35.88    7.46
  10  11   3   30.62    7.33
  10  11   4   29.08    5.42
  10  11   5   63.00   13.03
  10  11   6   74.23   14.84
  10  11   7  183.12   18.59
  10  11   7  149.85   10.22
  10  11   8   30.66    9.48
  10  11   8   26.81    5.25
  10  11   9   21.78    7.13
  10  11   9   18.76    4.68
  10  11  10   65.66   14.35
  10  11  10   80.23    6.72
  10  12   4   29.87    6.99
  10  12   5    7.39    4.24
  10  12   6   47.68    9.95
  10  12   8   67.91   14.22
  10  12   9   20.05    5.73
 -11   2   0   45.39    9.10
  11  -2   0   31.71    6.86
  11  -2   0   28.60    4.56
  11  -2   1   29.11    6.22
  11  -2   1   21.81    6.30
 -11   1   2   78.06   11.64
  11  -1  -2   70.74   10.23
 -11   1   1   17.25    5.30
  11  -1  -1   27.51    7.43
 -11   1   0   39.82    8.78
  11  -1   0   23.32    6.90
  11  -1   0   29.64    6.60
 -11   1  -1  112.14   12.86
  11  -1   1   80.65   12.47
  11  -1   1   81.05   12.68
 -11   1  -2  147.72   15.50
  11  -1   2  137.70   14.20
  11  -1   2  144.15   14.83
 -11   1  -3   20.08    6.57
  11  -1   3   17.80    5.19
  11  -1   3   24.84    8.34
 -11   1  -4   33.28    7.43
  11  -1   4   27.39    6.77
  11  -1   4   17.34    6.69
 -11   0   3   30.07    7.11
  11   0  -3   18.91    5.78
 -11   0   2   36.85    7.89
  11   0  -2   42.21    9.11
  11   0  -2   31.46    6.15
 -11   0   1   25.42    6.14
  11   0  -1   32.45    6.28
  11   0  -1   24.58    5.35
 -11   0   0    4.31    3.60
  11   0   0   19.50    6.23
  11   0   0   11.43    4.19
  11   0   1  147.87   12.11
  11   0   1  134.80   10.55
 -11   0  -2   63.59   11.63
  11   0   2   68.95   11.38
  11   0   2   55.95    9.51
 -11   0  -3    7.86    3.83
  11   0   3   20.34    5.77
  11   0   3   30.40    6.83
 -11   0  -4   16.62    5.83
  11   0   4   17.99    5.31
 -11   0  -5   46.17    8.53
  11   0   5   40.12    7.81
  11   0   5   42.82    9.26
 -11   0  -6   26.72    7.63
  11   0   6   22.65    5.59
  11   0   6   54.17    8.58
 -11  -1   4  116.32   11.15
  11   1  -4   97.57    9.37
 -11  -1   3   16.00    5.94
 -11  -1   2   25.37    6.54
  11   1  -2   31.68    6.29
 -11  -1   1   38.57    6.84
  11   1  -1   48.98    9.13
  11   1  -1   42.90    7.03
 -11  -1   0    0.21    3.35
  11   1   0   10.60    5.31
  11   1   0    5.26    2.76
 -11  -1  -1   38.11    8.76
  11   1   1   31.05    6.09
  11   1   1   27.13    5.25
 -11  -1  -2   38.84    6.43
  11   1   2   38.07    8.35
  11   1   2   38.15    8.12
 -11  -1  -3   15.11    3.65
  11   1   3   18.29    4.27
  11   1   3   18.49    4.65
 -11  -1  -4   21.46    5.78
  11   1   4   27.30    5.79
  11   1   4   38.24    8.64
 -11  -1  -5   33.31    6.77
  11   1   5   22.54    5.01
 -11  -1  -6   31.32    6.74
  11   1   6   37.54    7.36
  11   1   6   52.95   10.16
 -11  -1  -7   59.27   12.84
  11   1   7   71.22    9.66
  11   1   7   73.44   11.00
 -11  -2   4   33.47    7.70
  11   2  -4   15.65    4.54
 -11  -2   3   24.25    6.90
  11   2  -3   32.73    7.05
 -11  -2   2   50.09    8.87
  11   2  -2   69.00   11.72
 -11  -2   1   32.50    6.74
  11   2  -1   50.62    7.96
  11   2  -1   47.53    6.50
 -11  -2   0   22.92    5.40
  11   2   0   15.51    4.05
  11   2   0   25.58    4.91
 -11  -2  -1   14.76    4.59
  11   2   1   18.96    5.24
  11   2   1   15.76    4.45
 -11  -2  -2   81.13    8.53
  11   2   2   81.11    8.24
  11   2   2   66.88    6.01
 -11  -2  -3   71.65    6.28
  11   2   3   65.83    6.55
  11   2   3   57.43   10.52
 -11  -2  -4   78.63    7.41
  11   2   4   83.48    7.00
  11   2   4   84.31    7.38
 -11  -2  -5   38.67    6.60
  11   2   5   33.28    6.33
  11   2   5   34.97    6.80
 -11  -2  -6   16.93    4.73
  11   2   6   13.76    4.13
  11   2   6   15.95    4.65
 -11  -2  -7   54.36    9.82
  11   2   7   55.98    9.39
  11   2   7   41.03    8.25
 -11  -2  -8   39.30   10.83
  11   2   8   59.38    8.12
  11   2   8   64.85    9.95
 -11  -3   4   14.94    5.64
  11   3  -4   10.71    4.10
 -11  -3   3   35.46    7.47
  11   3  -3   29.19    6.56
 -11  -3   2   84.27   10.83
  11   3  -2   75.43    9.43
 -11  -3   1   26.76    5.84
  11   3  -1   31.58    6.73
 -11  -3   0   88.62    9.85
  11   3   0   86.95   14.74
  11   3   0   77.13    5.49
 -11  -3  -1   56.83   10.52
  11   3   1   49.37    9.47
  11   3   1   51.82    9.13
 -11  -3  -2  105.63    9.13
  11   3   2  133.28   11.19
  11   3   2   93.95   10.44
 -11  -3  -3  176.45   10.01
  11   3   3  186.20    9.39
  11   3   3  176.11    8.87
 -11  -3  -4   88.34   15.15
  11   3   4   96.34   10.02
  11   3   4   95.77    9.93
 -11  -3  -5   45.07    8.93
  11   3   5   32.45    7.20
  11   3   5   40.97    7.91
 -11  -3  -6    6.85    4.04
  11   3   6   11.24    3.46
  11   3   6   16.14    5.47
 -11  -3  -7   29.59    5.97
  11   3   7   30.23    5.14
  11   3   7   27.83    5.67
 -11  -3  -8   61.28   18.16
  11   3   8   85.45   12.56
  11   3   8   78.42   12.11
 -11  -4   3   17.12    5.75
  11   4  -3   31.60    6.84
 -11  -4   2   88.87   11.18
  11   4  -2   81.44   10.39
 -11  -4   1   15.50    4.03
 -11  -4   0   89.36   10.03
  11   4   0   74.63    6.32
 -11  -4  -1  162.75   11.91
  11   4   1  135.26   13.63
  11   4   1  137.93   12.92
 -11  -4  -2   85.92   10.83
  11   4   2  101.21   12.09
  11   4   2   71.54    7.96
 -11  -4  -3  173.88    9.04
  11   4   3  168.76   12.76
  11   4   3  163.83   12.14
 -11  -4  -4  255.39   11.54
  11   4   4  262.76   12.00
  11   4   4  267.55   11.57
 -11  -4  -5   45.67    9.09
  11   4   5   30.38    6.69
  11   4   5   34.46    7.06
  11   4   6   26.17    6.14
  11   4   6   14.56    4.93
 -11  -4  -7   67.64   10.91
  11   4   7   49.39    7.24
  11   4   7   52.02    7.91
 -11  -4  -8   70.40   13.53
  11   4   8   94.74   10.95
  11   4   8  108.91   25.89
 -11  -4  -9   40.40   10.56
  11   4   9   33.51    8.10
  11   4   9   42.78    8.88
 -11  -5   3   11.26    5.23
  11   5  -3   12.17    4.03
 -11  -5   2   21.72    6.79
  11   5  -2   26.85    7.33
 -11  -5   1   69.68   10.74
  11   5  -1   61.62   10.29
 -11  -5   0   42.04    6.66
  11   5   0   39.38    6.23
 -11  -5  -1  117.15   12.18
  11   5   1   92.30    9.59
 -11  -5  -2   52.46    6.40
  11   5   2   54.23    6.85
  11   5   2   41.49    3.44
 -11  -5  -3  165.59   12.61
  11   5   3  184.28    9.85
  11   5   3  165.21   11.84
 -11  -5  -4  279.85   13.40
  11   5   4  280.01   13.13
  11   5   4  226.25    9.85
 -11  -5  -5   36.65    4.30
  11   5   5   35.80    4.95
  11   5   5   32.92    3.97
 -11  -5  -6   51.02    9.30
  11   5   6   53.07    9.76
  11   5   6   53.46    9.64
 -11  -5  -7  214.55   14.04
  11   5   7  228.15   14.81
  11   5   7  226.75   14.73
 -11  -5  -8  141.89   16.53
  11   5   8  132.31    9.77
  11   5   8  124.25   10.12
 -11  -5  -9   96.65   19.22
  11   5   9   87.65   18.91
  11   5   9  140.81   14.50
 -11  -5 -10   35.81   11.71
  11   5  10   36.69   10.25
  11   5  10   61.60    9.08
 -11  -6   2   20.92    6.50
  11   6  -2    8.59    4.10
 -11  -6   1  110.04    9.28
  11   6  -1  115.98    9.87
 -11  -6   0   53.71    8.27
  11   6   0   70.06   11.23
 -11  -6  -1   45.48    8.67
  11   6   1   33.96    7.66
 -11  -6  -2   50.20    9.14
  11   6   2   36.95    7.36
 -11  -6  -3  122.14   10.01
  11   6   3  114.02    9.54
  11   6   3   91.99    9.80
 -11  -6  -4  174.72    8.92
  11   6   4  190.34    9.98
  11   6   4  159.21   11.29
 -11  -6  -5   90.46   10.63
  11   6   5   91.70   10.51
  11   6   5   67.24    6.83
 -11  -6  -6   87.66   14.85
  11   6   6   90.71    9.87
  11   6   6   67.55    5.33
 -11  -6  -7  278.97   17.87
  11   6   7  305.76   19.07
  11   6   7  304.21   18.77
 -11  -6  -8  116.20   11.82
  11   6   8  104.01   18.84
  11   6   8  112.68   11.15
 -11  -6  -9  112.96   20.22
  11   6   9  127.80   19.24
  11   6   9  172.77   17.18
 -11  -6 -10   60.99   13.99
  11   6  10   51.86   10.57
  11   6  10   75.24   10.39
 -11  -7   2   80.91    7.87
  11   7  -2   65.94    9.61
 -11  -7   1   85.88   13.33
  11   7  -1   79.49   12.07
 -11  -7   0  124.26   10.10
  11   7   0  141.83   11.29
 -11  -7  -1   32.87    6.61
  11   7   1   15.68    4.17
 -11  -7  -2   52.47    9.70
  11   7   2   48.36    9.25
 -11  -7  -3   24.56    6.14
  11   7   3   26.24    5.99
 -11  -7  -4   75.02    6.01
  11   7   4   71.82    6.12
  11   7   4   61.54    4.19
 -11  -7  -5   83.66    6.45
  11   7   5  112.96   11.77
  11   7   5   90.05    8.84
 -11  -7  -6  179.91   12.42
  11   7   6  206.05   14.23
  11   7   6  177.09   11.75
 -11  -7  -7   48.77    7.30
  11   7   7   46.97    9.07
  11   7   7   59.92    9.14
 -11  -7  -8  116.01   11.65
  11   7   8   94.99   14.30
  11   7   8  114.50   11.14
 -11  -7  -9  123.79   12.95
  11   7   9  128.90   17.76
  11   7   9  159.02   11.58
 -11  -7 -10   56.49   10.75
  11   7  10   59.71   11.41
  11   7  10   69.87    9.69
 -11  -8   1   51.85    8.14
  11   8  -1   54.41    7.74
 -11  -8   0   92.27   13.77
 -11  -8  -1   79.81    9.85
  11   8   1   76.33    9.65
 -11  -8  -2   35.16    7.15
 -11  -8  -3   62.26    9.57
  11   8   3   52.32    7.82
 -11  -8  -4   20.56    4.96
  11   8   4   21.93    5.54
 -11  -8  -5   61.15    5.19
  11   8   5   57.10   10.29
  11   8   5   41.71    7.16
 -11  -8  -6   57.54    8.90
  11   8   6   62.82   10.81
  11   8   6   49.72    6.63
 -11  -8  -7   60.05    9.17
  11   8   7   60.92   12.55
  11   8   7   43.42    6.06
 -11  -8  -8  216.21   15.37
  11   8   8  183.92   25.85
  11   8   8  192.14   13.36
 -11  -8  -9   36.00    8.22
  11   8   9   34.22    9.01
  11   8   9   51.76    8.63
 -11  -8 -10   31.57    8.10
  11   8  10   46.85    8.81
 -11  -9   0   36.82    7.35
  11   9   0   27.76    7.02
 -11  -9  -1   76.88   11.53
  11   9   1   77.18   11.89
  11   9   2   40.69    6.75
 -11  -9  -3   83.37    9.90
 -11  -9  -4   48.40    6.82
  11   9   4   52.23   11.83
 -11  -9  -5   51.22    7.21
  11   9   5   56.29   13.08
 -11  -9  -6   25.89    5.14
  11   9   6   28.06    6.75
  11   9   6   11.64    3.07
 -11  -9  -7  166.45   11.74
  11   9   7  146.46   15.17
  11   9   7  153.38   10.57
 -11  -9  -8  108.04   12.29
  11   9   8  111.33   20.42
  11   9   8  104.87   11.81
  11   9   9   40.57   12.35
  11   9   9   52.58    8.61
  11   9  10   35.33    9.98
  11   9  10   43.37    8.09
 -11 -10  -2   84.67    7.33
  11  10   2   76.65   14.12
 -11 -10  -3   31.41    6.18
  11  10   3   19.26    5.52
 -11 -10  -4   62.21   10.02
  11  10   4   65.34   12.61
  11  10   5   47.97   10.58
  11  10   6   51.29    9.94
  11  10   7   80.77   14.56
  11  10   8   51.36   10.93
  11  10   8   45.08   10.05
  11  10   9   37.50   10.01
  11  10   9   39.35    7.16
  11  11   4   13.29    5.20
  11  11   5   13.50    4.78
  11  11   6   31.12    8.87
  11  11   7   42.52   11.86
  11  11   8    9.32    4.05
 -12  -1   0   50.02    7.69
  12   1   0   56.73    8.48
  12   1   0   43.40    8.14
 -12  -1  -1   24.16    6.50
  12   1   1   15.35    4.89
  12   1   1   25.31    6.54
 -12  -1  -2   36.25    8.62
  12   1   2   18.86    5.42
  12   1   2   15.84    5.37
 -12  -1  -3   67.21   10.69
  12   1   3   46.92    9.30
  12   1   3   39.10    7.90
 -12  -2   1   35.99    7.54
  12   2  -1   32.76    7.10
 -12  -2   0   31.95    7.36
  12   2   0   37.91    7.99
 -12  -2  -1   63.99   10.18
  12   2   1   68.69   10.93
  12   2   1   55.02    9.14
 -12  -2  -2   39.56    8.03
  12   2   2   23.11    5.92
 -12  -2  -3   78.84   12.92
  12   2   3   51.11    9.28
  12   2   3   70.62   10.79
 -12  -2  -4   83.51    8.40
  12   2   4   85.03    7.91
  12   2   4   68.88    9.79
 -12  -2  -5  131.88   11.36
  12   2   5  106.60    9.33
  12   2   5  114.95    9.83
 -12  -3   1   62.83   10.10
  12   3  -1   62.07    9.60
 -12  -3   0    7.26    3.81
  12   3   0   16.40    6.04
 -12  -3  -1   37.98    7.78
  12   3   1   47.23    8.38
  12   3   2  132.50   13.95
  12   3   2   90.63   13.24
 -12  -3  -3   25.33    7.32
  12   3   3   42.76    8.54
  12   3   3   49.41    8.68
 -12  -3  -4  126.11   13.01
  12   3   4  186.16   18.77
  12   3   4  147.98   14.83
 -12  -3  -5  169.34   16.99
  12   3   5  202.72   19.83
  12   3   5  218.22   21.33
 -12  -3  -6   51.99    7.95
  12   3   6   51.29    7.51
  12   3   6   48.79    7.38
 -12  -4   1   27.47    7.21
 -12  -4   0   40.78    8.52
  12   4   0   22.35    6.13
 -12  -4  -1   49.07    8.91
  12   4   1   37.13    8.13
 -12  -4  -2  116.97    9.75
  12   4   2  113.49    9.79
 -12  -4  -3   18.58    4.72
  12   4   3   22.80    5.79
  12   4   3   11.50    3.17
 -12  -4  -4   78.56    9.79
  12   4   4   84.28   10.60
  12   4   4   72.39   11.38
 -12  -4  -5  182.82   18.65
  12   4   5  168.66   16.71
  12   4   5  178.57   17.48
 -12  -4  -6   50.75    9.42
  12   4   6   56.21    9.65
  12   4   6   39.67    7.79
 -12  -4  -7   35.00    7.56
  12   4   7   53.32    7.98
 -12  -5   0   69.96   10.40
  12   5   0   87.92    8.65
 -12  -5  -1   68.25   11.17
  12   5   1   66.91   10.39
 -12  -5  -2   45.94    8.25
  12   5   2   51.61    9.04
 -12  -5  -3   44.19    7.59
  12   5   3   39.60    7.19
 -12  -5  -4   15.96    4.12
  12   5   4   27.85    5.20
  12   5   4   21.08    4.62
 -12  -5  -5   96.49   11.93
  12   5   5  109.36   25.76
  12   5   5  109.71   25.74
 -12  -5  -6   70.00   10.91
  12   5   6   54.85    9.21
  12   5   6   54.99    9.19
 -12  -5  -7  113.54    9.87
  12   5   7   97.81    8.52
  12   5   7  114.08    9.58
 -12  -6   0  110.73    9.74
  12   6   0   91.44    8.63
 -12  -6  -1   89.05   13.90
  12   6   1   68.18   10.51
 -12  -6  -2   33.59    7.23
  12   6   2   27.88    7.42
 -12  -6  -3   80.13    9.82
  12   6   3   63.73   10.84
 -12  -6  -4   23.61    5.16
  12   6   4   37.20    6.83
 -12  -6  -5   11.11    3.52
  12   6   5   12.67    3.53
  12   6   5    3.81    2.27
 -12  -6  -6   71.03   11.29
  12   6   6   45.46   10.49
  12   6   6   58.26    9.58
 -12  -6  -7   89.05   13.62
  12   6   7   86.31   12.94
  12   6   7   62.33   10.29
 -12  -6  -8   50.27    7.66
  12   6   8   51.19    8.72
  12   6   8   61.92    8.75
 -12  -7  -1  105.06    9.44
 -12  -7  -2   36.97    7.51
  12   7   2   32.51    6.89
 -12  -7  -3   18.58    5.53
  12   7   3   15.14    4.53
 -12  -7  -4   81.61   12.29
  12   7   4   65.15   10.12
 -12  -7  -5   12.75    4.43
  12   7   5   15.76    4.87
 -12  -7  -6   63.05    9.76
  12   7   6   94.81   14.45
  12   7   6   77.31   11.15
 -12  -7  -7   29.33    6.16
  12   7   7   34.98    7.69
  12   7   7   23.83    5.96
 -12  -7  -8   29.43    5.89
  12   7   8   28.36    6.43
  12   7   8   30.06    5.96
 -12  -8  -2   71.36    9.98
 -12  -8  -3   21.58    6.05
  12   8   3   19.36    5.71
 -12  -8  -4   30.21    6.28
  12   8   4   50.79    9.49
 -12  -8  -5   58.21    9.68
  12   8   5   66.85   10.28
 -12  -8  -6   30.39    6.16
  12   8   6   24.09    7.28
 -12  -8  -7   51.30    7.58
  12   8   7   41.64   11.77
  12   8   7   53.64    7.21
 -12  -8  -8  130.25   10.88
  12   8   8   97.77   15.61
  12   8   8  120.02    9.34
 -12  -9  -3   68.87    9.48
  12   9   3   71.16   10.12
 -12  -9  -4   17.98    4.80
  12   9   4   14.40    4.38
 -12  -9  -5   34.05    6.62
  12   9   5   30.32    7.78
 -12  -9  -6    4.23    3.04
  12   9   6    8.50    3.85
 -12  -9  -7   65.19    8.97
  12   9   7   55.78   10.72

_computing_structure_solution     'SHELXT 2014/4 (Sheldrick, 2014)'
;
_shelx_hkl_checksum              81778
_shelx_shelxl_version_number     2014/7
_olex2_submission_special_instructions 'No special instructions were received'
loop_
_space_group_symop_operation_xyz
'x, y, z'
'-x, -y, -z'
loop_
_atom_site_label
_atom_site_type_symbol
_atom_site_fract_x
_atom_site_fract_y
_atom_site_fract_z
_atom_site_U_iso_or_equiv
_atom_site_adp_type
_atom_site_occupancy
_atom_site_site_symmetry_order
_atom_site_calc_flag
_atom_site_refinement_flags_posn
_atom_site_refinement_flags_adp
_atom_site_refinement_flags_occupancy
_atom_site_disorder_assembly
_atom_site_disorder_group
Rh1 Rh 0.5000 0.5000 0.5000 0.02604(9) Uani 1 2 d S T P . .
N2 N 0.3753(2) 0.3923(2) 0.4975(2) 0.0278(4) Uani 1 1 d . . . . .
N1 N 0.6289(2) 0.4734(2) 0.3417(2) 0.0293(4) Uani 1 1 d . . . . .
C17 C 0.0775(3) 0.3430(3) 0.7794(2) 0.0289(5) Uani 1 1 d . . . . .
C15 C 0.2577(3) 0.3593(3) 0.5854(2) 0.0295(5) Uani 1 1 d . . . . .
C6 C 0.5177(3) 0.2535(3) 0.2342(3) 0.0321(5) Uani 1 1 d . . . . .
C5 C 0.5109(3) 0.3310(3) 0.3128(2) 0.0296(5) Uani 1 1 d . . . . .
C2 C 0.8149(3) 0.4728(3) 0.1760(3) 0.0360(6) Uani 1 1 d . . . . .
H2 H 0.8975 0.4904 0.1194 0.043 Uiso 1 1 calc R . . . .
C12 C 0.3997(3) 0.3286(3) 0.4140(2) 0.0291(5) Uani 1 1 d . . . . .
N3 N 0.7600(10) 0.2644(10) 0.5876(10) 0.053(2) Uani 0.5 1 d D U . A 1
H3 H 0.8051 0.3201 0.5806 0.063 Uiso 0.5 1 d R . . A 1
C1AA C 0.6175(3) 0.3980(3) 0.2802(2) 0.0307(5) Uani 1 1 d . . . . .
C24 C 0.8480(18) 0.1178(14) 0.6564(17) 0.069(3) Uani 0.5 1 d D U . A 1
H24A H 0.8202 0.0892 0.7492 0.083 Uiso 0.5 1 calc R . . A 1
H24B H 0.9517 0.1118 0.6409 0.083 Uiso 0.5 1 calc R . . A 1
C16 C 0.2002(3) 0.3980(3) 0.6902(2) 0.0294(5) Uani 1 1 d . . . . .
C0AA C 0.7353(3) 0.3971(3) 0.1778(3) 0.0366(6) Uani 1 1 d . . . . .
H0AA H 0.7532 0.3523 0.1227 0.044 Uiso 1 1 calc R . . . .
C23 C 0.6098(9) 0.3113(11) 0.6281(9) 0.035(2) Uani 0.5 1 d D U . A 1
C1 C 0.7479(3) 0.5217(3) 0.2785(2) 0.0302(5) Uani 1 1 d . . . . .
C13 C 0.2925(3) 0.2557(3) 0.4497(3) 0.0348(6) Uani 1 1 d . . . . .
H13 H 0.2839 0.2055 0.4079 0.042 Uiso 1 1 calc R . . . .
C14 C 0.2066(3) 0.2733(3) 0.5550(3) 0.0340(6) Uani 1 1 d . . . . .
H14 H 0.1289 0.2367 0.5995 0.041 Uiso 1 1 calc R . . . .
C11 C 0.4555(3) 0.3228(3) 0.1171(3) 0.0394(6) Uani 1 1 d . . . . .
H11 H 0.4088 0.4187 0.0869 0.047 Uiso 1 1 calc R . . . .
C8 C 0.5900(5) 0.0401(4) 0.2045(4) 0.0670(11) Uani 1 1 d . . . . .
H8 H 0.6356 -0.0560 0.2346 0.080 Uiso 1 1 calc R . . . .
C22 C 0.1069(3) 0.2355(3) 0.9003(3) 0.0402(6) Uani 1 1 d . . . . .
H22 H 0.2011 0.2009 0.9270 0.048 Uiso 1 1 calc R . . . .
C20 C -0.1435(4) 0.2308(4) 0.9445(3) 0.0459(7) Uani 1 1 d . . . . .
H20 H -0.2170 0.1928 0.9995 0.055 Uiso 1 1 calc R . . . .
C7 C 0.5844(4) 0.1115(3) 0.2775(3) 0.0481(8) Uani 1 1 d . . . . .
H7 H 0.6260 0.0629 0.3563 0.058 Uiso 1 1 calc R . . . .
O1 O 0.5566(5) 0.2409(5) 0.7307(4) 0.0443(10) Uani 0.5 1 d D U . A 1
C18 C -0.0647(3) 0.3941(3) 0.7435(3) 0.0417(7) Uani 1 1 d . . . . .
H18 H -0.0870 0.4669 0.6628 0.050 Uiso 1 1 calc R . . . .
C10 C 0.4619(4) 0.2511(4) 0.0440(3) 0.0492(8) Uani 1 1 d . . . . .
H10 H 0.4208 0.2989 -0.0351 0.059 Uiso 1 1 calc R . . . .
C19 C -0.1740(3) 0.3377(4) 0.8265(3) 0.0483(8) Uani 1 1 d . . . . .
H19 H -0.2690 0.3733 0.8012 0.058 Uiso 1 1 calc R . . . .
C21 C -0.0028(4) 0.1789(4) 0.9821(3) 0.0485(7) Uani 1 1 d . . . . .
H21 H 0.0185 0.1056 1.0627 0.058 Uiso 1 1 calc R . . . .
C9 C 0.5291(4) 0.1101(4) 0.0890(4) 0.0587(9) Uani 1 1 d . . . . .
H9 H 0.5332 0.0616 0.0407 0.070 Uiso 1 1 calc R . . . .
C27 C 0.6141(8) 0.1706(8) 0.7107(7) 0.0498(15) Uani 0.5 1 d . U . A 2
H27A H 0.5426 0.1894 0.7796 0.060 Uiso 0.5 1 calc R . . A 2
H27B H 0.5677 0.1489 0.6609 0.060 Uiso 0.5 1 calc R . . A 2
C25 C 0.8257(10) 0.0158(9) 0.6117(9) 0.074(2) Uani 0.5 1 d . U . A 1
H25A H 0.7224 0.0206 0.6262 0.089 Uiso 0.5 1 calc R . . A 1
H25B H 0.8570 0.0404 0.5196 0.089 Uiso 0.5 1 calc R . . A 1
C28 C 0.7392(8) 0.0567(9) 0.7642(9) 0.075(2) Uani 0.5 1 d . U . A 2
H28A H 0.7390 -0.0264 0.7583 0.090 Uiso 0.5 1 calc R . . A 2
H28B H 0.7393 0.0365 0.8550 0.090 Uiso 0.5 1 calc R . . A 2
C26 C 0.9189(12) -0.1314(10) 0.6916(11) 0.097(3) Uani 0.5 1 d . U . A 1
H26A H 0.9350 -0.1914 0.6484 0.145 Uiso 0.5 1 calc GR . . A 1
H26B H 0.8681 -0.1670 0.7763 0.145 Uiso 0.5 1 calc GR . . A 1
H26C H 1.0121 -0.1282 0.7003 0.145 Uiso 0.5 1 calc GR . . A 1
C29 C 0.8765(17) 0.1031(16) 0.6822(15) 0.066(3) Uani 0.5 1 d . U . A 2
H29A H 0.9293 0.1174 0.7331 0.080 Uiso 0.5 1 calc R . . A 2
H29B H 0.9435 0.0347 0.6488 0.080 Uiso 0.5 1 calc R . . A 2
C30 C 0.8086(13) 0.2383(15) 0.5738(15) 0.056(3) Uani 0.5 1 d . U . A 2
H30A H 0.8640 0.3037 0.5472 0.068 Uiso 0.5 1 calc R . . A 2
H30B H 0.8052 0.2226 0.4991 0.068 Uiso 0.5 1 calc R . . A 2
O2 O 0.6640(7) 0.2892(7) 0.6285(7) 0.0318(13) Uani 0.5 1 d . U . A 2
loop_
_atom_site_aniso_label
_atom_site_aniso_U_11
_atom_site_aniso_U_22
_atom_site_aniso_U_33
_atom_site_aniso_U_23
_atom_site_aniso_U_13
_atom_site_aniso_U_12
Rh1 0.03167(15) 0.02580(15) 0.02784(15) -0.01579(11) -0.00697(11) -0.00728(11)
N2 0.0362(11) 0.0271(10) 0.0273(10) -0.0146(9) -0.0060(8) -0.0106(9)
N1 0.0398(12) 0.0280(11) 0.0285(11) -0.0159(9) -0.0050(9) -0.0121(9)
C17 0.0340(13) 0.0283(12) 0.0311(13) -0.0173(11) -0.0036(10) -0.0090(10)
C15 0.0368(13) 0.0293(12) 0.0277(12) -0.0133(10) -0.0077(10) -0.0103(11)
C6 0.0426(14) 0.0325(13) 0.0329(13) -0.0200(11) -0.0041(11) -0.0146(11)
C5 0.0422(14) 0.0257(12) 0.0288(12) -0.0156(10) -0.0079(10) -0.0099(11)
C2 0.0431(15) 0.0399(15) 0.0349(14) -0.0237(12) 0.0010(11) -0.0148(12)
C12 0.0396(14) 0.0257(12) 0.0304(13) -0.0151(10) -0.0094(10) -0.0099(10)
N3 0.057(6) 0.045(4) 0.049(4) -0.009(3) -0.003(4) -0.020(4)
C1AA 0.0431(14) 0.0279(12) 0.0288(12) -0.0165(10) -0.0068(11) -0.0101(11)
C24 0.055(6) 0.066(5) 0.074(6) -0.019(4) -0.009(4) -0.016(4)
C16 0.0343(13) 0.0283(12) 0.0304(13) -0.0141(11) -0.0055(10) -0.0101(10)
C0AA 0.0465(16) 0.0388(15) 0.0361(14) -0.0254(12) -0.0008(12) -0.0138(12)
C23 0.038(5) 0.038(4) 0.036(3) -0.021(3) -0.006(3) -0.009(4)
C1 0.0373(13) 0.0291(13) 0.0295(12) -0.0158(11) -0.0042(10) -0.0100(11)
C13 0.0492(16) 0.0333(14) 0.0341(14) -0.0181(12) -0.0075(12) -0.0173(12)
C14 0.0431(15) 0.0349(14) 0.0343(14) -0.0171(12) -0.0043(11) -0.0183(12)
C11 0.0526(17) 0.0359(15) 0.0394(15) -0.0220(13) -0.0125(13) -0.0096(13)
C8 0.108(3) 0.0381(18) 0.069(2) -0.0357(18) -0.033(2) -0.0034(19)
C22 0.0389(15) 0.0441(16) 0.0352(15) -0.0137(13) -0.0059(12) -0.0112(13)
C20 0.0492(17) 0.058(2) 0.0496(18) -0.0364(16) 0.0119(14) -0.0286(15)
C7 0.072(2) 0.0349(15) 0.0456(17) -0.0221(14) -0.0199(16) -0.0077(15)
O1 0.055(3) 0.038(2) 0.034(2) -0.0092(19) -0.0034(19) -0.015(2)
C18 0.0380(15) 0.0435(16) 0.0436(16) -0.0162(13) -0.0123(12) -0.0088(13)
C10 0.0566(19) 0.058(2) 0.0522(19) -0.0362(17) -0.0186(15) -0.0109(16)
C19 0.0361(15) 0.065(2) 0.057(2) -0.0343(18) -0.0030(14) -0.0178(15)
C21 0.0560(19) 0.0478(18) 0.0377(16) -0.0122(14) -0.0003(14) -0.0207(15)
C9 0.079(2) 0.058(2) 0.069(2) -0.0475(19) -0.0195(19) -0.0156(18)
C27 0.042(3) 0.044(3) 0.054(4) -0.014(3) -0.002(3) -0.012(3)
C25 0.071(5) 0.072(5) 0.084(5) -0.038(4) -0.029(4) -0.004(4)
C28 0.050(4) 0.062(4) 0.088(5) -0.005(4) -0.009(4) -0.021(3)
C26 0.099(7) 0.083(6) 0.127(8) -0.058(6) -0.034(6) -0.013(5)
C29 0.050(6) 0.073(5) 0.056(6) -0.014(4) 0.002(4) -0.018(4)
C30 0.053(5) 0.062(5) 0.051(4) -0.021(4) -0.001(4) -0.020(4)
O2 0.029(3) 0.032(3) 0.036(2) -0.013(2) -0.005(2) -0.011(3)
loop_
_atom_type_symbol
_atom_type_description
_atom_type_scat_dispersion_real
_atom_type_scat_dispersion_imag
_atom_type_scat_source
C C 0.0033 0.0016 'International Tables Vol C Tables 4.2.6.8 and 6.1.1.4'
H H 0.0000 0.0000 'International Tables Vol C Tables 4.2.6.8 and 6.1.1.4'
N N 0.0061 0.0033 'International Tables Vol C Tables 4.2.6.8 and 6.1.1.4'
O O 0.0106 0.0060 'International Tables Vol C Tables 4.2.6.8 and 6.1.1.4'
Rh Rh -1.1178 0.9187 'International Tables Vol C Tables 4.2.6.8 and 6.1.1.4'
loop_
_geom_angle_atom_site_label_1
_geom_angle_atom_site_label_2
_geom_angle_atom_site_label_3
_geom_angle
_geom_angle_site_symmetry_1
_geom_angle_site_symmetry_3
N2 Rh1 N2 180.0 2_666 .
N2 Rh1 O2 90.36(19) 2_666 2_666
N2 Rh1 O2 89.64(19) . 2_666
N2 Rh1 O2 89.64(19) 2_666 .
N2 Rh1 O2 90.36(19) . .
N1 Rh1 N2 90.07(9) 2_666 2_666
N1 Rh1 N2 90.07(9) . .
N1 Rh1 N2 89.93(9) . 2_666
N1 Rh1 N2 89.93(9) 2_666 .
N1 Rh1 N1 180.0 2_666 .
N1 Rh1 O2 87.29(19) 2_666 2_666
N1 Rh1 O2 92.71(19) . 2_666
N1 Rh1 O2 87.29(19) . .
N1 Rh1 O2 92.71(19) 2_666 .
C23 Rh1 N2 96.3(3) . 2_666
C23 Rh1 N2 83.7(3) 2_666 2_666
C23 Rh1 N2 83.7(3) . .
C23 Rh1 N2 96.3(3) 2_666 .
C23 Rh1 N1 94.2(3) . .
C23 Rh1 N1 85.8(3) . 2_666
C23 Rh1 N1 85.8(3) 2_666 .
C23 Rh1 N1 94.2(3) 2_666 2_666
C23 Rh1 C23 180.0 . 2_666
O2 Rh1 O2 180.0 . 2_666
C15 N2 Rh1 126.57(16) . .
C12 N2 Rh1 126.35(17) . .
C12 N2 C15 106.9(2) . .
C1AA N1 Rh1 126.46(18) . .
C1 N1 Rh1 126.80(16) . .
C1 N1 C1AA 106.7(2) . .
C22 C17 C16 119.4(2) . .
C22 C17 C18 118.3(3) . .
C18 C17 C16 122.3(2) . .
N2 C15 C16 125.8(2) . .
N2 C15 C14 109.1(2) . .
C16 C15 C14 125.0(2) . .
C11 C6 C5 120.8(2) . .
C7 C6 C5 120.7(2) . .
C7 C6 C11 118.5(2) . .
C12 C5 C6 117.2(2) . .
C12 C5 C1AA 125.0(2) . .
C1AA C5 C6 117.7(2) . .
C0AA C2 H2 126.5 . .
C0AA C2 C1 107.1(2) . .
C1 C2 H2 126.5 . .
N2 C12 C5 126.1(2) . .
N2 C12 C13 109.0(2) . .
C5 C12 C13 124.8(2) . .
C24 N3 H3 109.8 . .
C23 N3 H3 110.4 . .
C23 N3 C24 120.1(11) . .
N1 C1AA C5 125.9(2) . .
N1 C1AA C0AA 109.1(2) . .
C5 C1AA C0AA 125.0(2) . .
N3 C24 H24A 109.1 . .
N3 C24 H24B 109.1 . .
N3 C24 C25 112.4(11) . .
H24A C24 H24B 107.9 . .
C25 C24 H24A 109.1 . .
C25 C24 H24B 109.1 . .
C15 C16 C17 117.2(2) . .
C15 C16 C1 125.0(2) . 2_666
C1 C16 C17 117.8(2) 2_666 .
C2 C0AA C1AA 107.7(2) . .
C2 C0AA H0AA 126.2 . .
C1AA C0AA H0AA 126.2 . .
N3 C23 Rh1 113.7(6) . .
O1 C23 Rh1 125.6(6) . .
O1 C23 N3 120.6(8) . .
N1 C1 C2 109.4(2) . .
N1 C1 C16 125.8(2) . 2_666
C16 C1 C2 124.7(2) 2_666 .
C12 C13 H13 126.2 . .
C14 C13 C12 107.6(2) . .
C14 C13 H13 126.2 . .
C15 C14 H14 126.3 . .
C13 C14 C15 107.3(2) . .
C13 C14 H14 126.3 . .
C6 C11 H11 119.6 . .
C6 C11 C10 120.9(3) . .
C10 C11 H11 119.6 . .
C7 C8 H8 119.9 . .
C9 C8 H8 119.9 . .
C9 C8 C7 120.3(3) . .
C17 C22 H22 119.7 . .
C17 C22 C21 120.5(3) . .
C21 C22 H22 119.7 . .
C19 C20 H20 120.2 . .
C19 C20 C21 119.6(3) . .
C21 C20 H20 120.2 . .
C6 C7 C8 120.5(3) . .
C6 C7 H7 119.7 . .
C8 C7 H7 119.7 . .
C17 C18 H18 119.6 . .
C19 C18 C17 120.7(3) . .
C19 C18 H18 119.6 . .
C11 C10 H10 120.2 . .
C9 C10 C11 119.6(3) . .
C9 C10 H10 120.2 . .
C20 C19 C18 120.5(3) . .
C20 C19 H19 119.8 . .
C18 C19 H19 119.8 . .
C22 C21 H21 119.9 . .
C20 C21 C22 120.3(3) . .
C20 C21 H21 119.9 . .
C8 C9 C10 120.3(3) . .
C8 C9 H9 119.9 . .
C10 C9 H9 119.9 . .
H27A C27 H27B 108.5 . .
C28 C27 H27A 110.2 . .
C28 C27 H27B 110.2 . .
C28 C27 O2 107.6(6) . .
O2 C27 H27A 110.2 . .
O2 C27 H27B 110.2 . .
C24 C25 H25A 110.3 . .
C24 C25 H25B 110.3 . .
H25A C25 H25B 108.5 . .
C26 C25 C24 107.3(7) . .
C26 C25 H25A 110.3 . .
C26 C25 H25B 110.3 . .
C27 C28 H28A 110.6 . .
C27 C28 H28B 110.6 . .
C27 C28 C29 105.9(8) . .
H28A C28 H28B 108.7 . .
C29 C28 H28A 110.6 . .
C29 C28 H28B 110.6 . .
C25 C26 H26A 109.5 . .
C25 C26 H26B 109.5 . .
C25 C26 H26C 109.5 . .
H26A C26 H26B 109.5 . .
H26A C26 H26C 109.5 . .
H26B C26 H26C 109.5 . .
C28 C29 H29A 111.3 . .
C28 C29 H29B 111.3 . .
H29A C29 H29B 109.2 . .
C30 C29 C28 102.6(10) . .
C30 C29 H29A 111.3 . .
C30 C29 H29B 111.3 . .
C29 C30 H30A 110.9 . .
C29 C30 H30B 110.9 . .
H30A C30 H30B 108.9 . .
O2 C30 C29 104.1(11) . .
O2 C30 H30A 110.9 . .
O2 C30 H30B 110.9 . .
C27 O2 Rh1 120.4(5) . .
C30 O2 Rh1 119.8(7) . .
C30 O2 C27 106.8(8) . .
loop_
_geom_bond_atom_site_label_1
_geom_bond_atom_site_label_2
_geom_bond_distance
_geom_bond_site_symmetry_2
Rh1 N2 2.032(2) .
Rh1 N2 2.032(2) 2_666
Rh1 N1 2.031(2) 2_666
Rh1 N1 2.031(2) .
Rh1 C23 2.024(9) 2_666
Rh1 C23 2.024(9) .
Rh1 O2 2.358(6) .
Rh1 O2 2.358(6) 2_666
N2 C15 1.379(3) .
N2 C12 1.378(3) .
N1 C1AA 1.378(3) .
N1 C1 1.372(3) .
C17 C16 1.503(4) .
C17 C22 1.382(4) .
C17 C18 1.387(4) .
C15 C16 1.393(3) .
C15 C14 1.440(3) .
C6 C5 1.499(3) .
C6 C11 1.383(4) .
C6 C7 1.374(4) .
C5 C12 1.388(4) .
C5 C1AA 1.394(4) .
C2 H2 0.9300 .
C2 C0AA 1.346(4) .
C2 C1 1.443(3) .
C12 C13 1.439(4) .
N3 H3 0.8600 .
N3 C24 1.480(9) .
N3 C23 1.405(7) .
C1AA C0AA 1.438(4) .
C24 H24A 0.9700 .
C24 H24B 0.9700 .
C24 C25 1.56(2) .
C16 C1 1.395(3) 2_666
C0AA H0AA 0.9300 .
C23 O1 1.208(8) .
C1 C16 1.394(3) 2_666
C13 H13 0.9300 .
C13 C14 1.350(4) .
C14 H14 0.9300 .
C11 H11 0.9300 .
C11 C10 1.390(4) .
C8 H8 0.9300 .
C8 C7 1.389(4) .
C8 C9 1.362(5) .
C22 H22 0.9300 .
C22 C21 1.387(4) .
C20 H20 0.9300 .
C20 C19 1.359(5) .
C20 C21 1.379(5) .
C7 H7 0.9300 .
C18 H18 0.9300 .
C18 C19 1.386(4) .
C10 H10 0.9300 .
C10 C9 1.366(5) .
C19 H19 0.9300 .
C21 H21 0.9300 .
C9 H9 0.9300 .
C27 H27A 0.9700 .
C27 H27B 0.9700 .
C27 C28 1.419(10) .
C27 O2 1.426(9) .
C25 H25A 0.9700 .
C25 H25B 0.9700 .
C25 C26 1.527(12) .
C28 H28A 0.9700 .
C28 H28B 0.9700 .
C28 C29 1.560(18) .
C26 H26A 0.9600 .
C26 H26B 0.9600 .
C26 H26C 0.9600 .
C29 H29A 0.9700 .
C29 H29B 0.9700 .
C29 C30 1.503(16) .
C30 H30A 0.9700 .
C30 H30B 0.9700 .
C30 O2 1.422(11) .
loop_
_geom_torsion_atom_site_label_1
_geom_torsion_atom_site_label_2
_geom_torsion_atom_site_label_3
_geom_torsion_atom_site_label_4
_geom_torsion
_geom_torsion_site_symmetry_4
Rh1 N2 C15 C16 2.1(4) .
Rh1 N2 C15 C14 -175.66(17) .
Rh1 N2 C12 C5 -2.7(4) .
Rh1 N2 C12 C13 176.16(17) .
Rh1 N1 C1AA C5 2.8(4) .
Rh1 N1 C1AA C0AA -176.14(18) .
Rh1 N1 C1 C2 176.33(18) .
Rh1 N1 C1 C16 -1.9(4) 2_666
N2 C15 C16 C17 -176.2(2) .
N2 C15 C16 C1 0.8(4) 2_666
N2 C15 C14 C13 -0.2(3) .
N2 C12 C13 C14 -1.1(3) .
N1 C1AA C0AA C2 -1.1(3) .
C17 C22 C21 C20 -1.0(5) .
C17 C18 C19 C20 -0.3(5) .
C15 N2 C12 C5 -177.9(2) .
C15 N2 C12 C13 1.0(3) .
C6 C5 C12 N2 179.6(2) .
C6 C5 C12 C13 1.0(4) .
C6 C5 C1AA N1 -179.7(2) .
C6 C5 C1AA C0AA -0.9(4) .
C6 C11 C10 C9 0.7(5) .
C5 C6 C11 C10 179.9(3) .
C5 C6 C7 C8 179.8(3) .
C5 C12 C13 C14 177.7(3) .
C5 C1AA C0AA C2 180.0(3) .
C12 N2 C15 C16 177.3(2) .
C12 N2 C15 C14 -0.5(3) .
C12 C5 C1AA N1 -0.7(4) .
C12 C5 C1AA C0AA 178.1(3) .
C12 C13 C14 C15 0.8(3) .
N3 C24 C25 C26 -178.7(11) .
C1AA N1 C1 C2 -1.2(3) .
C1AA N1 C1 C16 -179.4(3) 2_666
C1AA C5 C12 N2 0.6(4) .
C1AA C5 C12 C13 -178.0(3) .
C24 N3 C23 Rh1 -167.6(11) .
C24 N3 C23 O1 12.0(19) .
C16 C17 C22 C21 -177.2(3) .
C16 C17 C18 C19 177.8(3) .
C16 C15 C14 C13 -178.0(3) .
C0AA C2 C1 N1 0.5(3) .
C0AA C2 C1 C16 178.8(3) 2_666
C23 N3 C24 C25 81.0(17) .
C1 N1 C1AA C5 -179.7(3) .
C1 N1 C1AA C0AA 1.4(3) .
C1 C2 C0AA C1AA 0.3(3) .
C14 C15 C16 C17 1.3(4) .
C14 C15 C16 C1 178.3(3) 2_666
C11 C6 C5 C12 97.3(3) .
C11 C6 C5 C1AA -83.6(3) .
C11 C6 C7 C8 0.5(5) .
C11 C10 C9 C8 -0.3(6) .
C22 C17 C16 C15 104.8(3) .
C22 C17 C16 C1 -72.4(3) 2_666
C22 C17 C18 C19 -0.6(4) .
C7 C6 C5 C12 -82.0(4) .
C7 C6 C5 C1AA 97.2(3) .
C7 C6 C11 C10 -0.8(5) .
C7 C8 C9 C10 0.0(7) .
C18 C17 C16 C15 -73.5(3) .
C18 C17 C16 C1 109.3(3) 2_666
C18 C17 C22 C21 1.2(4) .
C19 C20 C21 C22 0.1(5) .
C21 C20 C19 C18 0.5(5) .
C9 C8 C7 C6 -0.1(6) .
C27 C28 C29 C30 -7.9(15) .
C28 C27 O2 Rh1 173.8(6) .
C28 C27 O2 C30 32.6(11) .
C28 C29 C30 O2 26.8(16) .
C29 C30 O2 Rh1 -178.6(10) .
C29 C30 O2 C27 -37.1(14) .
O2 C27 C28 C29 -14.1(12) .
