#------------------------------------------------------------------------------
#$Date: 2020-04-23 22:53:10 +0300 (Thu, 23 Apr 2020) $
#$Revision: 251095 $
#$URL: file:///home/coder/svn-repositories/cod/cif/4/13/47/4134789.cif $
#------------------------------------------------------------------------------
#
# This file is available in the Crystallography Open Database (COD),
# http://www.crystallography.net/
#
# All data on this site have been placed in the public domain by the
# contributors.
#
data_4134789
loop_
_publ_author_name
'Liu, Wenqi'
'Lin, Chenjian'
'Weber, Jacob Andrew'
'Stern, Charlotte L.'
'Young, Ryan M.'
'Wasielewski, Michael R.'
'Stoddart, J. Fraser'
_publ_section_title
;
 Cyclophane-Sustained Ultrastable Porphyrins.
;
_journal_name_full               'Journal of the American Chemical Society'
_journal_paper_doi               10.1021/jacs.0c02311
_journal_year                    2020
_chemical_formula_moiety
'C96 H76 N8, C32 H20 N4 Zn, 8(F6 P), 4(C3 H6 O)'
_chemical_formula_sum            'C140 H120 F48 N12 O4 P8 Zn'
_chemical_formula_weight         3259.60
_space_group_crystal_system      triclinic
_space_group_IT_number           2
_space_group_name_Hall           '-P 1'
_space_group_name_H-M_alt        'P -1'
_atom_sites_solution_hydrogens   geom
_atom_sites_solution_primary     dual
_audit_creation_date             2019-09-20
_audit_creation_method
;
Olex2 1.2
(compiled 2018.05.29 svn.r3508 for OlexSys, GUI svn.r5506)
;
_cell_angle_alpha                108.894(8)
_cell_angle_beta                 106.654(8)
_cell_angle_gamma                102.130(8)
_cell_formula_units_Z            1
_cell_length_a                   14.6658(16)
_cell_length_b                   17.540(2)
_cell_length_c                   19.0390(19)
_cell_measurement_reflns_used    8249
_cell_measurement_temperature    299(2)
_cell_measurement_theta_max      58.915
_cell_measurement_theta_min      2.825
_cell_volume                     4184.0(9)
_computing_cell_refinement       'SAINT V8.34A (Bruker, 2017)'
_computing_data_collection       'APEX2 V2017.3 (Bruker, 2017)'
_computing_data_reduction        'Bruker SAINT'
_computing_molecular_graphics    'Olex2 (Dolomanov et al., 2009)'
_computing_publication_material  'Olex2 (Dolomanov et al., 2009)'
_computing_structure_refinement  'XL (Sheldrick, 2008)'
_computing_structure_solution    'ShelXT (Sheldrick, 2015)'
_diffrn_ambient_temperature      298.97
_diffrn_detector_area_resol_mean 8
_diffrn_measured_fraction_theta_full 0.929
_diffrn_measured_fraction_theta_max 0.929
_diffrn_measurement_device_type  'Bruker Kappa APEX CCD area detector'
_diffrn_measurement_method       '\w and \f scans'
_diffrn_radiation_monochromator  'MX optics'
_diffrn_radiation_type           CuK\a
_diffrn_radiation_wavelength     1.54178
_diffrn_reflns_av_R_equivalents  0.0678
_diffrn_reflns_av_unetI/netI     0.1044
_diffrn_reflns_Laue_measured_fraction_full 0.929
_diffrn_reflns_Laue_measured_fraction_max 0.929
_diffrn_reflns_limit_h_max       16
_diffrn_reflns_limit_h_min       -16
_diffrn_reflns_limit_k_max       19
_diffrn_reflns_limit_k_min       -19
_diffrn_reflns_limit_l_max       11
_diffrn_reflns_limit_l_min       -21
_diffrn_reflns_number            18658
_diffrn_reflns_point_group_measured_fraction_full 0.929
_diffrn_reflns_point_group_measured_fraction_max 0.929
_diffrn_reflns_theta_full        59.384
_diffrn_reflns_theta_max         59.384
_diffrn_reflns_theta_min         2.656
_diffrn_source                   microsource
_exptl_absorpt_coefficient_mu    1.845
_exptl_absorpt_correction_T_max  0.7516
_exptl_absorpt_correction_T_min  0.4206
_exptl_absorpt_correction_type   multi-scan
_exptl_absorpt_process_details
'SADABS-2016/2 (Bruker,2016/2) was used for absorption correction. wR2(int) was 0.1122 before and 0.0597 after correction. The Ratio of minimum to maximum transmission is 0.6972. The \l/2 correction factor is Not present.'
_exptl_crystal_colour            red
_exptl_crystal_colour_primary    red
_exptl_crystal_density_diffrn    1.294
_exptl_crystal_description       plate
_exptl_crystal_F_000             1658
_exptl_crystal_recrystallization_method
'The material was recrystallised from --- by as supplied'
_exptl_crystal_size_max          0.426
_exptl_crystal_size_mid          0.152
_exptl_crystal_size_min          0.016
_refine_diff_density_max         0.961
_refine_diff_density_min         -0.774
_refine_diff_density_rms         0.096
_refine_ls_extinction_method     none
_refine_ls_goodness_of_fit_ref   1.071
_refine_ls_hydrogen_treatment    constr
_refine_ls_matrix_type           full
_refine_ls_number_parameters     1011
_refine_ls_number_reflns         11339
_refine_ls_number_restraints     102
_refine_ls_restrained_S_all      1.077
_refine_ls_R_factor_all          0.1265
_refine_ls_R_factor_gt           0.0928
_refine_ls_shift/su_max          0.000
_refine_ls_shift/su_mean         0.000
_refine_ls_structure_factor_coef Fsqd
_refine_ls_weighting_details
'w=1/[\s^2^(Fo^2^)+(0.1557P)^2^+4.3299P] where P=(Fo^2^+2Fc^2^)/3'
_refine_ls_weighting_scheme      calc
_refine_ls_wR_factor_gt          0.2544
_refine_ls_wR_factor_ref         0.2863
_reflns_Friedel_coverage         0.000
_reflns_number_gt                7410
_reflns_number_total             11339
_reflns_threshold_expression     'I > 2\s(I)'
_cod_data_source_file            ja0c02311_si_003.cif
_cod_data_source_block           cx1631
_cod_database_code               4134789
_shelx_shelxl_version_number     2017/1
_shelx_space_group_comment
;
The symmetry employed for this shelxl refinement is uniquely defined
by the following loop, which should always be used as a source of
symmetry information in preference to the above space-group names.
They are only intended as comments.
;
_shelx_estimated_absorpt_t_max   0.971
_shelx_estimated_absorpt_t_min   0.507
_olex2_refinement_description
;
1. Fixed Uiso
 At 1.2 times of:
  All C(H) groups, All C(H,H) groups
 At 1.5 times of:
  All C(H,H,H) groups
2. Restrained distances
 F22A-F21A \\sim F22A-F23A \\sim F21A-F24A \\sim F24A-F23A
 with sigma of 0.02
 F24-F21 \\sim F24-F23 \\sim F21-F22 \\sim F23-F22
 with sigma of 0.02
 P4A-F20 \\sim P4A-F19 \\sim P4A-F22A \\sim P4A-F21A \\sim P4A-F24A \\sim
P4A-F23A
 with sigma of 0.01
 P4-F20 \\sim P4-F19 \\sim P4-F24 \\sim P4-F21 \\sim P4-F23 \\sim P4-F22
 with sigma of 0.01
3. Rigid body (RIGU) restrains
 P4, P4A, F21, F21A, F22, F22A, F23, F23A, F24, F24A
 with sigma for 1-2 distances of 0.001 and sigma for 1-3 distances of 0.001
4. Others
 Sof(P4A)=Sof(F21A)=Sof(F22A)=Sof(F23A)=Sof(F24A)=1-FVAR(1)
 Sof(P4)=Sof(F21)=Sof(F22)=Sof(F23)=Sof(F24)=FVAR(1)
5.a Secondary CH2 refined with riding coordinates:
 C12(H12A,H12B), C24(H24A,H24B), C41(H41A,H41B), C44(H44A,H44B)
5.b Aromatic/amide H refined with riding coordinates:
 C2(H2), C4(H4), C6(H6), C8(H8), C9(H9), C10(H10), C11(H11), C14(H14),
 C15(H15), C17(H17), C18(H18), C20(H20), C21(H21), C22(H22), C23(H23), C26(H26),
  C27(H27), C29(H29), C32(H32), C36(H36), C37(H37), C38(H38), C39(H39),
 C40(H40), C42(H42), C43(H43), C45(H45), C46(H46), C47(H47), C48(H48), C50(H50),
  C51(H51), C55(H55), C56(H56), C58(H58), C60(H60), C61(H61), C62(H62),
 C63(H63), C64(H64)
5.c Idealised Me refined as rotating group:
 C66(H66A,H66B,H66C), C67(H67A,H67B,H67C), C69(H69A,H69B,H69C), C70(H70A,H70B,
 H70C)
;
_shelx_res_file
;
TITL cx1631_a.res in P-1
    cx1631.res
    created by SHELXL-2017/1 at 14:10:07 on 20-Sep-2019
REM Old TITL cx1631 in P-1
REM SHELXT solution in P-1
REM R1 0.325, Rweak 0.030, Alpha 0.083, Orientation as input
REM Formula found by SHELXT: C184 N34 Zn
CELL 1.54178 14.6658 17.5399 19.039 108.8936 106.6544 102.1299
ZERR 1 0.0016 0.0023 0.0019 0.0076 0.0075 0.008
LATT 1
SFAC C H F N O P Zn
UNIT 140 120 48 12 4 8 1
SADI F22A F21A F22A F23A F21A F24A F24A F23A
SADI F24 F21 F24 F23 F21 F22 F23 F22
SADI 0.01 P4A F20 P4A F19 P4A F22A P4A F21A P4A F24A P4A F23A
SADI 0.01 P4 F20 P4 F19 P4 F24 P4 F21 P4 F23 P4 F22
RIGU 0.001 0.001 P4 P4A F21 > F24A

L.S. 10
PLAN  20
SIZE 0.016 0.152 0.426
TEMP 25.82
BOND $H
wpdb -2
conf
ABIN
fmap 2
acta
REM <olex2.extras>
REM <HklSrc "%.\\cx1631.hkl">
REM </olex2.extras>

WGHT    0.155700    4.329900
FVAR       0.07324   0.50512
N1    4    0.470823    0.423115    0.760074    11.00000    0.03144    0.07238 =
         0.02944    0.02535    0.01150    0.02835
N2    4    0.504707    0.762978    0.445913    11.00000    0.03123    0.05735 =
         0.02990    0.02056    0.01261    0.02029
N3    4   -0.184158    0.423640    0.068354    11.00000    0.03306    0.06822 =
         0.02381    0.01952    0.01097    0.02586
N4    4   -0.245713    0.066418    0.360282    11.00000    0.03785    0.05597 =
         0.03920    0.01932    0.01905    0.01297
C1    1    0.350818    0.455039    0.545447    11.00000    0.02559    0.05655 =
         0.02586    0.02006    0.00973    0.02442
C2    1    0.406528    0.518807    0.530864    11.00000    0.02159    0.05609 =
         0.02746    0.01750    0.00808    0.02041
AFIX  43
H2    2    0.473588    0.549327    0.565220    11.00000   -1.20000
AFIX   0
C3    1    0.364320    0.537665    0.466508    11.00000    0.02529    0.05619 =
         0.02295    0.01415    0.00722    0.01884
C4    1    0.263385    0.490415    0.415910    11.00000    0.02805    0.05781 =
         0.02463    0.01759    0.00647    0.02281
AFIX  43
H4    2    0.234242    0.502396    0.372254    11.00000   -1.20000
AFIX   0
C5    1    0.204751    0.426355    0.428025    11.00000    0.02903    0.06069 =
         0.02900    0.02436    0.01288    0.02462
C6    1    0.250175    0.408335    0.492766    11.00000    0.02742    0.05397 =
         0.02911    0.01906    0.01142    0.02235
AFIX  43
H6    2    0.213210    0.364590    0.501275    11.00000   -1.20000
AFIX   0
C7    1    0.395687    0.442772    0.619863    11.00000    0.02638    0.05778 =
         0.02807    0.01551    0.01420    0.02204
C8    1    0.359353    0.364170    0.623283    11.00000    0.03767    0.05353 =
         0.02834    0.01743    0.01301    0.02619
AFIX  43
H8    2    0.309794    0.318134    0.578134    11.00000   -1.20000
AFIX   0
C9    1    0.398343    0.355785    0.695119    11.00000    0.04576    0.06276 =
         0.03546    0.02532    0.01909    0.03145
AFIX  43
H9    2    0.374625    0.304062    0.698424    11.00000   -1.20000
AFIX   0
C10   1    0.508630    0.498109    0.757724    11.00000    0.02423    0.06977 =
         0.03218    0.02110    0.00971    0.01914
AFIX  43
H10   2    0.559754    0.542674    0.803120    11.00000   -1.20000
AFIX   0
C11   1    0.471616    0.509338    0.687688    11.00000    0.03036    0.06716 =
         0.02986    0.02625    0.01178    0.01996
AFIX  43
H11   2    0.497663    0.561587    0.686055    11.00000   -1.20000
AFIX   0
C12   1    0.503007    0.416711    0.839708    11.00000    0.03753    0.07951 =
         0.02586    0.02987    0.01030    0.03599
AFIX  23
H12A  2    0.573840    0.450052    0.871120    11.00000   -1.20000
H12B  2    0.493758    0.357641    0.831582    11.00000   -1.20000
AFIX   0
C13   1    0.438578    0.450767    0.883747    11.00000    0.04060    0.08848 =
         0.01904    0.03532    0.01000    0.03924
C14   1    0.354088    0.394205    0.879599    11.00000    0.04387    0.06868 =
         0.03479    0.02771    0.01343    0.03291
AFIX  43
H14   2    0.338781    0.335613    0.852747    11.00000   -1.20000
AFIX   0
C15   1    0.291740    0.425621    0.916032    11.00000    0.03694    0.08975 =
         0.03883    0.03837    0.01438    0.02896
AFIX  43
H15   2    0.234363    0.387902    0.913153    11.00000   -1.20000
AFIX   0
C16   1    0.314878    0.511557    0.955836    11.00000    0.03462    0.07446 =
         0.02390    0.02780    0.00827    0.03209
C17   1    0.401337    0.569224    0.962320    11.00000    0.04474    0.06869 =
         0.03030    0.03248    0.01780    0.03376
AFIX  43
H17   2    0.417730    0.627811    0.990115    11.00000   -1.20000
AFIX   0
C18   1    0.463054    0.535850    0.925396    11.00000    0.03635    0.08087 =
         0.02455    0.03144    0.00791    0.02633
AFIX  43
H18   2    0.521892    0.573020    0.929693    11.00000   -1.20000
AFIX   0
C19   1    0.419969    0.611580    0.456268    11.00000    0.03018    0.05690 =
         0.03299    0.02161    0.01377    0.02541
C20   1    0.503805    0.675715    0.518614    11.00000    0.03472    0.05873 =
         0.02787    0.02043    0.00809    0.01796
AFIX  43
H20   2    0.533421    0.668512    0.565161    11.00000   -1.20000
AFIX   0
C21   1    0.543529    0.749913    0.512177    11.00000    0.02958    0.06398 =
         0.03384    0.01776    0.00998    0.01939
AFIX  43
H21   2    0.599367    0.792742    0.555241    11.00000   -1.20000
AFIX   0
C22   1    0.427859    0.697882    0.381578    11.00000    0.03224    0.06628 =
         0.02614    0.02482    0.01080    0.02485
AFIX  43
H22   2    0.403622    0.705027    0.334168    11.00000   -1.20000
AFIX   0
C23   1    0.384423    0.621669    0.383841    11.00000    0.02754    0.05440 =
         0.02149    0.01336    0.00540    0.01557
AFIX  43
H23   2    0.332609    0.577620    0.338499    11.00000   -1.20000
AFIX   0
C24   1    0.531393    0.850471    0.449182    11.00000    0.04113    0.05290 =
         0.03819    0.02545    0.02051    0.02271
AFIX  23
H24A  2    0.511035    0.848569    0.395295    11.00000   -1.20000
H24B  2    0.603728    0.879534    0.476676    11.00000   -1.20000
AFIX   0
C25   1    0.476675    0.896335    0.493993    11.00000    0.03570    0.03492 =
         0.03976    0.02110    0.01465    0.01024
C26   1    0.521187    0.938936    0.575916    11.00000    0.03429    0.04706 =
         0.03335    0.01292    0.00709    0.01786
AFIX  43
H26   2    0.587420    0.943844    0.602880    11.00000   -1.20000
AFIX   0
C27   1    0.466768    0.975234    0.619236    11.00000    0.04042    0.05534 =
         0.03541    0.02054    0.01423    0.01269
AFIX  43
H27   2    0.497134    1.004886    0.674823    11.00000   -1.20000
AFIX   0
C28   1    0.368354    0.966735    0.579085    11.00000    0.03476    0.04270 =
         0.04372    0.01778    0.01877    0.00953
C29   1    0.324450    0.926611    0.497067    11.00000    0.04025    0.05934 =
         0.04340    0.02447    0.02219    0.01991
AFIX  43
H29   2    0.259379    0.924339    0.470212    11.00000   -1.20000
AFIX   0
C30   1   -0.047845    0.352412    0.254235    11.00000    0.02543    0.06024 =
         0.02371    0.01618    0.00790    0.01933
C31   1   -0.066905    0.269067    0.330681    11.00000    0.02521    0.05150 =
         0.02691    0.01504    0.00778    0.01448
C32   1   -0.105777    0.289810    0.266380    11.00000    0.02424    0.06517 =
         0.02759    0.02031    0.00930    0.01828
AFIX  43
H32   2   -0.172593    0.260470    0.230898    11.00000   -1.20000
AFIX   0
C33   1    0.095662    0.378291    0.372356    11.00000    0.03354    0.06029 =
         0.02293    0.01849    0.01161    0.02774
C34   1   -0.091611    0.376496    0.186929    11.00000    0.03466    0.06371 =
         0.03001    0.02679    0.01721    0.03017
C35   1   -0.129537    0.198895    0.341570    11.00000    0.03395    0.05898 =
         0.02810    0.01700    0.01564    0.01925
C36   1   -0.056017    0.458440    0.193662    11.00000    0.03274    0.06463 =
         0.02384    0.01533    0.00860    0.02593
AFIX  43
H36   2   -0.000057    0.498227    0.238745    11.00000   -1.20000
AFIX   0
C37   1    0.377751    0.888794    0.453369    11.00000    0.04222    0.04853 =
         0.03584    0.01923    0.01584    0.01757
AFIX  43
H37   2    0.347089    0.859016    0.397805    11.00000   -1.20000
AFIX   0
C38   1    0.052428    0.396294    0.306784    11.00000    0.03031    0.05319 =
         0.03290    0.02424    0.01237    0.01850
AFIX  43
H38   2    0.091515    0.438614    0.297963    11.00000   -1.20000
AFIX   0
C39   1    0.034052    0.313977    0.383137    11.00000    0.03121    0.05612 =
         0.02201    0.01966    0.00577    0.01429
AFIX  43
H39   2    0.060913    0.300666    0.426384    11.00000   -1.20000
AFIX   0
C40   1   -0.216931    0.344096    0.058946    11.00000    0.04057    0.06283 =
         0.02422    0.01513    0.00696    0.01918
AFIX  43
H40   2   -0.271634    0.305093    0.012477    11.00000   -1.20000
AFIX   0
C41   1    0.310687    1.004685    0.628749    11.00000    0.05329    0.04445 =
         0.05197    0.01885    0.03023    0.02201
AFIX  23
H41A  2    0.357801    1.048667    0.680697    11.00000   -1.20000
H41B  2    0.268649    1.030357    0.601270    11.00000   -1.20000
AFIX   0
C42   1   -0.102296    0.482598    0.134273    11.00000    0.03718    0.07021 =
         0.03604    0.02817    0.01818    0.03087
AFIX  43
H42   2   -0.077959    0.538272    0.139190    11.00000   -1.20000
AFIX   0
C43   1   -0.172497    0.316474    0.116149    11.00000    0.03321    0.07153 =
         0.03033    0.02252    0.00599    0.02066
AFIX  43
H43   2   -0.195655    0.259472    0.107923    11.00000   -1.20000
AFIX   0
C44   1   -0.241082    0.454376    0.011008    11.00000    0.03827    0.06084 =
         0.02675    0.02284    0.01246    0.02516
AFIX  23
H44A  2   -0.277628    0.407824   -0.041825    11.00000   -1.20000
H44B  2   -0.194947    0.499352    0.006470    11.00000   -1.20000
AFIX   0
C45   1   -0.289098    0.095942    0.307291    11.00000    0.03816    0.08730 =
         0.04684    0.02953    0.00799   -0.00052
AFIX  43
H45   2   -0.358014    0.070949    0.276533    11.00000   -1.20000
AFIX   0
C46   1   -0.233763    0.161965    0.297843    11.00000    0.03983    0.08733 =
         0.04532    0.04057    0.00976    0.01226
AFIX  43
H46   2   -0.265606    0.182657    0.261983    11.00000   -1.20000
AFIX   0
C47   1   -0.147228    0.101265    0.404494    11.00000    0.04493    0.08822 =
         0.06314    0.05241    0.02643    0.03271
AFIX  43
H47   2   -0.117640    0.080669    0.441282    11.00000   -1.20000
AFIX   0
C48   1   -0.089347    0.167033    0.396210    11.00000    0.02801    0.08834 =
         0.05838    0.04771    0.01284    0.02170
AFIX  43
H48   2   -0.020792    0.191126    0.428309    11.00000   -1.20000
AFIX   0

ZN1   7    0.000000    0.500000    0.500000    10.50000    0.03692    0.06918 =
         0.04973    0.00487    0.01916    0.02132
N5    4    0.124835    0.597529    0.519023    11.00000    0.04412    0.06594 =
         0.04897    0.00140    0.02154    0.02423
N6    4   -0.082927    0.524938    0.408683    11.00000    0.03669    0.08158 =
         0.06005    0.00960    0.02644    0.02538
C49   1    0.216214    0.621992    0.577589    11.00000    0.05217    0.05788 =
         0.05035    0.00718    0.02512    0.02524
C50   1    0.284499    0.691870    0.573282    11.00000    0.04638    0.08140 =
         0.05353    0.00103    0.02099    0.02745
AFIX  43
H50   2    0.351970    0.721183    0.607135    11.00000   -1.20000
AFIX   0
C51   1    0.231672    0.706357    0.510869    11.00000    0.05874    0.06682 =
         0.05206    0.00265    0.02400    0.02641
AFIX  43
H51   2    0.255409    0.747138    0.493176    11.00000   -1.20000
AFIX   0
C52   1    0.128175    0.643970    0.476383    11.00000    0.04645    0.07145 =
         0.04735    0.00367    0.02250    0.02807
C53   1    0.049288    0.641526    0.413105    11.00000    0.04028    0.07583 =
         0.04947    0.00677    0.02460    0.02262
C54   1   -0.050138    0.586296    0.382228    11.00000    0.04904    0.06273 =
         0.05420    0.00777    0.03099    0.02523
C55   1   -0.135073    0.579316    0.315587    11.00000    0.05092    0.08666 =
         0.05511    0.01916    0.02745    0.03625
AFIX  43
H55   2   -0.134933    0.614283    0.287849    11.00000   -1.20000
AFIX   0
C56   1   -0.214111    0.513112    0.301143    11.00000    0.03487    0.07766 =
         0.05295    0.00437    0.01927    0.01833
AFIX  43
H56   2   -0.277633    0.493040    0.260382    11.00000   -1.20000
AFIX   0
C57   1   -0.183360    0.478910    0.359518    11.00000    0.02939    0.07624 =
         0.04592    0.00403    0.01377    0.02312
C58   1   -0.243024    0.411329    0.365524    11.00000    0.02163    0.07942 =
         0.05289    0.00133    0.01447    0.01587
AFIX  43
H58   2   -0.308679    0.384984    0.327209    11.00000   -1.20000
AFIX   0
C59   1    0.071019    0.700560    0.373805    11.00000    0.04398    0.08353 =
         0.04859    0.00322    0.01391    0.02423
C60   1    0.131700    0.688796    0.327945    11.00000    0.04886    0.09331 =
         0.04195    0.00266    0.01351    0.01853
AFIX  43
H60   2    0.158442    0.644626    0.323208    11.00000   -1.20000
AFIX   0
C61   1    0.151538    0.740563    0.290881    11.00000    0.05889    0.10688 =
         0.05237    0.02442    0.02079    0.01842
AFIX  43
H61   2    0.192003    0.731724    0.261385    11.00000   -1.20000
AFIX   0
C62   1    0.112122    0.806955    0.296330    11.00000    0.07954    0.11458 =
         0.05646    0.03347   -0.00469   -0.00163
AFIX  43
H62   2    0.125389    0.841832    0.270104    11.00000   -1.20000
AFIX   0
C63   1    0.052343    0.820668    0.341671    11.00000    0.08115    0.11734 =
         0.06964    0.03489    0.02015    0.03265
AFIX  43
H63   2    0.026655    0.865455    0.346524    11.00000   -1.20000
AFIX   0
C64   1    0.031762    0.767952    0.378886    11.00000    0.07269    0.07111 =
         0.06189    0.01040    0.02659    0.02508
AFIX  43
H64   2   -0.008992    0.776880    0.408112    11.00000   -1.20000
AFIX   0

P1    6    0.402906    0.791478    0.191299    11.00000    0.06238    0.05569 =
         0.02952    0.01270    0.01568    0.01519
F1    3    0.432462    0.740411    0.119557    11.00000    0.08915    0.05253 =
         0.03418    0.00960    0.02317    0.02821
F2    3    0.375129    0.842204    0.263843    11.00000    0.08296    0.06022 =
         0.04635    0.00498    0.03141    0.01587
F3    3    0.470211    0.879922    0.198292    11.00000    0.08716    0.05878 =
         0.04761    0.01180    0.03171    0.01043
F4    3    0.306504    0.792177    0.128897    11.00000    0.07808    0.11218 =
         0.04852    0.00952    0.00839    0.04423
F5    3    0.340268    0.702380    0.186124    11.00000    0.12584    0.07254 =
         0.07992    0.02202    0.05769    0.01270
F6    3    0.501246    0.789579    0.255585    11.00000    0.09532    0.11836 =
         0.03585    0.03424    0.02051    0.05030
P2    6    0.201894    0.453788    0.159004    11.00000    0.04031    0.07312 =
         0.02792    0.02113    0.01431    0.02287
F7    3    0.236635    0.399878    0.092818    11.00000    0.08038    0.10411 =
         0.05202    0.01168    0.03935    0.03764
F8    3    0.168419    0.508487    0.227043    11.00000    0.04368    0.06943 =
         0.03508    0.02516    0.01901    0.02817
F9    3    0.295025    0.538684    0.186132    11.00000    0.04528    0.08789 =
         0.06524    0.04360    0.02999    0.02789
F10   3    0.132713    0.478511    0.095958    11.00000    0.05752    0.13947 =
         0.04768    0.05450    0.02205    0.04309
F11   3    0.110567    0.371153    0.135940    11.00000    0.05070    0.07239 =
         0.05109    0.01143    0.01193    0.00963
F12   3    0.271570    0.429381    0.224615    11.00000    0.05207    0.06971 =
         0.05451    0.02932    0.01458    0.02877
P3    6    0.443360    0.757333    0.875094    11.00000    0.05904    0.09958 =
         0.06000    0.03283    0.01210    0.01114
F13   3    0.449571    0.742983    0.789560    11.00000    0.10735    0.20467 =
         0.06194    0.02006    0.02217   -0.05258
F14   3    0.437302    0.771438    0.958585    11.00000    0.08478    0.14852 =
         0.06677    0.05434    0.01188    0.01421
F15   3    0.537418    0.841471    0.914204    11.00000    0.06764    0.09356 =
         0.08636    0.04605    0.01194    0.00604
F16   3    0.368320    0.807811    0.860526    11.00000    0.07713    0.18754 =
         0.17175    0.13077    0.02820    0.04557
F17   3    0.349786    0.671508    0.835543    11.00000    0.10813    0.13396 =
         0.08124    0.00351    0.04462   -0.03276
F18   3    0.518108    0.707700    0.891682    11.00000    0.15912    0.11172 =
         0.29715    0.10500    0.14508    0.06051
PART 1
P4    6    0.166166    0.112535    0.480668    21.00000    0.03471    0.07647 =
         0.13103    0.05784    0.03770    0.03800
PART 0
PART 2
P4A   6    0.154775    0.122055    0.488721   -21.00000    0.04219    0.10716 =
         0.17697    0.08143    0.05483    0.05190
PART 0
F19   3    0.066406    0.070628    0.401237    11.00000    0.05805    0.15302 =
         0.16707    0.08440    0.03304    0.05732
F20   3    0.256417    0.161765    0.567488    11.00000    0.05910    0.07927 =
         0.15149    0.06136    0.03599    0.03837
PART 1
F21   3    0.081012    0.128393    0.515165    21.00000    0.05690    0.14289 =
         0.10412    0.06056    0.03613    0.07162
PART 0
PART 2
F21A  3    0.139288    0.211642    0.525473   -21.00000    0.04138    0.10373 =
         0.10759    0.04322    0.01438    0.04085
PART 0
PART 1
F22   3    0.169675    0.194541    0.459570    21.00000    0.09142    0.07440 =
         0.08733    0.04020    0.00572    0.02584
PART 0
PART 2
F22A  3    0.235271    0.168110    0.461950   -21.00000    0.05306    0.12280 =
         0.08638    0.04424    0.02196    0.02725
PART 0
PART 1
F23   3    0.228344    0.084833    0.425802    21.00000    0.05116    0.12954 =
         0.10988    0.05505    0.03564    0.04725
PART 0
PART 2
F23A  3    0.196787    0.045194    0.474114   -21.00000    0.08584    0.10415 =
         0.11340    0.04052    0.01364    0.06060
PART 0
PART 1
F24   3    0.142655    0.020778    0.484020    21.00000    0.06180    0.05912 =
         0.10041    0.02980    0.01780    0.01581
PART 0
PART 2
F24A  3    0.100659    0.089563    0.539525   -21.00000    0.07547    0.11421 =
         0.17558    0.06260    0.06057    0.01145

PART 0
O1    5    0.375797    0.323644    0.310767    11.00000    0.08045    0.12097 =
         0.07313    0.05791   -0.01474   -0.00067
C65   1    0.297881    0.271448    0.256695    11.00000    0.08639    0.08655 =
         0.07683    0.02802    0.01402    0.04073
C66   1    0.283771    0.236874    0.166539    11.00000    0.09547    0.11813 =
         0.09445    0.03274    0.03737    0.04554
AFIX 137
H66A  2    0.228128    0.248928    0.136462    11.00000   -1.50000
H66B  2    0.270276    0.176220    0.145954    11.00000   -1.50000
H66C  2    0.344212    0.264167    0.161639    11.00000   -1.50000
AFIX   0
C67   1    0.204093    0.241497    0.267290    11.00000    0.10070    0.14297 =
         0.14404    0.02268    0.07163    0.04431
AFIX 137
H67A  2    0.217708    0.258271    0.323528    11.00000   -1.50000
H67B  2    0.176142    0.180317    0.239957    11.00000   -1.50000
H67C  2    0.156774    0.266216    0.245352    11.00000   -1.50000
AFIX   0

O2    5   -0.060431    0.661803    0.109398    11.00000    0.05078    0.08763 =
         0.06004    0.02901    0.02525    0.01693
C68   1   -0.005446    0.689213    0.080788    11.00000    0.05549    0.07746 =
         0.04754    0.01593    0.02095    0.01051
C69   1    0.065290    0.645367    0.059848    11.00000    0.04866    0.18031 =
         0.08968   -0.01199    0.03313    0.02290
AFIX 137
H69A  2    0.132278    0.676916    0.099889    11.00000   -1.50000
H69B  2    0.064658    0.642115    0.008388    11.00000   -1.50000
H69C  2    0.044712    0.588693    0.057713    11.00000   -1.50000
AFIX   0
C70   1   -0.003283    0.765942    0.065227    11.00000    0.21593    0.10042 =
         0.08696    0.03424    0.05711    0.02138
AFIX 137
H70A  2   -0.053356    0.750508    0.013123    11.00000   -1.50000
H70B  2    0.062287    0.791855    0.066908    11.00000   -1.50000
H70C  2   -0.017363    0.805751    0.105451    11.00000   -1.50000
AFIX   0
HKLF 4




REM  cx1631_a.res in P-1
REM R1 =  0.0928 for    7410 Fo > 4sig(Fo)  and  0.1265 for all   11339 data
REM   1011 parameters refined using    102 restraints

END

WGHT      0.1556      4.3273

REM Highest difference peak  0.961,  deepest hole -0.774,  1-sigma level  0.096
Q1    1   0.0587  0.5752  0.5337  11.00000  0.05    0.96
Q2    1   0.4647  0.7111  0.8397  11.00000  0.05    0.66
Q3    1  -0.0064  0.4488  0.4672  11.00000  0.05    0.63
Q4    1  -0.0725  0.4796  0.4416  11.00000  0.05    0.61
Q5    1   0.4204  0.8519  0.2296  11.00000  0.05    0.58
Q6    1   0.4617  0.8134  0.1607  11.00000  0.05    0.56
Q7    1   0.4566  0.2963  0.3011  11.00000  0.05    0.56
Q8    1   0.0898  0.5321  0.4877  11.00000  0.05    0.54
Q9    1   0.3710  0.7262  0.1543  11.00000  0.05    0.51
Q10   1  -0.0305  0.5326  0.4481  11.00000  0.05    0.50
Q11   1   0.3583  0.7663  0.2326  11.00000  0.05    0.48
Q12   1   0.1711  0.3944  0.1248  11.00000  0.05    0.48
Q13   1   0.4824  0.7669  0.4206  11.00000  0.05    0.48
Q14   1   0.5583  1.0791  0.7128  11.00000  0.05    0.46
Q15   1   0.3943  0.6365  0.8207  11.00000  0.05    0.46
Q16   1   0.2635  0.4755  0.1334  11.00000  0.05    0.45
Q17   1   0.3460  0.7252  0.8137  11.00000  0.05    0.45
Q18   1   0.2480  0.5232  0.1877  11.00000  0.05    0.43
Q19   1   0.1605  0.3967  0.4231  11.00000  0.05    0.43
Q20   1   0.1926  0.5693  0.2675  11.00000  0.05    0.42
;
_shelx_res_checksum              43194
_shelx_hkl_file
;
  -1   0   0   19.24    1.40
   1   0   0   18.51    1.40
  -2   0   0   14.54    1.18
   2   0   0   14.09    1.17
  -3   0   0  133.78    9.21
   3   0   0  115.33    9.17
   3   0   0  133.05    9.21
  -4   0   0    9.67    1.06
   4   0   0   10.70    1.05
  -5   0   0    9.80    1.36
  -5   0   0   10.12    1.10
   5   0   0    9.70    1.06
  -6   0   0    2.40    0.85
   6   0   0    2.60    0.83
   7   0   0    9.92    1.28
   8   0   0    6.04    1.07
   9   0   0    1.97    0.79
   9   0   0    1.39    0.20
  10   0   0    1.01    0.73
  11   0   0    4.39    0.98
  12   0   0    0.20    0.07
  13   0   0    1.45    0.23
  14   0   0    0.19    0.06
  14  -1   0    1.18    0.20
  13  -1   0    5.41    0.45
  12  -1   0    3.82    0.90
  11  -1   0    0.93    0.72
  10  -1   0   23.36    1.73
  10  -1   0   25.11    2.32
   9  -1   0    1.23    0.80
   9  -1   0    0.80    0.20
   8  -1   0    1.52    0.76
   7  -1   0    2.32    0.85
   6  -1   0    1.83    0.68
  -6   1   0    1.18    0.43
   5  -1   0    8.42    0.99
  -5   1   0    7.92    1.27
  -5   1   0    8.23    0.97
   4  -1   0    0.16    0.42
  -4   1   0   -0.05    0.28
   3  -1   0  202.28   13.38
   3  -1   0  180.40   13.50
   3  -1   0  179.36   13.51
  -3   1   0  191.00   13.50
   2  -1   0   16.19    1.37
   2  -1   0   18.67    1.27
  -2   1   0   17.49    1.37
   1  -1   0   77.30    5.62
  -1   1   0   79.76    5.61
   0  -1   0   79.53    5.67
  -1  -1   0    0.28    0.22
  -2  -1   0   32.65    2.48
  -3  -1   0   69.39    5.13
  -4  -1   0    1.91    0.62
   4   1   0    1.75    0.59
  -5  -1   0    6.25    0.89
   5   1   0    6.44    0.88
   6   1   0    1.01    0.60
   7   1   0   -0.05    0.54
   8   1   0    0.87    0.64
   9   1   0    5.15    0.42
   9   1   0    5.65    1.02
  10   1   0    1.22    0.80
  11   1   0    5.59    1.16
  12   1   0    0.12    0.07
  13   1   0    0.84    0.20
  14   1   0    0.03    0.06
  15  -2   0    1.72    0.20
 -15   2   0    1.53    0.25
  14  -2   0    0.06    0.06
  13  -2   0    1.91    0.25
  12  -2   0    5.30    1.11
  11  -2   0    2.88    1.09
  10  -2   0    3.07    0.31
  10  -2   0    3.59    1.16
   9  -2   0    2.89    0.95
   8  -2   0    6.35    1.14
   7  -2   0    0.48    0.59
   6  -2   0    1.16    0.63
  -6   2   0    0.66    0.37
   5  -2   0    0.76    0.49
  -5   2   0    0.46    0.31
  -5   2   0    0.74    0.57
   4  -2   0    2.06    0.70
   4  -2   0    2.07    0.34
  -4   2   0    2.03    0.63
   3  -2   0   23.38    2.05
   3  -2   0   26.95    1.88
   3  -2   0   25.80    2.10
  -3   2   0   26.59    2.05
   2  -2   0    9.32    0.87
  -2   2   0   10.13    0.86
   1  -2   0   88.32    6.76
  -1   2   0  100.82    6.76
  -1  -2   0   12.18    1.27
   1   2   0   13.89    1.15
  -2  -2   0  232.93   15.54
   2   2   0  199.69   15.40
  -3  -2   0    0.47    0.31
  -3  -2   0    0.26    0.52
   3   2   0    0.39    0.35
  -4  -2   0   24.65    2.29
  -4  -2   0   25.88    2.45
  -4  -2   0   27.52    2.19
   4   2   0   27.02    2.08
  -5  -2   0    0.92    0.41
   5   2   0    0.87    0.52
   6   2   0    9.63    1.11
   7   2   0    7.86    1.03
   8   2   0    0.37    0.64
   9   2   0    1.04    0.76
  10   2   0    2.85    0.30
  10   2   0    4.00    1.06
  11   2   0    7.60    0.61
  11   2   0    9.16    1.23
  12   2   0    1.29    0.23
  13   2   0    0.02    0.06
  14   2   0    0.04    0.06
  15  -3   0    0.05    0.05
 -15   3   0    0.05    0.14
  14  -3   0    0.02    0.05
  13  -3   0    5.09    0.43
  12  -3   0    2.75    1.05
  11  -3   0   14.12    1.78
  11  -3   0   12.54    0.96
  10  -3   0    1.83    0.78
   9  -3   0    1.95    0.85
   8  -3   0    8.23    1.24
   7  -3   0   14.69    1.59
   6  -3   0    6.67    1.07
  -6   3   0    7.04    0.96
  -6   3   0    8.60    1.44
   5  -3   0    2.14    0.76
   5  -3   0    2.68    0.37
  -5   3   0    2.17    0.81
  -5   3   0    2.81    0.63
   4  -3   0   37.78    2.66
   4  -3   0   37.35    2.90
  -4   3   0   34.03    2.92
  -4   3   0   37.48    2.82
   3  -3   0  134.56    9.65
   3  -3   0  125.43    9.62
  -3   3   0  140.11    9.61
   2  -3   0   26.00    2.14
  -2   3   0   29.85    2.12
   1  -3   0  181.52   12.85
  -1   3   0  201.71   12.87
  -1   3   0  157.35   12.86
  -1  -3   0   14.23    1.69
   1   3   0   16.57    1.30
  -2  -3   0   -0.05    0.60
   2   3   0   -0.06    0.36
  -3  -3   0    2.88    1.69
  -3  -3   0    3.46    0.99
   3   3   0    2.96    0.57
  -4  -3   0    2.71    0.74
   4   3   0    2.28    0.64
   5   3   0   11.22    0.87
   5   3   0   13.20    1.24
   6   3   0    0.99    0.22
   6   3   0    1.43    0.64
   7   3   0    6.70    1.05
   7   3   0    7.26    0.57
   8   3   0    0.45    0.68
   9   3   0    1.34    0.22
   9   3   0    1.84    0.81
  10   3   0    4.63    0.40
  10   3   0    4.76    1.08
  11   3   0    0.11    0.07
  12   3   0    2.61    0.29
  13   3   0    0.02    0.07
  15  -4   0    0.04    0.05
 -15   4   0    0.19    0.13
  14  -4   0    3.77    0.34
  13  -4   0    1.69    0.24
  12  -4   0    3.40    1.25
  11  -4   0    4.34    1.20
  10  -4   0    5.14    1.21
   9  -4   0    1.04    0.76
   8  -4   0    1.16    0.75
   7  -4   0   32.69    2.83
   6  -4   0   57.58    4.07
   6  -4   0   57.79    4.40
  -6   4   0   52.63    4.43
   5  -4   0   -0.08    0.21
   5  -4   0    0.19    0.52
  -5   4   0   -0.01    0.58
  -5   4   0   -0.06    0.26
   4  -4   0   48.83    3.83
   4  -4   0   53.31    3.63
  -4   4   0   47.53    3.87
  -4   4   0   50.98    3.76
   3  -4   0   36.73    2.91
   3  -4   0   35.74    2.88
  -3   4   0   40.36    2.83
  -3   4   0   36.86    2.97
   2  -4   0    2.44    0.59
   2  -4   0    3.31    1.07
  -2   4   0    3.07    0.88
  -2   4   0    3.16    0.59
  -2   4   0    1.38    0.52
   1  -4   0  139.59   10.08
  -1   4   0  145.80   10.14
  -1   4   0  137.20   10.14
   0  -4   0   20.56    1.66
   0   4   0   19.35    1.57
  -1  -4   0    1.10    0.56
   1   4   0    0.81    0.41
  -2  -4   0   31.47    2.92
   2   4   0   38.65    2.66
  -3  -4   0   43.10    4.23
   3   4   0   51.16    3.57
  -4  -4   0    7.13    1.72
   4   4   0    6.89    0.91
   4   4   0    7.65    0.62
   5   4   0    7.07    0.56
   5   4   0    7.31    0.96
   6   4   0    2.24    0.68
   6   4   0    1.81    0.25
   7   4   0   21.73    1.58
   7   4   0   20.50    1.94
   7   4   0   23.26    1.60
   8   4   0   10.13    1.32
   8   4   0   11.30    0.81
   9   4   0    7.70    0.57
   9   4   0    5.37    1.21
  10   4   0    1.59    0.24
  10   4   0    0.61    0.85
  11   4   0    0.07    0.07
  12   4   0    1.06    0.25
  13   4   0    0.16    0.07
  15  -5   0    0.81    0.17
 -15   5   0    0.73    0.16
  14  -5   0    4.85    0.41
  13  -5   0   13.08    0.97
  12  -5   0    7.42    1.48
  11  -5   0    0.03    0.73
  10  -5   0    0.29    0.69
   9  -5   0    2.60    0.95
   8  -5   0    0.04    0.63
   7  -5   0    1.92    0.39
   7  -5   0    1.76    0.74
   6  -5   0    7.59    1.20
   6  -5   0    7.83    0.73
  -6   5   0    6.92    1.28
   5  -5   0    1.64    0.62
   5  -5   0    2.03    0.38
  -5   5   0    1.19    0.37
  -5   5   0    1.72    0.71
   4  -5   0    0.24    0.47
  -4   5   0    0.14    0.27
  -4   5   0    0.15    0.59
   3  -5   0    8.38    1.00
   3  -5   0    6.10    0.88
  -3   5   0    8.37    1.09
  -3   5   0    7.41    0.86
  -3   5   0    8.25    0.80
   2  -5   0   11.27    1.09
   2  -5   0    8.46    0.96
  -2   5   0   11.29    1.17
  -2   5   0   10.08    1.00
   1  -5   0    6.23    0.84
   1  -5   0    5.20    0.64
  -1   5   0    4.35    0.91
  -1   5   0    5.54    0.74
   0  -5   0    3.83    0.85
   0  -5   0    2.78    0.64
   0   5   0    2.00    0.55
   0   5   0    2.53    0.53
  -1  -5   0    3.76    1.05
  -1  -5   0    2.58    0.90
   1   5   0    2.71    0.71
   1   5   0    3.84    0.57
  -2  -5   0   22.84    2.60
   2   5   0   30.41    2.13
   3   5   0    4.94    0.79
   3   5   0    4.16    0.39
   4   5   0    7.42    0.95
   4   5   0    6.57    0.53
   5   5   0    3.33    0.84
   5   5   0    3.55    0.34
   6   5   0   45.64    3.10
   6   5   0   40.48    3.36
   7   5   0    0.29    0.70
   8   5   0    2.23    0.25
   8   5   0    1.29    0.85
   9   5   0   -0.75    0.85
  10   5   0    0.77    0.24
  11   5   0    5.83    0.51
  12   5   0    0.23    0.08
  15  -6   0    0.00    0.05
  14  -6   0    0.01    0.05
  13  -6   0    1.03    0.25
 -13   6   0    2.44    0.60
  12  -6   0    0.70    0.78
 -12   6   0    0.74    0.45
  11  -6   0    0.60    0.86
  10  -6   0    0.55    0.77
   9  -6   0    0.87    0.69
   8  -6   0    2.04    0.40
   8  -6   0    1.14    0.72
   7  -6   0    2.73    0.95
   7  -6   0    1.88    0.40
   6  -6   0    2.64    0.96
   6  -6   0    2.73    0.50
  -6   6   0    3.12    1.13
   5  -6   0    0.01    0.51
   5  -6   0    0.17    0.27
  -5   6   0    0.39    0.73
   4  -6   0    0.50    0.57
  -4   6   0    0.22    0.30
  -4   6   0    0.90    0.70
   3  -6   0    4.79    0.86
  -3   6   0    4.49    0.95
  -3   6   0    3.93    0.70
  -3   6   0    3.37    0.85
   2  -6   0    4.43    0.78
   2  -6   0    2.69    0.60
  -2   6   0    3.22    0.78
  -2   6   0    3.95    0.80
   1  -6   0   21.70    1.67
   1  -6   0   20.33    1.71
  -1   6   0   16.76    1.61
   0  -6   0    1.52    0.73
   0   6   0    1.29    0.44
  -1  -6   0    8.23    1.37
   1   6   0    8.26    0.88
   2   6   0    0.66    0.53
   3   6   0   14.96    1.11
   3   6   0   15.44    1.40
   4   6   0    7.09    0.55
   4   6   0    5.78    0.99
   5   6   0    0.51    0.73
   5   6   0    1.36    0.26
   6   6   0    8.45    0.63
   6   6   0    7.41    1.19
   6   6   0    8.72    0.67
   7   6   0    0.01    0.84
   7   6   0    0.36    0.12
   8   6   0    7.11    0.56
   9   6   0    0.90    0.27
  10   6   0    2.41    0.32
  11   6   0    0.28    0.09
  12   6   0    0.12    0.08
  15  -7   0    0.01    0.05
  14  -7   0    1.64    0.24
 -14   7   0    3.49    0.78
 -13   7   0    1.98    0.45
  12  -7   0    1.03    0.91
 -12   7   0   -0.32    0.45
  11  -7   0    4.61    1.33
  10  -7   0    0.26    0.09
  10  -7   0    0.72    0.83
   9  -7   0    0.98    0.80
   8  -7   0    2.04    0.45
   8  -7   0    2.46    0.91
   7  -7   0    0.29    0.71
   7  -7   0   -0.01    0.29
   6  -7   0    3.66    0.57
   6  -7   0    4.15    1.06
   5  -7   0    4.15    1.05
  -5   7   0    4.17    1.36
   4  -7   0    9.73    1.30
  -4   7   0   10.51    1.47
   3  -7   0    1.54    0.64
  -3   7   0    1.27    0.68
   2  -7   0   18.37    1.62
  -2   7   0   15.36    1.55
   1  -7   0   43.60    3.13
  -1   7   0   35.19    3.00
   0  -7   0    5.92    1.33
   0   7   0    3.84    0.74
   1   7   0    5.74    0.83
   2   7   0    2.39    0.70
   3   7   0    4.08    0.38
   3   7   0    3.92    0.83
   4   7   0   28.18    2.29
   4   7   0   27.23    1.99
   5   7   0    7.08    0.57
   5   7   0    7.01    1.12
   5   7   0    8.05    0.61
   6   7   0   -0.07    0.11
   6   7   0    0.04    0.06
   6   7   0   -0.89    0.76
   7   7   0   -0.36    0.87
   8   7   0    0.25    0.09
   9   7   0    0.97    0.30
  10   7   0    2.34    0.33
  11   7   0    0.02    0.08
  15  -8   0    2.26    0.24
 -14   8   0   -0.06    0.36
 -13   8   0    4.79    0.70
  11  -8   0    6.25    0.47
  11  -8   0    6.74    2.42
  10  -8   0    0.50    0.76
  10  -8   0    0.28    0.09
   9  -8   0   11.79    0.84
   9  -8   0   11.05    1.66
   9  -8   0   11.68    1.09
   8  -8   0    1.93    0.88
   8  -8   0    1.35    0.42
   7  -8   0   21.07    2.21
   7  -8   0   21.42    1.69
   6  -8   0    1.53    0.39
   6  -8   0    2.11    0.82
   5  -8   0   17.40    1.86
  -5   8   0   16.99    2.08
   4  -8   0    0.19    0.64
  -4   8   0    0.76    0.78
   3  -8   0   18.33    1.73
  -3   8   0   16.26    1.72
   2  -8   0    3.20    0.90
  -2   8   0    2.04    0.80
  -1   8   0    7.71    0.97
   0   8   0    0.62    0.49
   1   8   0    2.59    0.74
   2   8   0   27.73    2.27
   3   8   0    0.49    0.64
   4   8   0   -0.04    0.07
   4   8   0    0.06    0.70
   5   8   0    2.93    0.30
   5   8   0    2.38    0.91
   6   8   0    4.58    0.42
   7   8   0    0.22    0.09
   8   8   0    1.99    0.33
   9   8   0   -0.03    0.09
  10   8   0   -0.01    0.08
 -15   9   0    0.40    0.34
 -14   9   0   -0.11    0.34
 -13   9   0   -0.64    0.39
  12  -9   0    1.55    0.31
  11  -9   0    2.35    0.23
  10  -9   0    0.75    0.11
   9  -9   0   19.70    1.39
   9  -9   0   18.52    1.62
   8  -9   0    6.63    0.84
   8  -9   0    8.80    1.61
   7  -9   0    2.99    0.55
   7  -9   0    2.51    0.93
   6  -9   0    3.42    1.06
   6  -9   0    2.25    0.44
   5  -9   0   15.49    1.76
  -5   9   0   11.74    1.87
  -4   9   0    1.48    0.82
  -3   9   0    4.50    0.99
  -2   9   0    0.53    0.60
  -1   9   0    1.72    0.60
   0   9   0    0.15    0.50
   1   9   0    9.87    1.16
   2   9   0   -0.02    0.61
   3   9   0   -0.08    0.07
   4   9   0    0.82    0.81
   4   9   0    1.18    0.24
   5   9   0    8.16    0.60
   5   9   0    4.95    1.29
   6   9   0   -0.07    0.89
   7   9   0    2.74    0.34
   8   9   0    0.31    0.09
   9   9   0    0.17    0.09
  10   9   0    0.05    0.07
  15 -10   0   -0.02    0.05
 -15  10   0    0.03    0.30
 -14  10   0    0.03    0.33
  13 -10   0    1.00    0.19
 -13  10   0    0.80    0.40
  12 -10   0    2.49    0.35
  11 -10   0    3.17    0.28
  10 -10   0    0.77    0.11
   9 -10   0    0.27    0.09
   8 -10   0   16.27    1.46
   8 -10   0   17.32    1.22
   7 -10   0   10.61    1.03
   6 -10   0    9.18    0.91
  -4  10   0    0.30    0.68
  -3  10   0    0.13    0.56
  -2  10   0    0.33    0.57
   0  10   0    2.75    0.81
   1  10   0    0.03    0.06
   1  10   0   -0.06    0.54
   2  10   0    0.90    0.70
   2  10   0    1.80    0.24
   3  10   0    0.23    0.74
   3  10   0    0.20    0.08
   4  10   0    0.51    0.09
   4  10   0    0.47    0.83
   5  10   0    0.05    0.08
   5  10   0   -0.96    0.83
   6  10   0    0.23    0.09
   7  10   0    0.96    0.27
   8  10   0    0.05    0.08
   9  10   0    0.05    0.07
  14 -11   0    1.15    0.23
 -14  11   0    1.07    0.32
  13 -11   0    0.01    0.17
 -13  11   0    0.19    0.35
  12 -11   0    1.52    0.25
  12 -11   0    1.92    0.19
  11 -11   0    8.67    0.64
  10 -11   0    1.36    0.17
   9 -11   0    1.17    0.16
   8 -11   0    2.69    0.23
   7 -11   0    1.31    0.16
   7 -11   0    0.98    0.43
   6 -11   0    1.36    0.17
   6 -11   0    1.63    0.45
  -3  11   0   -0.40    0.58
  -2  11   0    0.99    0.23
  -2  11   0    0.55    0.61
  -1  11   0    0.33    0.07
  -1  11   0    0.26    0.59
   0  11   0    1.13    0.67
   0  11   0    0.55    0.09
   1  11   0    2.23    0.80
   1  11   0    2.22    0.29
   2  11   0   10.49    0.82
   2  11   0   12.39    1.49
   3  11   0    0.53    0.76
   3  11   0    0.34    0.09
   4  11   0    0.21    0.77
   6  11   0    1.75    0.28
   7  11   0    0.25    0.08
   8  11   0    0.72    0.22
  14 -12   0    0.14    0.13
 -14  12   0    0.11    0.27
  13 -12   0    0.86    0.19
 -13  12   0    0.55    0.32
  12 -12   0    2.71    0.39
  12 -12   0    3.64    0.28
 -12  12   0    3.89    0.56
  11 -12   0    0.02    0.09
  10 -12   0   -0.07    0.09
   9 -12   0    2.78    0.25
   8 -12   0    4.04    0.32
   7 -12   0    0.74    0.11
   6 -12   0   -0.08    0.10
   6 -12   0   -0.17    0.43
   5 -12   0    6.33    0.48
   4 -12   0    7.56    0.56
   3 -12   0    0.67    0.12
  -2  12   0   -0.11    0.06
  -2  12   0   -0.18    0.65
  -1  12   0    0.72    0.66
  -1  12   0    1.35    0.26
   0  12   0   -0.30    0.66
   1  12   0    0.03    0.08
   1  12   0   -0.02    0.70
   2  12   0    0.19    0.73
   2  12   0    0.11    0.08
   3  12   0   -0.36    0.79
   3  12   0    0.07    0.08
   4  12   0    6.63    0.55
   5  12   0   -0.08    0.08
   6  12   0    0.26    0.08
   7  12   0    0.32    0.08
  14 -13   0   -0.07    0.12
 -14  13   0    0.00    0.24
  13 -13   0    0.73    0.18
 -13  13   0    1.08    0.30
  12 -13   0    1.58    0.32
  12 -13   0    1.48    0.17
 -12  13   0    1.60    0.36
  11 -13   0    0.38    0.10
  10 -13   0    0.58    0.10
   9 -13   0    3.52    0.29
   8 -13   0   -0.08    0.08
   7 -13   0    4.75    0.37
   6 -13   0    0.65    0.12
   5 -13   0   -0.03    0.11
   4 -13   0    2.63    0.25
   3 -13   0    0.18    0.11
  -2  13   0   -0.12    0.07
  -1  13   0    0.17    0.08
   0  13   0   -0.18    0.08
   1  13   0    0.00    0.09
   3  13   0    0.28    0.08
   4  13   0    0.30    0.09
   5  13   0    0.08    0.08
   6  13   0    0.43    0.09
  13 -14   0    0.22    0.16
 -13  14   0    0.24    0.25
  12 -14   0    1.42    0.17
  12 -14   0    1.72    0.32
 -12  14   0    2.14    0.48
  11 -14   0   -0.03    0.08
 -11  14   0    0.32    0.33
  10 -14   0    3.98    0.32
   9 -14   0    0.32    0.10
   8 -14   0    0.42    0.09
   7 -14   0    0.46    0.10
   6 -14   0    0.11    0.11
   5 -14   0    1.27    0.19
   4 -14   0    0.07    0.11
   3 -14   0    1.31    0.19
   2 -14   0    0.32    0.14
  -1  14   0   -0.17    0.07
   0  14   0   -0.17    0.08
   1  14   0   -0.16    0.08
   2  14   0   -0.09    0.08
   3  14   0   -0.09    0.09
   4  14   0    0.20    0.08
   5  14   0   -0.06    0.08
  12 -15   0    0.00    0.07
  12 -15   0    0.09    0.18
 -12  15   0    0.27    0.26
  11 -15   0    2.26    0.21
 -11  15   0    2.67    0.49
  10 -15   0    1.49    0.17
 -10  15   0    2.36    0.52
   9 -15   0    0.80    0.11
  -9  15   0    0.96    0.36
   8 -15   0    0.98    0.15
   7 -15   0    1.52    0.18
   6 -15   0    3.28    0.28
   5 -15   0   -0.02    0.12
   4 -15   0    0.47    0.13
   3 -15   0    0.17    0.13
   2 -15   0    1.96    0.23
   0  15   0    0.22    0.07
   1  15   0   -0.08    0.06
   2  15   0   -0.03    0.08
   3  15   0   -0.10    0.07
   4  15   0    0.11    0.07
  11 -16   0    0.99    0.13
  11 -16   0    1.47    0.30
 -11  16   0    0.89    0.28
  10 -16   0    1.14    0.14
 -10  16   0    0.98    0.32
   9 -16   0    0.18    0.09
   8 -16   0    0.79    0.11
   7 -16   0    2.72    0.24
   6 -16   0    2.60    0.24
   5 -16   0    0.08    0.12
   4 -16   0    0.42    0.14
   3 -16   0    0.33    0.13
   2 -16   0    1.07    0.16
   1 -16   0    0.21    0.13
   0 -16   0    1.01    0.16
  10 -17   0    2.47    0.21
   9 -17   0    0.14    0.08
   8 -17   0    0.15    0.09
   7 -17   0    1.84    0.18
   6 -17   0    0.05    0.10
   5 -17   0    0.62    0.12
   4 -17   0    1.62    0.22
   3 -17   0    0.42    0.14
   2 -17   0    0.14    0.13
   1 -17   0   -0.13    0.12
   0 -17   0    0.03    0.11
   8 -18   0    1.27    0.15
   7 -18   0    0.06    0.08
   6 -18   0    1.33    0.16
   5 -18   0    0.23    0.10
   4 -18   0    0.08    0.10
   3 -18   0    0.40    0.12
   1 -18   1   -0.10    0.11
   2 -18   1   -0.14    0.12
   3 -18   1    0.85    0.14
   4 -18   1   -0.10    0.11
   5 -18   1    1.23    0.17
   6 -18   1    0.22    0.09
   7 -18   1    1.30    0.15
   8 -18   1    0.43    0.09
  -1 -17   1    0.59    0.12
   0 -17   1   -0.05    0.12
   1 -17   1   -0.17    0.13
   2 -17   1    0.21    0.13
   3 -17   1    0.09    0.13
   4 -17   1    0.43    0.13
   5 -17   1    0.09    0.11
   6 -17   1    0.07    0.10
   7 -17   1    0.37    0.09
   8 -17   1    4.23    0.33
   9 -17   1    0.05    0.08
  10 -17   1    1.66    0.16
   3  16  -1    0.03    0.05
   2  16  -1   -0.06    0.06
   0 -16   1    0.02    0.14
   1 -16   1    0.29    0.13
   2 -16   1    0.52    0.14
   3 -16   1    2.48    0.26
   4 -16   1    2.04    0.24
   5 -16   1    1.62    0.22
   6 -16   1    0.52    0.11
   7 -16   1    1.20    0.16
   8 -16   1    0.00    0.09
  -9  16  -1    2.17    0.46
   9 -16   1    1.67    0.18
 -10  16  -1    0.41    0.30
  10 -16   1    0.33    0.08
 -11  16  -1   -0.04    0.26
  11 -16   1    0.10    0.07
   4  15  -1   -0.06    0.06
   3  15  -1   -0.09    0.07
   2  15  -1   -0.09    0.07
   1  15  -1   -0.11    0.08
   0  15  -1   -0.08    0.07
   2 -15   1    2.33    0.25
   3 -15   1    0.43    0.13
   4 -15   1    2.22    0.24
   5 -15   1    0.16    0.12
   6 -15   1    0.58    0.12
   7 -15   1    2.61    0.24
  -8  15  -1    1.46    0.41
   8 -15   1    1.08    0.16
  -9  15  -1    4.58    0.58
   9 -15   1    3.13    0.29
 -10  15  -1    1.13    0.36
  10 -15   1    0.56    0.10
 -11  15  -1    0.28    0.32
  11 -15   1    0.22    0.08
 -12  15  -1   -0.04    0.26
  12 -15   1    0.07    0.18
  12 -15   1   -0.11    0.07
   6  14  -1    0.04    0.08
   5  14  -1    0.01    0.08
   4  14  -1   -0.09    0.08
   3  14  -1    0.20    0.09
   2  14  -1   -0.10    0.08
   1  14  -1    0.36    0.09
   0  14  -1   -0.28    0.70
   0  14  -1   -0.05    0.08
  -1  14  -1   -0.09    0.07
  -1  14  -1   -0.35    0.72
  -2  14  -1    0.25    0.75
   2 -14   1    2.69    0.23
   3 -14   1    6.30    0.48
   4 -14   1    3.59    0.30
   5 -14   1    0.42    0.12
   6 -14   1    0.06    0.10
   7 -14   1    0.47    0.11
   8 -14   1    0.76    0.11
   9 -14   1    3.32    0.28
 -10  14  -1    2.64    0.55
 -11  14  -1    1.53    0.36
  11 -14   1    0.64    0.11
 -12  14  -1    0.21    0.29
  12 -14   1    0.41    0.19
  12 -14   1    0.09    0.08
 -13  14  -1    0.32    0.26
  13 -14   1    0.50    0.16
   7  13  -1    0.78    0.23
   6  13  -1    0.28    0.08
   5  13  -1    1.61    0.28
   3  13  -1   -0.18    0.08
   2  13  -1   -0.01    0.76
   1  13  -1   -0.16    0.08
   1  13  -1   -0.22    0.74
   0  13  -1    0.15    0.70
  -1  13  -1    0.01    0.07
  -1  13  -1    0.24    0.69
  -2  13  -1    0.05    0.65
  -2  13  -1   -0.01    0.07
  -3  13  -1   -0.16    0.68
   3 -13   1   -0.22    0.10
   4 -13   1    1.50    0.18
   5 -13   1    0.28    0.11
   6 -13   1    0.12    0.11
   7 -13   1    1.93    0.20
   8 -13   1    1.15    0.16
   9 -13   1   -0.14    0.09
  10 -13   1    2.30    0.22
 -11  13  -1    0.50    0.35
  11 -13   1   -0.01    0.09
 -12  13  -1    0.01    0.33
  12 -13   1    0.05    0.09
 -13  13  -1    7.00    0.62
  13 -13   1    5.54    0.51
 -14  13  -1   -0.06    0.24
  14 -13   1    0.11    0.11
   8  12  -1   -0.04    0.07
   7  12  -1    0.12    0.08
   6  12  -1    0.37    0.08
   5  12  -1    0.02    0.08
   4  12  -1    2.79    0.31
   4  12  -1    1.23    0.89
   3  12  -1    0.22    0.09
   3  12  -1    0.45    0.77
   2  12  -1   -0.29    0.69
   2  12  -1   -0.15    0.08
   1  12  -1   -0.40    0.62
   1  12  -1   -0.06    0.08
   0  12  -1   -0.01    0.64
   0  12  -1   -0.06    0.07
  -1  12  -1    0.40    0.64
  -1  12  -1    0.20    0.07
  -2  12  -1    0.79    0.21
  -2  12  -1    0.37    0.59
  -3  12  -1    0.17    0.65
   3 -12   1    0.04    0.10
  -4  12  -1    1.29    0.80
   6 -12   1   -0.16    0.10
   6 -12   1   -0.40    0.40
  -7  12  -1    0.73    0.31
   7 -12   1    0.93    0.12
   8 -12   1    5.37    0.41
   9 -12   1    3.82    0.31
  10 -12   1    1.74    0.19
 -11  12  -1    4.83    0.63
  11 -12   1    4.90    0.38
 -12  12  -1    2.21    0.54
  12 -12   1    2.00    0.21
 -13  12  -1    0.18    0.30
  13 -12   1   -0.04    0.16
 -14  12  -1    1.14    0.30
   9  11  -1    0.09    0.07
   8  11  -1    0.28    0.08
   7  11  -1    0.18    0.08
   6  11  -1   -0.17    0.08
   5  11  -1   -0.01    0.79
   4  11  -1    1.00    0.76
   3  11  -1    4.42    0.40
   3  11  -1    3.77    1.10
   2  11  -1    6.47    0.53
   2  11  -1    7.51    1.19
   1  11  -1    1.82    0.25
   1  11  -1    2.29    0.76
   0  11  -1    0.10    0.57
   0  11  -1    0.10    0.06
  -1  11  -1    3.99    0.91
  -1  11  -1    4.25    0.39
  -2  11  -1   -0.12    0.54
  -3  11  -1    0.07    0.57
  -4  11  -1    0.09    0.76
  -5  11  -1    1.12    0.94
   6 -11   1    5.45    0.74
  -7  11  -1    0.31    0.18
   7 -11   1    0.21    0.09
   7 -11   1    0.26    0.37
   8 -11   1    2.25    0.22
   9 -11   1    5.47    0.42
  10 -11   1   -0.07    0.10
  11 -11   1    0.93    0.13
 -12  11  -1    0.88    0.39
  12 -11   1    1.42    0.16
  12 -11   1    0.54    0.21
 -13  11  -1   -0.12    0.32
  13 -11   1    0.24    0.17
 -14  11  -1    2.76    0.48
   9  10  -1    0.29    0.08
   8  10  -1    1.26    0.28
   7  10  -1    0.28    0.09
   6  10  -1    0.35    0.84
   5  10  -1   -0.70    0.79
   5  10  -1    0.25    0.09
   4  10  -1    8.80    0.67
   4  10  -1    7.36    1.32
   3  10  -1   20.16    1.93
   3  10  -1   19.62    1.44
   2  10  -1    7.42    0.58
   2  10  -1    8.12    1.14
   1  10  -1    0.51    0.58
   0  10  -1   16.80    1.60
  -1  10  -1   16.65    1.61
  -2  10  -1    5.58    0.99
  -3  10  -1    0.48    0.65
  -4  10  -1    3.31    1.04
  -5  10  -1    1.06    0.92
  -6  10  -1   -0.10    1.18
   6 -10   1    0.13    0.34
   7 -10   1    7.48    0.83
   8 -10   1    2.54    0.23
   8 -10   1    2.33    0.51
   9 -10   1    2.77    0.24
  10 -10   1    3.03    0.26
  11 -10   1   11.41    0.83
 -12  10  -1    2.43    0.42
  12 -10   1    1.20    0.24
 -13  10  -1    5.10    0.64
 -14  10  -1   -0.19    0.33
 -15  10  -1   -0.01    0.31
  15 -10   1    0.03    0.04
  10   9  -1    0.35    0.09
   9   9  -1    2.33    0.33
   8   9  -1    4.08    0.42
   7   9  -1   -1.60    0.82
   7   9  -1    0.16    0.09
   6   9  -1   15.80    1.17
   5   9  -1    6.75    1.36
   5   9  -1   10.50    0.74
   4   9  -1    1.67    0.82
   4   9  -1    1.98    0.27
   3   9  -1    1.34    0.23
   3   9  -1    1.18    0.72
   2   9  -1    1.25    0.62
   1   9  -1    1.49    0.58
   0   9  -1   16.09    1.51
  -1   9  -1   -0.01    0.46
  -2   9  -1    6.22    1.01
  -3   9  -1    5.08    1.06
  -4   9  -1   10.17    1.55
  -5   9  -1    4.03    1.40
  -6   9  -1    0.62    0.98
   6  -9   1    0.34    0.33
   7  -9   1    1.23    0.40
   8  -9   1    0.86    0.40
   9  -9   1   11.84    0.86
   9  -9   1   11.80    1.13
  10  -9   1    2.18    0.21
  11  -9   1    0.33    0.11
 -12   9  -1    1.07    0.43
 -13   9  -1    0.70    0.37
 -14   9  -1    1.38    0.38
 -15   9  -1    0.81    0.36
  11   8  -1    0.13    0.08
  10   8  -1    0.19    0.09
   9   8  -1    1.95    0.33
   8   8  -1    1.64    0.32
   7   8  -1    0.19    0.08
   7   8  -1   -0.92    0.82
   7   8  -1    0.03    0.12
   6   8  -1    4.66    1.14
   6   8  -1    6.29    0.55
   6   8  -1    6.50    0.51
   5   8  -1   12.26    0.92
   5   8  -1   12.01    0.89
   5   8  -1   11.56    1.40
   4   8  -1    0.37    0.67
   4   8  -1    0.90    0.26
   3   8  -1    4.67    0.85
   3   8  -1    4.16    0.40
   1   8  -1    5.95    0.86
   0   8  -1    1.57    0.56
  -1   8  -1    0.79    0.54
  -2   8  -1    7.53    1.09
  -3   8  -1    0.38    0.65
  -4   8  -1    4.31    1.23
  -5   8  -1    3.55    1.33
   5  -8   1    2.13    0.88
  -6   8  -1   17.30    2.04
   6  -8   1   15.68    1.33
   6  -8   1   15.99    2.25
   7  -8   1    3.46    0.57
   8  -8   1   11.50    1.06
   9  -8   1    3.76    0.62
   9  -8   1    3.32    0.28
  10  -8   1    0.01    0.09
 -12   8  -1   -0.04    0.41
 -13   8  -1    2.11    0.42
 -14   8  -1    0.02    0.37
  14  -8   1   -0.03    0.06
  15  -8   1    0.04    0.05
  11   7  -1    0.95    0.29
  10   7  -1    1.48    0.31
   9   7  -1    1.46    0.29
   8   7  -1    1.86    0.28
   7   7  -1    2.46    0.27
   7   7  -1    0.25    0.86
   7   7  -1    1.83    0.35
   6   7  -1   20.37    1.56
   6   7  -1   24.32    1.58
   6   7  -1   19.57    1.97
   5   7  -1    0.70    0.72
   5   7  -1    1.55    0.27
   4   7  -1   16.52    1.25
   4   7  -1   18.15    1.59
   3   7  -1   23.34    1.72
   3   7  -1   24.49    1.97
   2   7  -1    1.10    0.55
   2   7  -1    1.37    0.26
   1   7  -1    0.83    0.50
   0   7  -1    1.09    0.46
  -1   7  -1   21.18    1.79
  -2   7  -1   57.23    4.37
   2  -7   1   56.96    4.37
  -3   7  -1    1.76    0.75
  -3   7  -1    2.29    0.73
   3  -7   1    2.38    0.73
  -4   7  -1    1.14    0.73
   4  -7   1    1.59    0.71
  -5   7  -1   23.90    2.41
   5  -7   1   24.09    2.23
  -6   7  -1    8.69    1.53
   6  -7   1    8.04    1.28
   6  -7   1    8.38    0.83
   7  -7   1   -0.35    0.60
   7  -7   1    0.13    0.31
   8  -7   1   13.40    1.74
   8  -7   1   17.03    1.29
   9  -7   1    5.03    0.39
  10  -7   1    0.58    0.10
 -11   7  -1   -0.15    0.42
 -12   7  -1    0.18    0.39
 -13   7  -1    0.61    0.38
  14  -7   1    0.06    0.05
  15  -7   1    0.77    0.17
  12   6  -1    0.01    0.08
  11   6  -1    0.23    0.09
  10   6  -1    5.00    0.46
   9   6  -1   -1.54    0.82
   8   6  -1    0.15    0.07
   8   6  -1   -0.03    0.12
   7   6  -1    2.01    0.33
   7   6  -1    1.05    0.85
   7   6  -1    2.30    0.24
   6   6  -1    1.55    0.20
   6   6  -1    1.37    0.77
   6   6  -1    1.85    0.28
   5   6  -1   12.07    1.35
   5   6  -1   13.26    0.96
   4   6  -1   33.58    2.70
   4   6  -1   35.27    2.47
   3   6  -1    6.20    0.86
   3   6  -1    5.70    0.48
   2   6  -1    4.36    0.68
   2   6  -1    3.58    0.34
   1   6  -1    0.90    0.41
   0   6  -1    4.44    0.87
   0   6  -1    5.46    0.70
  -1   6  -1   17.74    1.42
  -1   6  -1   12.51    1.53
   1  -6   1   14.02    1.30
   1  -6   1   18.28    1.47
  -2   6  -1    0.51    0.54
  -2   6  -1    0.41    0.55
  -2   6  -1   -0.02    0.33
   2  -6   1    0.23    0.47
   2  -6   1    0.20    0.28
  -3   6  -1   29.34    2.44
  -3   6  -1   31.57    2.60
   3  -6   1   30.62    2.53
   3  -6   1   31.23    2.60
  -4   6  -1    0.27    0.67
   4  -6   1    0.25    0.51
  -5   6  -1    3.67    1.09
   5  -6   1    4.01    0.93
   5  -6   1    3.81    0.53
  -6   6  -1    2.14    0.95
   6  -6   1    1.24    0.34
   6  -6   1    1.79    0.78
   7  -6   1   12.37    1.05
   7  -6   1   11.74    1.53
   8  -6   1    4.73    0.60
   8  -6   1    4.59    1.12
   9  -6   1    0.40    0.70
  10  -6   1    5.75    1.56
 -11   6  -1    2.24    0.45
 -12   6  -1    1.45    0.40
 -13   6  -1    4.82    0.47
  13  -6   1    6.44    0.48
  14  -6   1    0.00    0.05
  15  -6   1    0.19    0.05
  13   5  -1    0.11    0.07
  12   5  -1    0.17    0.08
  11   5  -1    4.91    0.43
  10   5  -1    0.24    0.08
   9   5  -1    6.01    0.48
   8   5  -1    0.30    0.73
   8   5  -1   -0.04    0.10
   8   5  -1    0.08    0.06
   7   5  -1    1.92    0.75
   7   5  -1    1.37    0.19
   7   5  -1    1.48    0.27
   6   5  -1    5.36    0.45
   6   5  -1    5.24    0.93
   5   5  -1   34.86    2.56
   5   5  -1   36.96    2.81
   4   5  -1    7.82    0.95
   4   5  -1    7.31    0.57
   3   5  -1   22.73    1.83
   2   5  -1    7.68    0.76
  -2  -5   1    5.51    1.28
   1   5  -1    2.43    0.66
   1   5  -1    2.04    0.48
  -1  -5   1    1.78    0.51
   0   5  -1   66.10    5.81
   0   5  -1   91.32    5.75
  -1   5  -1   13.58    1.35
  -1   5  -1   10.97    1.29
  -1   5  -1   13.61    1.22
   1  -5   1   12.41    1.09
  -2   5  -1    6.95    0.76
  -2   5  -1    6.93    0.97
  -2   5  -1    5.55    0.95
   2  -5   1    6.33    0.77
  -3   5  -1    3.43    0.85
   3  -5   1    2.82    0.66
   3  -5   1    3.37    0.77
  -4   5  -1   12.40    1.36
  -4   5  -1   10.82    1.07
   4  -5   1   10.64    1.20
   4  -5   1   12.69    1.24
  -5   5  -1    3.48    1.00
   5  -5   1    2.92    0.84
   5  -5   1    2.36    0.43
  -6   5  -1    0.84    0.77
   6  -5   1    0.87    0.67
   6  -5   1    1.04    0.31
   7  -5   1   -0.09    0.27
   7  -5   1    0.13    0.57
   8  -5   1    1.95    0.85
   9  -5   1    2.72    1.04
  10  -5   1    1.78    0.94
 -11   5  -1    5.12    0.76
  12  -5   1    0.27    0.08
  13  -5   1    0.21    0.06
 -14   5  -1    1.63    0.23
  14  -5   1    1.86    0.22
  15  -5   1    4.16    0.35
  13   4  -1    0.09    0.07
  12   4  -1    0.08    0.07
  11   4  -1    1.79    0.25
  10   4  -1    0.61    0.82
   9   4  -1    4.71    1.09
   9   4  -1    6.47    0.48
   9   4  -1    5.82    0.55
   8   4  -1    1.31    0.74
   8   4  -1    1.34    0.28
   8   4  -1    1.37    0.19
   7   4  -1    2.57    0.83
   7   4  -1    2.07    0.29
   6   4  -1    0.40    0.57
   6   4  -1    0.21    0.08
   5   4  -1   31.62    2.37
   5   4  -1   35.04    2.61
   4   4  -1    7.88    0.91
   3   4  -1   34.20    2.45
  -3  -4   1   29.64    2.76
   2   4  -1   43.28    3.04
  -2  -4   1   38.92    3.28
   1   4  -1   18.47    1.40
  -1  -4   1   16.03    1.72
   0   4  -1  173.74   12.83
   0  -4   1  185.31   12.84
  -1   4  -1  105.45    7.37
  -1   4  -1  105.89    7.41
  -1   4  -1   94.75    7.40
   1  -4   1  101.57    7.33
  -2   4  -1    7.90    1.02
  -2   4  -1    7.72    0.75
   2  -4   1    7.18    0.85
  -3   4  -1   21.43    1.69
  -3   4  -1   22.62    1.88
   3  -4   1   21.50    1.80
   3  -4   1   19.28    1.76
  -4   4  -1    9.87    0.99
  -4   4  -1    9.62    1.22
   4  -4   1   10.01    1.14
   4  -4   1   12.01    0.83
   4  -4   1    9.37    1.09
  -5   4  -1    0.11    0.29
  -5   4  -1    0.44    0.61
   5  -4   1    0.34    0.23
   5  -4   1    0.31    0.52
  -6   4  -1    3.80    1.08
   6  -4   1    5.35    0.55
   6  -4   1    4.15    0.94
   7  -4   1    1.14    0.71
   8  -4   1    7.58    1.25
   9  -4   1    3.26    1.07
  10  -4   1    3.79    1.15
  11  -4   1    8.07    1.56
  12  -4   1    0.69    0.21
  13  -4   1    1.42    0.22
 -14   4  -1    0.67    0.17
  14  -4   1    1.01    0.19
  15  -4   1    8.32    0.62
  13   3  -1    1.29    0.22
  12   3  -1    4.06    0.36
  11   3  -1    0.82    0.22
  10   3  -1    0.56    0.75
   9   3  -1    0.92    0.71
   9   3  -1    0.13    0.06
   9   3  -1    0.27    0.10
   8   3  -1    2.90    0.27
   8   3  -1    2.92    0.91
   8   3  -1    2.99    0.34
   7   3  -1    8.69    1.12
   6   3  -1    1.97    0.66
   5   3  -1   23.80    1.94
  -5  -3   1   22.72    2.07
   4   3  -1   45.98    3.26
  -4  -3   1   42.98    3.62
  -4  -3   1   40.88    3.36
   3   3  -1   -0.35    0.36
  -3  -3   1    0.23    0.50
   2   3  -1   87.34    6.36
  -2  -3   1   89.77    6.55
   1   3  -1   99.55    7.54
   1   3  -1  101.67    7.45
  -1  -3   1  111.84    7.59
   0   3  -1   45.57    3.39
   0  -3   1   44.62    3.29
  -1   3  -1  306.29   20.65
   1  -3   1  274.41   20.65
   2  -3   1  195.54   13.99
  -3   3  -1    0.77    0.59
  -3   3  -1    0.41    0.30
   3  -3   1    0.22    0.33
  -4   3  -1    2.72    0.72
  -4   3  -1    1.91    0.58
   4  -3   1    2.83    0.71
   4  -3   1    2.08    0.68
   4  -3   1    1.94    0.33
  -5   3  -1    0.60    0.62
  -5   3  -1    0.47    0.31
   5  -3   1    0.61    0.50
   5  -3   1    1.03    0.23
   6  -3   1   11.03    1.36
   7  -3   1    0.29    0.62
   8  -3   1   12.96    1.60
   9  -3   1    0.31    0.64
  10  -3   1    4.48    1.21
  11  -3   1    4.84    0.43
  11  -3   1    7.52    1.36
  12  -3   1   16.86    1.23
  13  -3   1    0.24    0.06
 -14   3  -1   -0.21    0.16
  14  -3   1   -0.01    0.05
  15  -3   1    0.14    0.05
  14   2  -1    0.13    0.06
  13   2  -1    1.05    0.21
  12   2  -1    0.07    0.07
  11   2  -1    9.81    1.38
  11   2  -1   11.97    0.86
  10   2  -1    3.18    1.02
  10   2  -1    1.71    0.24
   9   2  -1    3.17    0.94
   9   2  -1    2.22    0.25
   8   2  -1    0.01    0.51
   7   2  -1    0.35    0.52
   6   2  -1    3.29    0.80
  -6  -2   1    4.21    0.87
   5   2  -1    5.73    0.79
  -5  -2   1    6.48    0.90
   4   2  -1   18.11    1.49
  -4  -2   1   17.91    1.58
   3   2  -1   64.30    4.68
   2   2  -1   29.14    2.18
  -1  -2   1   11.74    1.05
   0   2  -1   18.22    1.41
   0  -2   1   18.09    1.35
  -1   2  -1    0.14    0.13
   1  -2   1    0.10    0.13
  -3   2  -1    4.95    0.78
   3  -2   1    4.49    0.84
   3  -2   1    5.51    0.48
  -4   2  -1    3.10    0.82
  -4   2  -1    2.83    0.66
   4  -2   1    2.91    0.71
   4  -2   1    3.39    0.37
   4  -2   1    3.58    0.75
  -5   2  -1   24.61    2.10
   5  -2   1   25.56    2.15
  -6   2  -1    8.99    1.59
   6  -2   1    8.80    1.19
   7  -2   1    3.85    1.00
   8  -2   1    0.67    0.65
   9  -2   1    6.19    1.28
  10  -2   1    2.19    0.26
  10  -2   1    3.63    1.11
  11  -2   1    3.21    1.10
  12  -2   1    2.01    0.26
  13  -2   1    2.07    0.25
 -14   2  -1    0.47    0.18
  14   1  -1    1.31    0.20
  13   1  -1    0.16    0.07
  12   1  -1    1.60    0.24
  11   1  -1    2.90    1.03
  10   1  -1    1.67    0.23
  10   1  -1    1.64    0.69
   9   1  -1    8.14    1.14
   9   1  -1    7.05    0.55
   8   1  -1    2.36    0.76
   7   1  -1    8.46    1.11
   6   1  -1    2.66    0.79
  -6  -1   1    2.67    0.78
   5   1  -1   24.45    1.97
  -5  -1   1   23.28    2.01
   4   1  -1    3.10    0.64
  -4  -1   1    3.44    0.68
   3   1  -1  134.54   10.09
  -3  -1   1  146.94   10.14
   0  -1   1    0.72    0.10
  -1   1  -1   25.52    1.89
   1  -1   1   25.76    1.90
  -2   1  -1   45.08    3.39
   2  -1   1   47.40    3.28
   2  -1   1   45.31    3.40
  -3   1  -1   52.11    4.00
   3  -1   1   55.90    3.83
   3  -1   1   52.14    4.01
  -4   1  -1   72.41    5.28
  -4   1  -1   68.71    5.14
   4  -1   1   65.96    5.12
  -5   1  -1    4.36    1.10
  -5   1  -1    3.66    0.74
   5  -1   1    4.05    0.83
  -6   1  -1   26.77    2.65
   6  -1   1   22.51    2.14
   7  -1   1   11.90    1.40
   8  -1   1    5.90    1.16
   9  -1   1    6.29    0.51
   9  -1   1    8.46    1.26
  10  -1   1    3.43    1.06
  10  -1   1    1.54    0.23
  11  -1   1   11.99    0.91
  11  -1   1   12.89    1.56
  12  -1   1    0.07    0.06
  13  -1   1    2.94    0.29
 -14   1  -1   -0.01    0.17
  14  -1   1    0.00    0.05
  14   0  -1    1.60    0.22
  13   0  -1    1.48    0.23
  12   0  -1    2.81    0.30
  11   0  -1    4.07    1.00
  11   0  -1    3.66    0.34
  10   0  -1    0.88    0.70
   9   0  -1    2.82    0.91
   8   0  -1    8.37    1.20
   7   0  -1    4.45    0.94
   6   0  -1    0.62    0.49
  -6   0   1    0.61    0.39
   5   0  -1    7.25    0.87
  -5   0   1    6.50    0.88
   4   0  -1    2.96    0.58
  -4   0   1    2.43    0.67
   3   0  -1   -0.22    0.39
  -3   0   1    0.03    0.30
   2   0  -1    6.58    0.61
  -2   0   1    6.35    0.61
   0   0  -1   59.19    4.40
   0   0  -1   60.90    4.39
   0   0   1   66.59    4.39
   0   0   1   59.78    4.40
  -2   0  -1    0.64    0.30
   2   0   1    0.63    0.30
  -3   0  -1    2.03    0.68
   3   0   1    1.50    0.47
  -4   0  -1    4.32    0.72
  -4   0  -1    4.24    1.02
   4   0   1    3.85    0.68
  -5   0  -1    4.90    1.20
  -5   0  -1    5.27    0.87
   5   0   1    5.61    0.87
   6   0   1    2.43    0.88
   7   0   1    3.02    0.91
   8   0   1   62.38    4.87
   9   0   1    8.96    1.27
   9   0   1    7.96    0.62
  10   0   1    1.08    0.71
  11   0   1    5.28    1.18
  12   0   1    1.64    0.24
  13   0   1    0.70    0.19
 -14   0  -1    0.13    0.17
  15  -1  -1    1.14    0.18
  14  -1  -1    0.04    0.06
  13  -1  -1    1.01    0.21
  12  -1  -1    2.62    0.92
  11  -1  -1    0.43    0.67
  10  -1  -1    5.90    1.14
  10  -1  -1    4.53    0.39
   9  -1  -1    0.25    0.65
   8  -1  -1    0.79    0.58
   7  -1  -1    2.78    0.88
   6  -1  -1    5.59    0.88
  -6   1   1    4.96    0.84
   5  -1  -1   55.15    4.11
  -5   1   1   53.06    4.09
   4  -1  -1    7.50    0.86
  -4   1   1    5.86    0.87
   3  -1  -1  233.42   17.17
   3  -1  -1  251.84   17.06
  -3   1   1  235.21   17.15
   2  -1  -1   81.62    6.41
   2  -1  -1   95.66    6.36
  -2   1   1   90.93    6.42
   1  -1  -1   66.08    4.84
   1  -1  -1   66.58    4.87
  -1   1   1   71.52    4.86
   0  -1  -1   13.37    0.98
   0   1   1   11.41    0.98
  -1  -1  -1   10.93    1.05
  -2  -1  -1   70.06    4.98
  -2  -1  -1   64.64    5.04
  -3  -1  -1   17.44    1.77
  -3  -1  -1   17.66    1.52
   3   1   1   16.15    1.43
  -4  -1  -1   29.11    2.32
  -4  -1  -1   27.99    2.52
   4   1   1   27.60    2.23
  -5  -1  -1   20.30    2.22
   5   1   1   21.20    1.81
   6   1   1    0.30    0.56
   7   1   1    7.92    1.11
   8   1   1   18.54    1.82
   9   1   1    3.12    0.87
   9   1   1    2.30    0.26
  10   1   1    4.31    1.14
  11   1   1    3.79    0.36
  12   1   1    4.80    0.41
  13   1   1    0.12    0.06
  14   1   1    0.82    0.19
  15  -2  -1    1.19    0.19
  14  -2  -1    3.47    0.32
  13  -2  -1    4.08    0.37
  12  -2  -1    1.49    0.74
  11  -2  -1    1.20    0.22
  11  -2  -1    2.21    0.89
  10  -2  -1    0.29    0.74
   9  -2  -1    1.65    0.72
   8  -2  -1    2.17    0.78
   7  -2  -1    1.41    0.68
   6  -2  -1    2.17    0.69
  -6   2   1    1.38    0.41
   5  -2  -1   27.15    2.22
  -5   2   1   26.46    2.17
   4  -2  -1   38.32    3.00
   4  -2  -1   40.89    2.81
  -4   2   1   37.08    2.97
   3  -2  -1  225.51   15.72
   3  -2  -1  210.51   15.83
  -3   2   1  227.44   15.82
   2  -2  -1   53.72    3.78
   2  -2  -1   49.47    3.85
  -2   2   1   55.51    3.85
   1  -2  -1    0.30    0.16
  -1   2   1    0.38    0.18
   0  -2  -1    0.16    0.29
   0   2   1   -0.47    0.32
  -1  -2  -1  127.40    9.10
   1   2   1  123.36    9.03
  -2  -2  -1    8.16    1.51
  -2  -2  -1    9.98    1.37
   2   2   1    9.30    0.90
  -3  -2  -1    3.02    1.14
  -3  -2  -1    4.34    0.73
  -3  -2  -1    4.61    0.99
   3   2   1    3.87    0.56
  -4  -2  -1    1.11    0.93
  -4  -2  -1    0.78    0.36
   4   2   1    1.14    0.43
   5   2   1    4.83    0.80
   6   2   1    5.92    0.89
   7   2   1    9.29    1.12
   8   2   1    1.94    0.23
   8   2   1    3.46    0.92
   9   2   1    3.33    1.03
   9   2   1    1.24    0.22
  10   2   1    3.67    0.36
  10   2   1    5.63    1.13
  11   2   1    1.24    0.23
  12   2   1    4.88    0.41
  13   2   1    1.31    0.22
  15  -3  -1    0.17    0.06
  14  -3  -1    1.33    0.22
  13  -3  -1    0.01    0.06
  12  -3  -1    6.22    0.53
  12  -3  -1    8.98    1.37
  11  -3  -1   13.08    1.74
  10  -3  -1    5.96    1.18
   9  -3  -1    4.26    1.05
   8  -3  -1    0.07    0.59
   7  -3  -1    2.62    0.86
   6  -3  -1    3.88    0.83
  -6   3   1    3.78    0.75
   5  -3  -1   12.18    1.30
   5  -3  -1   13.05    0.99
  -5   3   1   12.27    1.19
   4  -3  -1   25.58    1.79
   4  -3  -1   23.54    2.00
  -4   3   1   23.63    1.95
   3  -3  -1    7.45    0.96
   3  -3  -1    8.03    0.67
  -3   3   1    8.57    0.87
   2  -3  -1    0.73    0.29
   2  -3  -1    1.35    0.48
   1  -3  -1    2.95    0.54
  -1   3   1    3.25    0.80
   0  -3  -1    5.73    0.93
  -1  -3  -1    0.91    0.65
  -1  -3  -1    2.61    0.97
   1   3   1    1.94    0.51
   1   3   1    0.82    0.48
  -2  -3  -1   58.65    4.97
  -2  -3  -1   62.34    4.84
   2   3   1   68.68    4.63
  -3  -3  -1    0.35    0.33
  -3  -3  -1    0.86    1.14
   3   3   1    1.01    0.43
  -4  -3  -1    7.81    1.92
   4   3   1   10.07    1.05
   5   3   1   -0.20    0.53
   5   3   1    0.07    0.07
   6   3   1   25.36    2.15
   7   3   1    3.44    0.90
   8   3   1    4.97    0.42
   8   3   1    7.06    1.07
   9   3   1    2.90    0.99
  10   3   1    7.37    0.56
  10   3   1    6.01    1.24
  11   3   1    4.15    0.38
  12   3   1    0.03    0.07
 -13  -3  -1    2.95    0.27
  13   3   1    1.64    0.26
  15  -4  -1    0.08    0.05
  14  -4  -1    0.65    0.20
  13  -4  -1    0.00    0.06
  12  -4  -1    4.68    1.29
  11  -4  -1    1.73    0.83
  10  -4  -1    6.72    1.27
   9  -4  -1    2.75    0.91
   8  -4  -1    1.46    0.71
   7  -4  -1    0.52    0.58
   6  -4  -1   15.68    1.55
   6  -4  -1   15.20    1.18
  -6   4   1   13.81    1.40
   5  -4  -1    2.75    0.75
   5  -4  -1    3.06    0.40
  -5   4   1    2.77    0.62
  -5   4   1    2.30    0.80
   4  -4  -1   17.00    1.27
   4  -4  -1   15.61    1.52
  -4   4   1   17.47    1.42
   3  -4  -1  155.47   11.52
  -3   4   1  163.95   11.45
   2  -4  -1   52.51    4.01
   2  -4  -1   49.92    3.99
  -2   4   1   58.89    3.98
   1  -4  -1   73.47    4.94
  -1   4   1   63.70    5.07
  -1   4   1   66.25    5.07
   0  -4  -1    0.34    0.38
   0  -4  -1    0.26    0.63
   0   4   1    0.32    0.37
   0   4   1   -0.47    0.47
  -1  -4  -1    9.38    1.37
  -1  -4  -1    9.10    1.26
   1   4   1   10.47    0.87
   1   4   1    7.39    1.03
  -2  -4  -1    3.92    1.42
   2   4   1    5.10    0.65
  -3  -4  -1   -0.28    1.37
   3   4   1   -0.17    0.48
   4   4   1    5.49    0.88
   4   4   1    6.19    0.49
   5   4   1    4.49    0.40
   5   4   1    5.43    0.84
   6   4   1    9.66    1.14
   7   4   1    3.87    0.34
   7   4   1    5.57    0.95
   8   4   1   23.41    1.57
   8   4   1   18.75    2.01
   9   4   1    2.26    0.27
   9   4   1    1.81    0.91
  10   4   1    2.55    0.30
  11   4   1   -0.05    0.08
  12   4   1   -0.05    0.07
  15  -5  -1    1.89    0.22
  14  -5  -1    0.89    0.20
  13  -5  -1    6.05    0.51
  12  -5  -1   11.23    1.60
  11  -5  -1    2.23    0.96
  10  -5  -1    2.18    0.91
   9  -5  -1    4.68    1.11
   8  -5  -1    3.91    0.96
   7  -5  -1    2.53    0.81
   7  -5  -1    2.18    0.40
   6  -5  -1   20.33    1.95
   6  -5  -1   20.85    1.60
   5  -5  -1    0.69    0.26
   5  -5  -1    0.57    0.51
  -5   5   1    0.91    0.69
  -5   5   1    0.30    0.33
   4  -5  -1   11.40    0.95
   4  -5  -1   12.44    1.28
  -4   5   1   11.97    1.42
  -4   5   1   12.09    1.10
   3  -5  -1    6.81    0.90
  -3   5   1    6.06    1.01
  -3   5   1    6.74    0.75
   2  -5  -1   29.83    2.25
  -2   5   1   29.11    2.25
  -2   5   1   25.17    2.23
   1  -5  -1    2.89    0.74
  -1   5   1    1.47    0.56
  -1   5   1    2.21    0.56
   0  -5  -1    1.61    0.68
   0   5   1    1.32    0.50
   0   5   1    1.29    0.50
  -1  -5  -1   -0.08    0.83
   1   5   1    0.11    0.41
   1   5   1    0.28    0.37
  -2  -5  -1   -0.41    1.16
   2   5   1    0.62    0.50
   3   5   1   48.77    3.66
   4   5   1    2.80    0.31
   4   5   1    3.05    0.77
   5   5   1    1.47    0.67
   6   5   1    1.48    0.19
   6   5   1    2.03    0.75
   7   5   1    7.63    0.57
   7   5   1    6.58    1.17
   8   5   1   -0.53    0.84
   8   5   1   -0.01    0.07
   9   5   1   -1.71    0.93
   9   5   1    0.13    0.08
  10   5   1    1.59    0.30
  11   5   1    0.01    0.08
  12   5   1    0.35    0.08
  15  -6  -1    0.03    0.05
  14  -6  -1    0.01    0.06
 -13   6   1    0.42    0.46
  12  -6  -1    1.47    0.92
  11  -6  -1   16.22    1.98
  10  -6  -1    0.03    0.08
  10  -6  -1    0.06    0.69
   9  -6  -1    0.10    0.65
   8  -6  -1    0.24    0.31
   8  -6  -1    0.28    0.62
   7  -6  -1   18.34    1.50
   7  -6  -1   19.17    1.97
   6  -6  -1    0.36    0.31
   6  -6  -1    0.75    0.65
   5  -6  -1   18.55    1.55
   5  -6  -1   19.93    1.91
  -5   6   1   22.87    2.87
   4  -6  -1    3.08    0.84
  -4   6   1    3.71    1.07
  -4   6   1    3.02    0.66
   3  -6  -1    0.33    0.51
  -3   6   1    0.20    0.58
  -3   6   1   -0.03    0.35
   2  -6  -1    0.48    0.50
  -2   6   1    0.26    0.45
  -2   6   1    0.37    0.50
   1  -6  -1    0.40    0.56
  -1   6   1    0.27    0.53
  -1   6   1    0.07    0.39
   0  -6  -1    0.75    0.73
   0   6   1    0.11    0.42
  -1  -6  -1    0.82    0.97
   1   6   1    0.30    0.48
   2   6   1    4.00    0.79
   3   6   1    8.02    1.00
   3   6   1    7.84    0.62
   4   6   1    0.42    0.65
   4   6   1    0.26    0.09
   5   6   1   -0.13    0.09
   5   6   1   -0.83    0.68
   6   6   1    1.74    0.22
   6   6   1    1.17    0.85
   7   6   1    0.29    0.91
   8   6   1    1.08    0.26
   9   6   1    7.05    0.58
  10   6   1    0.00    0.09
  11   6   1    0.21    0.08
  15  -7  -1    0.23    0.06
  14  -7  -1    1.58    0.25
 -14   7   1    3.50    0.60
 -13   7   1    2.85    0.68
  12  -7  -1   11.67    1.79
  11  -7  -1    0.45    0.19
  11  -7  -1    0.92    0.87
  10  -7  -1    1.90    0.84
  10  -7  -1    2.29    0.21
   9  -7  -1    0.32    0.65
   8  -7  -1    1.23    0.76
   8  -7  -1    1.65    0.41
   7  -7  -1   12.67    1.13
   7  -7  -1   13.51    1.63
   6  -7  -1    0.64    0.64
   6  -7  -1    0.60    0.33
   5  -7  -1    3.20    0.52
   5  -7  -1    3.78    1.03
   4  -7  -1   -0.15    0.64
  -4   7   1   -0.02    0.72
   3  -7  -1   13.24    1.35
  -3   7   1   11.13    1.39
   2  -7  -1    0.14    0.57
  -2   7   1    0.17    0.49
   1  -7  -1    0.01    0.63
  -1   7   1   -0.26    0.42
   0  -7  -1    4.65    1.21
   0   7   1    3.06    0.72
   1   7   1    0.83    0.57
   2   7   1    1.52    0.62
   3   7   1   -0.79    0.61
   4   7   1   11.09    1.28
   5   7   1    1.54    0.23
   5   7   1    0.82    0.81
   6   7   1    0.08    0.07
   6   7   1   -1.50    0.80
   7   7   1    0.16    0.08
   8   7   1    0.36    0.10
   9   7   1    0.28    0.10
  10   7   1    0.22    0.09
  11   7   1    0.38    0.08
 -15   8   1    0.25    0.37
 -14   8   1    4.83    0.68
  12  -8  -1    6.84    1.50
  12  -8  -1    7.39    0.61
  11  -8  -1    5.64    0.43
  10  -8  -1    8.99    0.64
  10  -8  -1    7.96    1.53
   9  -8  -1   14.29    1.88
   9  -8  -1   13.37    1.26
   9  -8  -1   14.45    1.02
   8  -8  -1    4.08    1.24
   8  -8  -1    3.43    0.60
   7  -8  -1    9.02    1.41
   7  -8  -1    8.82    0.87
   6  -8  -1   14.23    1.66
   6  -8  -1   13.71    1.18
   5  -8  -1    3.23    0.54
   5  -8  -1    4.02    1.10
   4  -8  -1    5.44    1.08
  -4   8   1    6.40    1.55
   3  -8  -1    0.05    0.55
  -3   8   1    0.10    0.59
   2  -8  -1    3.59    0.93
  -2   8   1    2.14    0.76
   1  -8  -1    1.02    0.69
  -1   8   1    1.22    0.55
   0   8   1    4.18    0.80
   1   8   1    1.48    0.62
   2   8   1    1.37    0.67
   3   8   1   -0.17    0.66
   4   8   1   -1.04    0.71
   4   8   1    0.22    0.08
   5   8   1   -1.30    0.77
   6   8   1    0.04    0.08
   7   8   1    0.08    0.09
   8   8   1    0.15    0.09
   9   8   1   -0.03    0.09
  10   8   1    0.26    0.08
 -15   9   1    0.44    0.32
 -14   9   1    1.56    0.39
  13  -9  -1    0.25    0.17
  12  -9  -1    6.09    1.33
  11  -9  -1   14.85    1.02
  11  -9  -1   11.67    1.89
  10  -9  -1    0.30    0.77
  10  -9  -1    0.66    0.10
   9  -9  -1    0.26    0.77
   9  -9  -1    0.17    0.37
   9  -9  -1    0.10    0.08
   8  -9  -1    0.14    0.09
   8  -9  -1    0.37    0.72
   8  -9  -1    0.23    0.37
   7  -9  -1    1.68    0.85
   7  -9  -1    0.93    0.39
   6  -9  -1   -0.14    0.66
   6  -9  -1    0.14    0.31
   5  -9  -1    4.11    1.13
   4  -9  -1   15.89    1.71
   3  -9  -1   -0.09    0.55
  -3   9   1   -0.03    0.63
  -2   9   1    0.85    0.59
  -1   9   1    1.43    0.60
   0   9   1    1.23    0.56
   1   9   1    0.35    0.59
   2   9   1    5.61    0.45
   2   9   1    4.60    1.00
   3   9   1    7.25    0.57
   4   9   1    4.85    1.22
   4   9   1    6.95    0.54
   5   9   1    6.07    0.51
   7   9   1    1.01    0.28
   8   9   1    0.02    0.08
   9   9   1    0.07    0.08
 -15  10   1    0.28    0.29
  14 -10  -1    0.94    0.17
 -14  10   1    0.82    0.35
  13 -10  -1   -0.03    0.16
  12 -10  -1    0.34    0.10
  12 -10  -1    0.01    0.20
  11 -10  -1    5.83    1.71
  11 -10  -1    7.05    0.52
  10 -10  -1    0.36    0.85
  10 -10  -1    0.16    0.09
   9 -10  -1   -0.12    0.09
   9 -10  -1    0.00    0.83
   8 -10  -1    0.40    0.09
   8 -10  -1    0.31    0.37
   8 -10  -1    0.39    0.83
   7 -10  -1   24.92    2.04
   7 -10  -1   25.52    1.84
   7 -10  -1   27.42    2.67
   6 -10  -1    0.79    0.79
   6 -10  -1    1.07    0.40
   5 -10  -1    0.55    0.35
   5 -10  -1    0.78    0.80
  -1  10   1    4.41    0.87
   0  10   1    0.94    0.64
   0  10   1    0.90    0.23
   1  10   1    0.14    0.07
   1  10   1    0.29    0.61
   2  10   1    3.69    1.04
   2  10   1    3.80    0.35
   3  10   1    0.30    0.80
   3  10   1    1.04    0.24
   4  10   1    0.35    1.00
   5  10   1    8.17    0.65
   6  10   1   -0.14    0.08
   7  10   1    0.15    0.08
   8  10   1    0.07    0.07
   9  10   1    0.95    0.23
 -15  11   1    0.36    0.26
  14 -11  -1    0.12    0.14
 -14  11   1   -0.19    0.30
  13 -11  -1    1.47    0.28
 -13  11   1    1.09    0.37
  12 -11  -1    2.28    0.21
  12 -11  -1    1.74    0.35
  11 -11  -1    4.03    0.32
  10 -11  -1    3.44    0.29
   9 -11  -1    0.01    0.09
   8 -11  -1    3.26    0.27
   7 -11  -1   -0.06    0.08
   7 -11  -1   -0.30    0.37
   6 -11  -1   -0.14    0.09
   6 -11  -1   -0.13    0.35
   5 -11  -1    7.37    0.55
   5 -11  -1    7.66    0.85
  -2  11   1    0.29    0.07
  -1  11   1    0.01    0.07
   0  11   1    2.50    0.32
   1  11   1    0.57    0.09
   2  11   1    0.29    0.08
   3  11   1   -0.06    0.08
   4  11   1   11.59    0.88
   5  11   1   -0.09    0.08
   6  11   1   -0.03    0.07
   7  11   1    0.03    0.08
  -8 -11  -1    1.39    0.22
   8  11   1    1.64    0.26
  14 -12  -1    0.09    0.13
 -14  12   1   -0.03    0.28
  13 -12  -1    0.04    0.17
 -13  12   1    0.13    0.32
  12 -12  -1    0.16    0.20
  12 -12  -1    0.29    0.09
  11 -12  -1    0.15    0.09
  10 -12  -1    6.04    0.46
   9 -12  -1    0.13    0.10
   8 -12  -1    3.57    0.29
   7 -12  -1   -0.15    0.09
   6 -12  -1    0.98    0.13
   5 -12  -1    1.17    0.49
   5 -12  -1    2.23    0.21
   4 -12  -1    1.54    0.18
  -2  12   1    0.80    0.23
  -1  12   1    4.30    0.42
   0  12   1   -0.07    0.08
   1  12   1   -0.07    0.08
   2  12   1    0.09    0.08
   3  12   1   -0.02    0.08
   4  12   1    2.52    0.33
   5  12   1   -0.09    0.08
   6  12   1    0.03    0.08
   7  12   1    0.88    0.26
  14 -13  -1    0.19    0.13
 -14  13   1   -0.07    0.23
  13 -13  -1    0.17    0.17
 -13  13   1   -0.18    0.30
  12 -13  -1    1.68    0.18
  12 -13  -1    1.99    0.33
  11 -13  -1    8.73    0.64
  10 -13  -1    0.44    0.10
   9 -13  -1    0.49    0.11
   8 -13  -1    0.22    0.09
   7 -13  -1    0.01    0.10
   6 -13  -1    8.92    0.66
   5 -13  -1    1.41    0.19
   4 -13  -1    0.74    0.13
   3 -13  -1    0.10    0.12
  -1  13   1    4.24    0.42
   0  13   1   -0.07    0.08
   1  13   1    2.47    0.35
   2  13   1   -0.07    0.09
   3  13   1    1.80    0.33
   4  13   1   -0.07    0.08
   5  13   1    0.40    0.09
   6  13   1    0.11    0.08
  13 -14  -1    0.00    0.15
 -13  14   1   -0.04    0.26
  12 -14  -1   -0.08    0.19
  12 -14  -1    0.12    0.08
 -12  14   1    0.40    0.30
  11 -14  -1    0.37    0.09
  10 -14  -1    1.60    0.18
   9 -14  -1    7.67    0.57
   8 -14  -1    0.43    0.09
   7 -14  -1    0.13    0.10
   6 -14  -1   -0.01    0.11
   5 -14  -1    0.11    0.12
   4 -14  -1    7.65    0.58
   3 -14  -1    0.58    0.13
   2 -14  -1    0.72    0.15
  -1  14   1   -0.10    0.07
   0  14   1   -0.11    0.07
   1  14   1    0.52    0.10
   2  14   1   -0.06    0.07
   3  14   1   -0.01    0.07
   4  14   1    0.11    0.07
  12 -15  -1    0.38    0.18
  12 -15  -1    0.30    0.08
 -12  15   1    0.31    0.27
  11 -15  -1    0.04    0.07
  11 -15  -1   -0.01    0.20
 -11  15   1   -0.09    0.30
  10 -15  -1    0.36    0.09
 -10  15   1    0.88    0.34
   9 -15  -1    0.10    0.10
   8 -15  -1    0.37    0.09
   7 -15  -1   -0.05    0.10
   6 -15  -1    0.21    0.11
   5 -15  -1    3.03    0.28
   4 -15  -1    0.11    0.13
   3 -15  -1    0.84    0.15
   2 -15  -1    0.39    0.14
   1 -15  -1    0.02    0.14
   1  15   1   -0.03    0.06
   2  15   1    0.06    0.06
   3  15   1    0.06    0.05
  11 -16  -1    0.15    0.07
  11 -16  -1   -0.02    0.19
 -11  16   1    0.15    0.27
  10 -16  -1    0.42    0.09
 -10  16   1    0.52    0.31
   9 -16  -1    0.06    0.09
   8 -16  -1    0.32    0.09
   7 -16  -1    2.02    0.20
   6 -16  -1    0.57    0.12
   5 -16  -1    0.22    0.12
   4 -16  -1    2.15    0.25
   3 -16  -1    0.18    0.13
   2 -16  -1    0.29    0.14
   1 -16  -1    0.11    0.13
   0 -16  -1    0.44    0.13
  -1 -16  -1    1.16    0.15
  10 -17  -1    0.30    0.19
  10 -17  -1    0.15    0.07
   9 -17  -1    1.59    0.17
   9 -17  -1    1.92    0.31
   8 -17  -1    0.00    0.09
   7 -17  -1    0.16    0.08
   6 -17  -1    0.31    0.10
   5 -17  -1    0.23    0.11
   4 -17  -1    2.37    0.25
   3 -17  -1    1.49    0.22
   2 -17  -1    0.56    0.13
   1 -17  -1    0.07    0.12
   1 -17  -1   -0.12    0.16
   6 -18  -1    0.14    0.08
   5 -18  -1    0.56    0.11
   0 -18   2    0.74    0.13
   1 -18   2   -0.15    0.12
   2 -18   2   -0.20    0.13
   3 -18   2    0.24    0.13
   4 -18   2    1.04    0.14
   5 -18   2    0.72    0.11
   6 -18   2   -0.07    0.08
   7 -18   2    0.18    0.08
   8 -18   2   -0.02    0.08
   9 -18   2    0.25    0.07
  -2 -17   2    0.02    0.11
  -1 -17   2   -0.15    0.12
   0 -17   2    0.25    0.13
   1 -17   2    0.21    0.14
   2 -17   2    0.07    0.13
   3 -17   2    0.16    0.13
   4 -17   2   11.95    0.88
   5 -17   2   -0.15    0.11
   6 -17   2    0.17    0.10
   7 -17   2    0.67    0.10
   8 -17   2    0.45    0.10
   9 -17   2    0.34    0.08
 -10  17  -2   -0.21    0.33
  10 -17   2    0.22    0.07
   4  16  -2    0.23    0.06
   3  16  -2    0.04    0.06
   2  16  -2   -0.06    0.06
   1  16  -2   -0.08    0.06
   0 -16   2    0.44    0.15
   1 -16   2    1.90    0.23
   2 -16   2    1.42    0.22
   3 -16   2    4.32    0.36
   4 -16   2    0.22    0.13
   5 -16   2    2.87    0.27
   6 -16   2    1.65    0.19
   7 -16   2    0.14    0.08
   8 -16   2   -0.15    0.09
  -9  16  -2   -0.06    0.30
   9 -16   2   -0.04    0.08
 -10  16  -2    1.00    0.30
  10 -16   2    0.86    0.13
 -11  16  -2    0.31    0.27
  11 -16   2    0.29    0.08
   5  15  -2    0.10    0.07
   4  15  -2   -0.10    0.08
   3  15  -2   -0.16    0.07
   1  15  -2   -0.17    0.07
   0  15  -2    0.17    0.07
  -2  15  -2    0.02    0.77
   2 -15   2    0.35    0.12
  -3  15  -2    0.39    0.75
   3 -15   2    0.30    0.12
  -4  15  -2   -0.01    0.89
   4 -15   2    0.21    0.12
   5 -15   2    4.43    0.36
   6 -15   2    0.74    0.12
   7 -15   2    0.70    0.10
  -8  15  -2    0.61    0.37
   8 -15   2    0.53    0.11
   9 -15   2    3.89    0.31
  10 -15   2    4.12    0.32
 -11  15  -2    0.34    0.30
  11 -15   2    0.02    0.08
 -12  15  -2   -0.44    0.26
  12 -15   2    0.05    0.17
  12 -15   2    0.02    0.08
   6  14  -2   -0.09    0.07
   5  14  -2    0.09    0.08
   4  14  -2   -0.16    0.07
   3  14  -2    0.33    0.09
   1  14  -2    0.26    0.09
   1  14  -2   -0.11    0.75
   0  14  -2   -0.37    0.64
   0  14  -2    0.14    0.08
  -1  14  -2   -0.25    0.64
  -1  14  -2   -0.08    0.07
  -2  14  -2    0.02    0.72
   2 -14   2    0.27    0.12
  -3  14  -2   -0.14    0.73
   4 -14   2    4.72    0.38
  -5  14  -2    0.67    0.89
   5 -14   2    0.55    0.12
   6 -14   2    0.17    0.10
  -7  14  -2    0.46    0.35
   8 -14   2    3.58    0.29
  -9  14  -2    0.53    0.38
   9 -14   2    0.14    0.10
 -10  14  -2    2.73    0.54
  10 -14   2    1.27    0.18
 -11  14  -2    1.05    0.33
  11 -14   2    0.48    0.10
 -12  14  -2    0.07    0.29
  12 -14   2    0.07    0.09
 -13  14  -2    0.89    0.27
  13 -14   2    0.65    0.16
   7  13  -2   -0.08    0.07
   6  13  -2   -0.16    0.07
   5  13  -2    1.84    0.29
   4  13  -2    0.02    0.08
   3  13  -2   -0.23    0.77
   2  13  -2   -0.07    0.07
   2  13  -2   -0.27    0.75
   1  13  -2    0.48    0.74
   1  13  -2    0.62    0.10
   0  13  -2    0.09    0.70
   0  13  -2   -0.09    0.07
  -1  13  -2    3.78    0.37
  -1  13  -2    3.37    1.01
  -2  13  -2    0.18    0.06
  -2  13  -2    0.05    0.67
  -3  13  -2    0.06    0.71
   3 -13   2    0.63    0.12
  -4  13  -2    0.60    0.77
   4 -13   2    1.16    0.17
  -5  13  -2    0.62    0.92
   5 -13   2    1.26    0.15
  -6  13  -2    2.10    0.36
   6 -13   2    2.05    0.21
  -7  13  -2    0.23    0.20
   7 -13   2   -0.03    0.09
   8 -13   2    0.19    0.10
  -9  13  -2    5.90    0.66
   9 -13   2    4.84    0.40
 -10  13  -2    1.41    0.39
  10 -13   2    0.76    0.12
 -11  13  -2    8.18    0.74
  11 -13   2    6.62    0.53
 -12  13  -2   -0.23    0.30
  12 -13   2    0.16    0.10
 -13  13  -2    0.14    0.28
  13 -13   2    0.19    0.15
   8  12  -2   -0.06    0.07
   7  12  -2    0.03    0.07
   6  12  -2    0.05    0.08
   5  12  -2    0.64    0.10
   4  12  -2    0.81    0.25
   4  12  -2    1.10    0.81
   3  12  -2    0.91    0.24
   3  12  -2    1.32    0.81
   2  12  -2   -0.15    0.08
   2  12  -2    0.05    0.66
   1  12  -2   -0.15    0.65
   1  12  -2   -0.08    0.07
   0  12  -2    0.05    0.60
   0  12  -2    0.02    0.07
  -1  12  -2    1.32    0.24
  -1  12  -2    1.30    0.66
  -2  12  -2    0.01    0.06
  -2  12  -2   -0.40    0.56
  -3  12  -2    6.25    1.21
  -4  12  -2    1.04    0.79
  -5  12  -2    1.64    0.29
  -5  12  -2    0.74    0.95
   5 -12   2    1.64    0.19
  -6  12  -2    0.26    0.98
  -6  12  -2    0.27    0.18
   6 -12   2   -0.51    0.37
   6 -12   2    0.30    0.10
  -7  12  -2    0.07    0.19
   7 -12   2   -0.05    0.09
   8 -12   2    2.41    0.23
   9 -12   2    2.34    0.22
 -10  12  -2   14.93    1.20
  10 -12   2   14.78    1.07
 -11  12  -2    0.16    0.37
  11 -12   2    0.11    0.10
 -12  12  -2    0.28    0.33
  12 -12   2    0.30    0.10
 -13  12  -2    4.76    0.55
  13 -12   2    4.29    0.41
 -14  12  -2    1.45    0.31
   9  11  -2   -0.06    0.07
   8  11  -2   -0.02    0.08
   7  11  -2    1.14    0.27
   6  11  -2   -0.16    0.08
   5  11  -2   -0.20    0.08
   5  11  -2   -0.45    0.72
   4  11  -2    0.18    0.73
   4  11  -2    0.19    0.09
   3  11  -2    0.10    0.07
   3  11  -2   -0.01    0.73
   2  11  -2    1.40    0.71
   2  11  -2    0.99    0.22
   1  11  -2   -0.01    0.06
   1  11  -2   -0.14    0.54
   0  11  -2    5.77    0.99
   0  11  -2    6.07    0.48
  -1  11  -2    0.44    0.58
  -2  11  -2    5.29    1.03
  -3  11  -2    1.05    0.72
  -4  11  -2    1.13    0.80
  -5  11  -2    7.39    1.54
  -6  11  -2   13.61    1.98
  -6  11  -2   10.82    0.92
   7 -11   2   14.80    1.05
   7 -11   2   13.92    1.29
   8 -11   2    4.08    0.33
   9 -11   2    1.91    0.20
  10 -11   2    7.46    0.56
 -11  11  -2    2.76    0.58
  11 -11   2    2.41    0.24
 -12  11  -2    0.36    0.36
  12 -11   2    0.23    0.19
 -13  11  -2    2.07    0.49
 -14  11  -2    0.95    0.32
  10  10  -2    0.09    0.07
   9  10  -2    0.10    0.08
   8  10  -2    0.29    0.09
   7  10  -2    1.99    0.32
   6  10  -2   -0.55    0.81
   5  10  -2    4.06    1.19
   5  10  -2    6.01    0.49
   4  10  -2    1.50    0.82
   4  10  -2    1.71    0.27
   3  10  -2    2.30    0.28
   3  10  -2    2.74    0.92
   2  10  -2    3.76    0.85
   2  10  -2    3.72    0.34
   1  10  -2    6.59    0.99
   0  10  -2    0.63    0.54
  -1  10  -2    6.15    0.98
  -2  10  -2    6.12    1.04
  -3  10  -2    1.84    0.81
  -4  10  -2    0.25    0.73
  -5  10  -2    0.16    0.89
  -6  10  -2    1.80    1.04
   6 -10   2    0.59    0.35
  -7  10  -2    4.68    1.66
  -7  10  -2    3.78    0.43
   7 -10   2    4.41    0.65
   8 -10   2    0.61    0.39
   8 -10   2    0.68    0.11
   9 -10   2    1.94    0.20
  10 -10   2    0.27    0.10
 -11  10  -2    0.03    0.39
  11 -10   2    0.11    0.10
 -12  10  -2    3.38    0.60
 -13  10  -2    1.98    0.51
 -14  10  -2    0.42    0.34
  14 -10   2    0.18    0.06
  11   9  -2    0.76    0.22
  10   9  -2    0.09    0.08
   9   9  -2    4.10    0.43
   8   9  -2    1.45    0.31
   6   9  -2    2.36    0.37
   6   9  -2    0.14    0.89
   5   9  -2    6.28    0.52
   5   9  -2    3.82    1.11
   5   9  -2    5.89    0.48
   4   9  -2    1.27    0.29
   3   9  -2    2.56    0.85
   2   9  -2    2.00    0.75
   1   9  -2    0.20    0.50
   0   9  -2   15.09    1.44
  -1   9  -2    1.71    0.66
  -2   9  -2    3.67    0.95
  -3   9  -2    0.62    0.72
  -5   9  -2   -0.33    0.79
  -6   9  -2    0.75    0.89
   6  -9   2    0.16    0.32
  -7   9  -2    1.65    1.18
   7  -9   2    0.83    0.36
   8  -9   2    0.16    0.35
   9  -9   2    3.90    0.67
   9  -9   2    3.67    0.30
  10  -9   2    7.53    0.56
 -11   9  -2    7.38    0.83
  11  -9   2    8.46    0.60
 -12   9  -2   -0.21    0.35
 -13   9  -2    0.90    0.37
 -14   9  -2    1.48    0.39
  14  -9   2    0.99    0.20
  11   8  -2    0.10    0.08
  10   8  -2    0.21    0.09
   9   8  -2    3.06    0.37
   8   8  -2    3.23    0.46
   8   8  -2    4.63    0.40
   7   8  -2   19.21    1.41
   7   8  -2   19.55    1.43
   6   8  -2    0.12    0.10
   6   8  -2    0.10    0.07
   6   8  -2   -0.93    0.72
   5   8  -2    0.03    0.06
   5   8  -2    0.17    0.09
   5   8  -2    0.30    0.69
   4   8  -2    2.21    0.72
   4   8  -2    2.32    0.30
   3   8  -2   14.83    1.10
   3   8  -2   15.38    1.44
   2   8  -2   16.01    1.14
   2   8  -2   14.84    1.44
   1   8  -2    1.88    0.68
   0   8  -2    0.10    0.47
  -1   8  -2    0.99    0.59
  -2   8  -2    1.56    0.68
  -3   8  -2    4.30    1.25
  -3   8  -2    4.02    1.11
  -4   8  -2   -0.06    0.85
  -4   8  -2    0.63    0.73
  -5   8  -2    1.13    0.90
  -6   8  -2   -0.10    0.84
   6  -8   2   -0.03    0.29
  -7   8  -2    4.91    1.41
   7  -8   2    4.26    0.61
   8  -8   2    3.90    0.61
   9  -8   2    1.01    0.39
   9  -8   2    0.52    0.10
  10  -8   2    0.49    0.11
 -11   8  -2    0.26    0.39
 -12   8  -2    3.77    0.61
 -13   8  -2    5.23    0.69
 -14   8  -2    0.06    0.38
  14  -8   2    0.02    0.05
  15  -8   2    0.05    0.04
  12   7  -2    0.03    0.08
  11   7  -2    1.31    0.29
  10   7  -2    2.27    0.32
   9   7  -2    1.64    0.29
   8   7  -2    5.01    0.52
   8   7  -2    5.66    0.46
   7   7  -2    1.64    0.21
   7   7  -2   -0.42    0.78
   7   7  -2    1.15    0.31
   6   7  -2    0.06    0.06
   6   7  -2    0.07    0.10
   6   7  -2   -0.15    0.72
   5   7  -2   11.41    1.28
   5   7  -2   11.81    0.88
   4   7  -2    3.56    0.82
   4   7  -2    3.45    0.34
   3   7  -2   14.19    1.06
   3   7  -2   14.71    1.33
   2   7  -2   11.01    1.08
   2   7  -2   10.18    0.79
   1   7  -2    1.90    0.27
   1   7  -2    1.11    0.49
   0   7  -2    1.11    0.48
  -1   7  -2   -0.01    0.50
  -2   7  -2    3.44    0.83
  -2   7  -2    4.11    0.92
  -3   7  -2   19.13    1.93
  -3   7  -2   19.10    1.83
  -4   7  -2    7.05    1.34
  -5   7  -2   12.28    1.60
  -6   7  -2    3.31    1.09
   6  -7   2    3.21    0.53
  -7   7  -2   14.44    1.88
   7  -7   2   14.58    1.21
   8  -7   2    3.31    0.55
   9  -7   2    6.37    0.48
 -10   7  -2    0.49    0.37
  10  -7   2    0.58    0.11
 -11   7  -2    0.01    0.38
 -12   7  -2    0.97    0.38
 -13   7  -2    1.42    0.40
  13  -7   2    0.79    0.22
  14  -7   2    2.90    0.28
  15  -7   2   -0.05    0.04
  12   6  -2    1.01    0.25
  11   6  -2    1.46    0.30
  10   6  -2    1.25    0.25
   9   6  -2   -1.34    0.82
   9   6  -2   -0.04    0.12
   8   6  -2    0.44    0.12
   8   6  -2   -0.52    0.82
   7   6  -2   46.66    3.28
   7   6  -2   49.65    3.30
   7   6  -2   40.86    3.58
   6   6  -2    8.45    1.17
   6   6  -2    9.59    0.71
   5   6  -2    2.35    0.83
   5   6  -2    2.40    0.27
   4   6  -2    3.87    0.82
   4   6  -2    3.63    0.34
   3   6  -2   53.15    3.87
   3   6  -2   51.39    3.72
   2   6  -2    1.92    0.28
   2   6  -2    1.99    0.55
   1   6  -2    5.21    0.65
  -1  -6   2    3.85    0.83
   0   6  -2   16.78    1.32
   0   6  -2   12.33    1.39
  -1   6  -2    4.52    0.76
  -1   6  -2    1.54    0.55
  -1   6  -2    4.67    0.94
   1  -6   2    2.97    0.53
  -2   6  -2   -0.08    0.30
  -2   6  -2    0.26    0.51
  -2   6  -2    0.06    0.52
   2  -6   2    0.00    0.27
  -3   6  -2    0.98    0.68
  -3   6  -2    0.24    0.28
   3  -6   2    0.87    0.55
   3  -6   2    0.50    0.36
  -4   6  -2   32.78    2.80
   4  -6   2   32.57    2.72
  -5   6  -2    3.99    1.14
   5  -6   2    3.76    0.97
   5  -6   2    3.80    0.53
  -6   6  -2   23.39    2.24
   6  -6   2   19.48    2.08
   6  -6   2   23.09    1.69
  -7   6  -2   -0.29    0.81
   7  -6   2    0.30    0.30
   8  -6   2    5.50    0.63
   9  -6   2    2.23    0.24
 -10   6  -2    3.24    0.59
 -11   6  -2    5.06    0.65
 -12   6  -2    0.27    0.39
 -12   6  -2    0.22    0.17
 -13   6  -2    0.38    0.15
 -14   6  -2    0.01    0.13
  14  -6   2    0.02    0.05
  15  -6   2    0.22    0.05
  13   5  -2    0.11    0.07
  12   5  -2    3.22    0.35
  11   5  -2    0.16    0.08
  10   5  -2   -0.87    0.83
  10   5  -2    0.19    0.07
  10   5  -2   -0.19    0.13
   9   5  -2    2.71    0.94
   9   5  -2    4.46    0.35
   9   5  -2    3.57    0.43
   8   5  -2    9.68    0.74
   8   5  -2    7.95    1.19
   8   5  -2    9.52    0.70
   7   5  -2    3.74    0.91
   7   5  -2    4.21    0.35
   7   5  -2    4.46    0.39
   6   5  -2    0.42    0.09
   6   5  -2    0.84    0.63
   5   5  -2    3.65    0.35
   5   5  -2    4.05    0.82
  -5  -5   2    3.49    1.11
   4   5  -2    0.34    0.57
   4   5  -2    0.32    0.07
   3   5  -2   28.11    2.16
   2   5  -2   21.84    1.62
  -2  -5   2   19.02    1.93
   1   5  -2   46.63    3.39
  -1  -5   2   45.70    3.49
   0   5  -2    8.09    0.86
   0   5  -2    5.62    1.00
   0  -5   2    8.77    0.80
  -1   5  -2   16.77    1.48
  -1   5  -2   17.23    1.56
   1  -5   2   15.18    1.33
  -2   5  -2    0.42    0.26
  -2   5  -2    0.95    0.53
   2  -5   2    0.68    0.31
  -3   5  -2   -0.01    0.23
  -3   5  -2    0.37    0.55
   3  -5   2    0.08    0.29
  -4   5  -2    5.72    1.05
  -4   5  -2    6.26    0.75
   4  -5   2    6.22    0.95
  -5   5  -2    9.37    1.31
   5  -5   2    9.20    0.79
   5  -5   2    8.67    1.20
  -6   5  -2    1.09    0.87
   6  -5   2    0.94    0.31
   6  -5   2    0.65    0.63
  -7   5  -2   -0.09    0.95
   7  -5   2    0.65    0.29
   7  -5   2    0.09    0.62
 -10   5  -2    3.76    0.59
  12  -5   2    0.28    0.07
 -13   5  -2    5.97    0.54
  13  -5   2    7.42    0.54
 -14   5  -2    0.18    0.13
  15  -5   2    0.06    0.05
  13   4  -2    0.10    0.07
  12   4  -2    0.89    0.22
  11   4  -2    0.33    1.30
  10   4  -2    0.75    0.21
  10   4  -2    2.67    0.87
   9   4  -2    0.78    0.75
   8   4  -2    7.49    0.59
   8   4  -2    6.90    0.54
   8   4  -2    6.86    1.05
   7   4  -2    3.85    0.84
   7   4  -2    3.71    0.36
   6   4  -2   22.05    1.87
   5   4  -2   21.40    1.75
  -5  -4   2   19.70    1.93
   4   4  -2    7.16    0.83
   3   4  -2   25.34    1.92
  -3  -4   2   25.08    2.25
   2   4  -2    3.19    0.49
  -2  -4   2    1.92    0.60
   1   4  -2   15.20    1.21
  -1  -4   2   14.05    1.46
   0   4  -2  110.58    7.34
   0   4  -2  102.15    7.44
   0  -4   2   92.25    7.29
  -1   4  -2  143.94    9.79
  -1   4  -2  131.75    9.84
   1  -4   2  134.02    9.79
  -2   4  -2   68.78    5.01
  -2   4  -2   68.17    4.88
   2  -4   2   64.75    4.93
  -3   4  -2   49.94    3.77
  -3   4  -2   48.84    3.64
   3  -4   2   48.29    3.71
  -4   4  -2   15.72    1.59
   4  -4   2   16.80    1.21
   4  -4   2   14.73    1.48
   4  -4   2   16.07    1.56
  -5   4  -2   12.66    1.52
   5  -4   2   12.35    1.40
   5  -4   2   13.84    1.03
  -6   4  -2    4.70    1.34
   6  -4   2    5.01    1.05
   6  -4   2    5.25    0.56
   7  -4   2   25.05    2.38
   8  -4   2    0.39    0.62
  11  -4   2   -0.02    0.06
  12  -4   2    5.53    0.45
 -13   4  -2    0.04    0.17
  13  -4   2    0.01    0.05
 -14   4  -2    0.23    0.15
  14   3  -2    0.90    0.19
  13   3  -2    1.95    0.25
  12   3  -2    2.02    0.26
  11   3  -2    2.02    0.26
  11   3  -2    2.94    0.96
  10   3  -2    8.73    1.34
  10   3  -2   11.82    0.88
  10   3  -2   11.60    0.84
   9   3  -2    0.55    0.68
   8   3  -2    1.26    0.67
   7   3  -2   16.29    1.54
   6   3  -2    6.46    0.92
  -6  -3   2    6.02    1.02
   5   3  -2    0.11    0.48
  -5  -3   2    0.30    0.36
   4   3  -2    5.83    0.71
  -4  -3   2    6.89    1.10
   3   3  -2    1.24    0.38
  -3  -3   2    1.39    0.52
   2   3  -2   92.00    6.79
  -2  -3   2   97.92    6.95
   1   3  -2   12.46    0.90
   1   3  -2    8.13    1.02
  -1  -3   2    9.60    1.16
   0   3  -2    2.85    0.51
   0   3  -2    1.91    0.62
   0   3  -2    1.04    0.54
   0  -3   2    2.50    0.42
  -1   3  -2    6.70    0.81
  -1   3  -2    7.97    0.67
   1  -3   2    6.43    0.70
  -2   3  -2   40.04    2.97
  -2   3  -2   39.71    3.09
   2  -3   2   40.32    3.03
  -3   3  -2   16.20    1.40
  -3   3  -2   15.99    1.57
   3  -3   2   16.31    1.49
  -4   3  -2   16.80    1.64
   4  -3   2   16.89    1.26
   4  -3   2   17.05    1.58
   4  -3   2   16.51    1.56
   5  -3   2   27.99    2.01
   5  -3   2   26.29    2.33
  -6   3  -2   -0.15    1.05
   6  -3   2    0.30    0.66
  -7   3  -2    0.55    1.15
   7  -3   2    0.04    0.56
   8  -3   2    0.46    0.67
  10  -3   2    2.41    0.27
  11  -3   2    5.61    0.46
  12  -3   2    4.63    0.40
 -13   3  -2    1.18    0.21
  13  -3   2    1.62    0.22
 -14   3  -2    0.02    0.15
  14  -3   2    0.00    0.05
  14   2  -2    0.63    0.18
  13   2  -2    0.09    0.06
  12   2  -2    3.32    0.33
  11   2  -2    1.03    0.23
  11   2  -2    1.99    0.40
  11   2  -2    1.36    0.76
  10   2  -2    1.55    0.23
  10   2  -2    1.64    0.79
   9   2  -2    1.66    0.73
   9   2  -2    1.68    0.20
   9   2  -2    1.09    0.18
   8   2  -2   -0.18    0.48
   7   2  -2   10.55    1.18
   6   2  -2    7.63    0.97
  -6  -2   2    8.00    1.09
   5   2  -2    1.89    0.51
  -5  -2   2    0.95    0.38
   4   2  -2   -0.03    0.33
  -4  -2   2    0.01    0.29
   3   2  -2   48.36    3.54
   2   2  -2    9.17    0.81
   1   2  -2    9.79    0.99
   0  -2   2    0.58    0.20
  -1   2  -2    6.18    0.57
   1  -2   2    6.56    0.63
  -2   2  -2   28.66    2.22
  -2   2  -2   28.23    2.31
   2  -2   2   29.67    2.27
  -3   2  -2  109.04    8.18
  -3   2  -2  110.91    8.12
   3  -2   2  116.87    7.97
   3  -2   2  110.86    8.16
  -4   2  -2   20.59    1.73
   4  -2   2   20.63    1.49
   4  -2   2   19.40    1.77
   4  -2   2   20.01    1.78
  -5   2  -2   13.00    1.70
   5  -2   2   11.31    1.30
  -6   2  -2    1.43    1.12
   6  -2   2    1.53    0.72
   7  -2   2   10.04    1.36
   8  -2   2   10.62    1.48
   9  -2   2    0.43    0.86
   9  -2   2    0.20    0.06
  10  -2   2    0.65    0.19
  11  -2   2    0.79    0.21
  12  -2   2    0.92    0.21
  13  -2   2    0.97    0.20
 -14   2  -2   -0.20    0.15
  14  -2   2   -0.03    0.05
  14   1  -2    0.18    0.06
  13   1  -2    1.11    0.23
  12   1  -2    3.69    0.98
  11   1  -2    1.99    0.26
  11   1  -2    3.68    1.02
  10   1  -2    3.07    0.29
  10   1  -2    2.96    0.87
   9   1  -2    8.03    0.58
   9   1  -2    8.40    1.12
   9   1  -2    7.56    0.59
   8   1  -2    2.79    0.79
   7   1  -2    2.20    0.79
  -7  -1   2    2.47    0.84
   6   1  -2   -0.09    0.51
  -6  -1   2   -0.02    0.36
   5   1  -2    1.24    0.50
  -5  -1   2    0.68    0.33
   4   1  -2    1.49    0.44
  -4  -1   2    1.36    0.35
   3   1  -2  187.57   13.75
  -3  -1   2  197.74   13.79
   1   1  -2   67.28    4.86
  -1   1  -2    5.76    0.58
   1  -1   2    5.70    0.59
  -2   1  -2  179.94   13.00
   2  -1   2  175.69   13.01
   2  -1   2  188.30   12.88
  -3   1  -2   89.96    6.26
   3  -1   2   77.23    6.14
  -4   1  -2   28.02    2.21
  -4   1  -2   27.65    2.39
   4  -1   2   24.61    2.17
   4  -1   2   26.24    2.23
  -5   1  -2   13.03    1.72
   5  -1   2   12.61    1.35
  -6   1  -2    8.68    1.69
   6  -1   2    9.75    1.24
   7  -1   2    2.37    0.83
   8  -1   2    6.17    1.17
   9  -1   2    4.82    1.51
  10  -1   2    6.42    0.51
  11  -1   2    0.30    0.07
  12  -1   2    3.84    0.35
  13  -1   2    0.00    0.06
 -14   1  -2    0.66    0.17
 -14   1  -2    0.53    0.17
  15   0  -2    0.69    0.16
  14   0  -2    0.19    0.06
  13   0  -2    5.66    0.47
  12   0  -2    3.15    0.97
  11   0  -2    6.66    0.52
  11   0  -2    5.46    1.14
  10   0  -2    1.53    0.69
  10   0  -2    1.00    0.19
   9   0  -2    8.40    1.18
   8   0  -2    0.63    0.62
   7   0  -2   -0.06    0.49
  -7   0   2    0.26    0.38
   6   0  -2   41.34    3.16
  -6   0   2   39.33    3.19
   5   0  -2   10.08    1.04
  -5   0   2   10.25    1.07
   4   0  -2    2.63    0.58
  -4   0   2    2.20    0.62
   3   0  -2   92.32    6.67
  -3   0   2   92.29    6.67
   0   0  -2   35.33    2.59
   0   0  -2   31.23    2.58
   0   0   2   40.61    2.60
  -1   0  -2    2.51    0.65
  -1   0  -2    2.64    0.51
   1   0   2    3.39    0.51
  -2   0  -2    5.22    0.83
  -2   0  -2    5.00    1.18
   2   0   2    5.34    0.82
  -3   0  -2   52.42    3.84
  -3   0  -2   50.63    3.68
   3   0   2   42.52    3.60
  -4   0  -2   12.56    1.56
  -4   0  -2   13.64    1.31
   4   0   2   12.92    1.25
  -5   0  -2   21.17    2.28
   5   0   2   21.44    1.89
  -6   0  -2   19.63    2.38
   6   0   2   20.49    1.88
   7   0   2   20.27    1.93
   8   0   2    3.66    0.96
   9   0   2    3.79    0.34
  10   0   2    2.16    0.27
  11   0   2    2.32    0.28
  12   0   2    7.92    0.61
 -13   0  -2    0.16    0.19
  13   0   2    0.07    0.06
  14   0   2    0.60    0.17
  15  -1  -2    1.17    0.19
  14  -1  -2    0.96    0.21
  13  -1  -2    4.94    0.42
  12  -1  -2    1.28    0.70
  11  -1  -2    5.88    0.48
  11  -1  -2    6.90    1.16
  10  -1  -2    3.32    0.32
  10  -1  -2    4.64    1.06
   9  -1  -2    2.07    0.77
   8  -1  -2   21.91    2.01
   7  -1  -2    0.68    0.59
  -7   1   2    0.23    0.37
   6  -1  -2    5.89    0.90
  -6   1   2    5.72    0.87
   5  -1  -2   18.36    1.54
  -5   1   2   16.99    1.53
   4  -1  -2   12.45    1.15
  -4   1   2   11.74    1.17
   3  -1  -2   30.50    2.33
  -3   1   2   29.79    2.31
   2  -1  -2   49.45    3.52
  -2   1   2   48.78    3.56
   1  -1  -2   17.42    1.30
   1  -1  -2   17.69    1.27
   0  -1  -2    1.48    0.50
  -1  -1  -2   20.47    1.98
  -1  -1  -2   25.66    1.80
  -1  -1  -2   18.99    2.02
  -2  -1  -2    0.06    0.08
  -2  -1  -2   -0.15    0.92
  -2  -1  -2   -0.17    0.59
  -3  -1  -2   36.85    3.01
  -3  -1  -2   37.77    2.79
   3   1   2   31.52    2.66
  -4  -1  -2    0.86    0.38
  -4  -1  -2    1.44    0.93
   4   1   2    1.15    0.48
  -5  -1  -2   24.21    2.59
   5   1   2   23.98    2.04
   6   1   2   18.16    1.69
   7   1   2    4.00    0.91
   8   1   2    5.38    0.97
   8   1   2    4.56    0.38
   9   1   2   20.52    1.49
  10   1   2    0.89    0.23
  11   1   2    0.01    0.07
  12   1   2   -0.07    0.06
 -13  -1  -2    0.03    0.18
  13   1   2    0.02    0.06
  15  -2  -2    1.97    0.23
  14  -2  -2    0.05    0.06
  13  -2  -2    0.00    0.06
  12  -2  -2    1.56    0.74
  11  -2  -2   -0.05    0.07
  11  -2  -2    0.14    0.72
  10  -2  -2    1.62    0.79
   9  -2  -2   16.25    1.71
   8  -2  -2   22.65    2.08
   7  -2  -2    0.18    0.59
  -7   2   2    0.19    0.36
   6  -2  -2    0.61    0.52
  -6   2   2    0.38    0.32
   5  -2  -2   46.26    3.54
  -5   2   2   45.78    3.50
   4  -2  -2  518.30   38.12
   4  -2  -2  546.31   37.99
  -4   2   2  540.85   38.10
   3  -2  -2   42.35    3.04
   3  -2  -2   40.66    3.17
  -3   2   2   43.29    3.15
   2  -2  -2    0.62    0.39
   2  -2  -2    0.76    0.20
  -2   2   2    0.66    0.26
   1  -2  -2  123.73    9.05
  -1   2   2  128.37    9.04
   0  -2  -2  129.64   10.16
   0   2   2  151.65   10.14
  -1  -2  -2   53.12    4.81
  -1  -2  -2   70.34    4.80
   1   2   2   63.41    4.62
  -2  -2  -2   35.88    2.53
  -2  -2  -2   28.45    2.73
   2   2   2   30.37    2.39
  -3  -2  -2    4.62    0.78
  -3  -2  -2    4.62    1.26
   3   2   2    4.92    0.63
  -4  -2  -2    4.33    1.41
   4   2   2    4.91    0.73
  -5  -2  -2    2.92    1.33
   5   2   2    5.14    0.79
   6   2   2    2.31    0.68
   7   2   2    0.75    0.63
   8   2   2    2.91    0.95
   9   2   2    0.07    0.07
  10   2   2    1.90    0.26
  11   2   2    0.33    0.08
  12   2   2    0.21    0.07
 -13  -2  -2    1.38    0.20
  15  -3  -2    4.02    0.35
  14  -3  -2   15.11    1.11
  13  -3  -2    1.12    0.22
  12  -3  -2    0.92    0.80
  11  -3  -2   13.55    1.73
  10  -3  -2    2.29    0.87
   9  -3  -2    4.87    1.04
   8  -3  -2    5.33    1.02
   7  -3  -2   15.75    1.58
  -7   3   2   14.23    1.48
   6  -3  -2    8.69    1.11
  -6   3   2    7.81    0.98
   5  -3  -2   12.88    1.27
   5  -3  -2   12.50    1.00
  -5   3   2   12.45    1.20
   4  -3  -2  210.10   15.77
   4  -3  -2  222.94   15.63
  -4   3   2  226.02   15.74
   3  -3  -2  516.22   37.05
   3  -3  -2  504.13   37.17
  -3   3   2  545.76   37.12
   2  -3  -2   15.53    1.43
  -2   3   2   17.74    1.38
   1  -3  -2  220.31   14.27
  -1   3   2  177.44   14.26
   0  -3  -2    5.62    1.12
   0   3   2    5.44    1.08
  -1  -3  -2    0.76    0.90
   1   3   2    0.34    0.35
   1   3   2    0.10    0.33
  -2  -3  -2    4.05    1.48
   2   3   2    4.42    0.60
  -3  -3  -2    0.00    1.26
   3   3   2    0.09    0.43
  -4  -3  -2    4.88    1.71
   4   3   2    3.78    0.78
   5   3   2    9.22    1.08
   6   3   2    0.98    0.62
   7   3   2    0.95    0.67
   8   3   2    2.10    1.05
   9   3   2    0.87    0.22
  10   3   2    0.20    0.08
  11   3   2   -0.02    0.08
 -12  -3  -2    1.71    0.27
  15  -4  -2    4.83    0.40
  14  -4  -2    0.80    0.20
  13  -4  -2    1.47    0.85
  12  -4  -2    2.30    0.95
  11  -4  -2    9.78    1.46
  10  -4  -2    8.11    1.28
   9  -4  -2    2.40    0.86
   8  -4  -2    7.80    1.19
   7  -4  -2    1.61    0.69
  -7   4   2    0.63    0.64
   6  -4  -2    3.66    0.94
   6  -4  -2    4.12    0.51
  -6   4   2    3.85    0.77
   5  -4  -2   -0.01    0.46
   5  -4  -2    0.20    0.22
  -5   4   2   -0.06    0.28
   4  -4  -2   20.78    1.80
   4  -4  -2   20.20    1.56
  -4   4   2   21.58    1.70
   3  -4  -2  128.23   10.02
  -3   4   2  149.01    9.97
   2  -4  -2   77.33    5.69
  -2   4   2   78.15    5.69
   1  -4  -2    2.76    0.79
  -1   4   2    1.38    0.57
   0  -4  -2    6.76    1.04
   0   4   2    4.57    0.94
   0   4   2    5.21    0.65
  -1  -4  -2   -0.36    0.87
   1   4   2    0.18    0.36
   1   4   2    0.07    0.39
  -2  -4  -2   10.47    1.93
   2   4   2   14.82    1.22
  -3  -4  -2   12.09    2.38
   3   4   2   15.76    1.38
  -4  -4  -2    1.13    2.17
   4   4   2    1.70    0.62
   5   4   2   12.76    1.30
   6   4   2    4.01    0.87
   7   4   2    5.11    0.98
   7   4   2    3.67    0.33
   8   4   2    0.81    0.21
   9   4   2    5.35    0.46
  10   4   2    0.07    0.08
  11   4   2   -0.03    0.08
 -12  -4  -2    0.34    0.16
  15  -5  -2    2.29    0.25
  14  -5  -2    0.73    0.21
  13  -5  -2    3.55    1.23
  12  -5  -2    7.91    1.40
  11  -5  -2    0.73    0.80
  10  -5  -2    0.50    0.75
   9  -5  -2    0.34    0.61
   8  -5  -2    0.07    0.58
   7  -5  -2    1.11    0.34
   7  -5  -2    1.18    0.71
   6  -5  -2    3.38    0.92
   6  -5  -2    4.43    0.53
  -6   5   2    3.65    0.80
   5  -5  -2    0.31    0.52
   5  -5  -2    0.39    0.25
  -5   5   2    0.19    0.34
   4  -5  -2    2.11    0.75
   4  -5  -2    2.05    0.37
  -4   5   2    2.45    0.58
  -4   5   2    2.76    1.21
   3  -5  -2    0.33    0.46
  -3   5   2    0.91    0.62
  -3   5   2    0.43    0.33
   2  -5  -2    3.28    0.70
  -2   5   2    2.26    0.82
  -2   5   2    2.78    0.65
  -1   5   2   11.98    1.10
  -1   5   2   12.75    1.42
   0  -5  -2    0.15    0.69
   0   5   2   -0.07    0.40
   0   5   2    0.56    0.50
  -1  -5  -2   11.25    1.69
   1   5   2   10.82    1.07
  -2  -5  -2   19.90    2.57
   2   5   2   23.13    1.85
  -3  -5  -2    1.47    1.43
   3   5   2    1.46    0.26
   3   5   2    1.44    0.65
   4   5   2    3.74    0.42
   4   5   2    5.64    0.86
   5   5   2    1.01    0.67
   6   5   2    0.09    0.68
   7   5   2    0.30    0.07
   8   5   2    0.28    0.08
   9   5   2    0.10    0.09
  10   5   2    1.75    0.30
 -11  -5  -2    0.43    0.17
  15  -6  -2    7.58    0.58
  14  -6  -2    0.40    0.08
  12  -6  -2    0.59    0.84
  11  -6  -2    5.37    0.48
  11  -6  -2    5.95    1.32
  10  -6  -2    1.03    0.14
  10  -6  -2    1.04    0.19
  10  -6  -2    1.21    0.85
   9  -6  -2    0.18    0.58
   8  -6  -2    3.35    0.52
   8  -6  -2    2.56    0.93
   7  -6  -2   -0.07    0.28
   7  -6  -2    0.05    0.59
   6  -6  -2    0.36    0.29
   6  -6  -2   -0.03    0.55
   5  -6  -2    0.08    0.58
   5  -6  -2    0.13    0.27
  -5   6   2    0.29    0.43
   4  -6  -2    1.75    0.32
   4  -6  -2    2.02    0.68
  -4   6   2    0.86    0.42
   3  -6  -2    9.38    1.08
  -3   6   2    7.61    1.09
  -3   6   2    8.12    1.10
  -2   6   2    3.01    0.70
  -2   6   2    2.68    0.73
  -1   6   2    4.93    0.75
   0  -6  -2    3.17    1.17
   0   6   2    2.07    0.67
  -1  -6  -2    1.84    1.11
   1   6   2    0.99    0.56
  -2  -6  -2    6.23    1.82
   2   6   2    4.72    0.86
   3   6   2   -0.01    0.63
   4   6   2   19.86    1.81
   5   6   2   -0.60    0.73
   6   6   2   -0.09    0.07
   7   6   2    0.01    0.08
   8   6   2    0.04    0.09
   9   6   2    1.04    0.31
  10   6   2    0.23    0.09
  11   6   2   -0.02    0.08
  15  -7  -2    6.08    0.48
 -14   7   2   16.00    1.35
  12  -7  -2    0.52    0.75
  12  -7  -2    0.07    0.16
  11  -7  -2    0.06    0.18
  11  -7  -2    0.01    0.75
  10  -7  -2    0.03    0.70
  10  -7  -2   -0.02    0.08
   9  -7  -2    2.25    0.91
   8  -7  -2    3.02    1.12
   8  -7  -2    3.29    0.55
   7  -7  -2    1.64    0.38
   7  -7  -2    1.61    0.79
   6  -7  -2    6.00    0.69
   6  -7  -2    6.89    1.15
   5  -7  -2   17.32    1.42
   5  -7  -2   18.46    1.84
   4  -7  -2   12.49    1.42
   3  -7  -2    0.02    0.57
   2  -7  -2    0.05    0.54
  -2   7   2    0.22    0.49
   1  -7  -2    1.93    0.77
  -1   7   2    0.90    0.50
   0  -7  -2    2.86    1.09
   0   7   2    1.69    0.60
   1   7   2   14.85    1.40
   2   7   2   -0.40    0.57
   3   7   2    1.76    0.76
   4   7   2    0.79    0.84
   4   7   2    1.23    0.23
   5   7   2    0.13    0.07
   6   7   2    0.32    0.09
   7   7   2   -0.11    0.09
   8   7   2    0.40    0.10
   9   7   2    3.26    0.37
  10   7   2   -0.05    0.08
 -15   8   2    0.43    0.35
 -14   8   2    2.29    0.48
  13  -8  -2    0.32    0.17
  12  -8  -2    1.39    0.93
  12  -8  -2    1.12    0.22
  11  -8  -2    1.55    0.96
  11  -8  -2    1.94    0.20
  11  -8  -2    2.51    0.33
  10  -8  -2    0.15    0.08
  10  -8  -2    0.20    0.74
   9  -8  -2   10.87    1.09
   9  -8  -2   11.81    1.64
   9  -8  -2   11.95    0.85
   8  -8  -2    0.08    0.32
   8  -8  -2    1.11    0.77
   7  -8  -2    1.30    0.76
   7  -8  -2    0.82    0.35
   6  -8  -2    3.43    0.54
   6  -8  -2    3.53    1.07
   5  -8  -2    3.82    0.55
   5  -8  -2    4.70    1.07
   4  -8  -2   17.76    1.79
   3  -8  -2    1.67    0.68
   2  -8  -2    2.21    0.85
   1  -8  -2    4.83    1.12
   0  -8  -2    6.74    1.45
   3   8   2    1.07    0.23
   4   8   2   -0.05    0.07
   5   8   2    0.18    0.08
   6   8   2    0.04    0.09
   7   8   2    0.96    0.28
   8   8   2    4.55    0.43
   9   8   2    0.22    0.08
 -10  -8  -2   -0.10    0.13
  15  -9  -2    0.89    0.21
 -15   9   2    1.56    0.34
  14  -9  -2    0.92    0.17
 -14   9   2    0.43    0.39
  13  -9  -2    0.75    0.19
  12  -9  -2    0.17    0.88
  12  -9  -2    0.15    0.19
  11  -9  -2    1.38    0.25
  11  -9  -2    1.85    0.18
  11  -9  -2    1.29    0.92
  10  -9  -2   20.34    2.38
  10  -9  -2   21.45    1.51
   9  -9  -2   12.96    1.24
   9  -9  -2   13.86    1.87
   9  -9  -2   13.82    0.98
   8  -9  -2   -0.25    0.33
   8  -9  -2    0.39    0.75
   8  -9  -2    0.05    0.08
   7  -9  -2   -0.27    0.31
   7  -9  -2    0.20    0.69
   6  -9  -2    1.00    0.39
   6  -9  -2    1.19    0.78
   5  -9  -2    1.50    0.80
   5  -9  -2    1.52    0.37
   4  -9  -2    1.48    0.74
   3  -9  -2    6.80    1.12
   2  -9  -2   -0.37    0.63
   1   9   2    0.99    0.23
   2   9   2    0.01    0.07
   3   9   2    2.22    0.28
   4   9   2    2.59    0.31
   5   9   2   -0.07    0.08
   6   9   2    1.58    0.28
   7   9   2    1.78    0.29
   8   9   2    1.19    0.26
  -9  -9  -2    0.49    0.15
   9   9   2    1.19    0.22
 -15  10   2    0.31    0.30
  14 -10  -2    1.22    0.24
 -14  10   2    1.41    0.38
  13 -10  -2    0.71    0.19
  12 -10  -2    9.27    0.59
  12 -10  -2    6.30    0.66
  11 -10  -2    0.46    0.90
  11 -10  -2    0.03    0.09
  10 -10  -2   10.11    1.77
  10 -10  -2   10.98    0.79
   9 -10  -2    0.23    0.88
   9 -10  -2   -0.11    0.09
   8 -10  -2    6.45    0.80
   8 -10  -2    6.22    0.46
   8 -10  -2    5.65    1.37
   7 -10  -2    8.03    0.85
   7 -10  -2    7.68    0.56
   7 -10  -2    7.09    1.34
   6 -10  -2    1.15    0.38
   6 -10  -2    0.69    0.78
   5 -10  -2    0.47    0.77
   5 -10  -2    0.14    0.32
   4 -10  -2    0.42    0.69
   3 -10  -2    4.06    1.03
  -1  10   2    1.99    0.29
   0  10   2    1.04    0.26
   1  10   2    2.52    0.30
   2  10   2    0.06    0.07
   3  10   2    0.21    0.08
   4  10   2    0.14    0.08
   5  10   2    0.27    0.09
   6  10   2    0.13    0.08
   7  10   2    0.10    0.08
   8  10   2    1.04    0.25
  15 -11  -2    0.45    0.12
 -15  11   2    0.53    0.26
  14 -11  -2    1.30    0.24
 -14  11   2    1.78    0.46
  13 -11  -2   -0.11    0.17
  12 -11  -2    0.00    0.20
  12 -11  -2    0.05    0.09
  11 -11  -2    0.31    0.78
  11 -11  -2    0.33    0.09
  10 -11  -2    2.83    0.24
  10 -11  -2    2.50    1.10
   9 -11  -2    8.76    0.64
   9 -11  -2    8.58    1.75
   8 -11  -2    2.94    0.24
   8 -11  -2    2.08    0.98
   7 -11  -2    0.52    0.75
   7 -11  -2    0.09    0.39
   7 -11  -2    0.11    0.09
   6 -11  -2    0.25    0.10
   6 -11  -2    0.28    0.39
   6 -11  -2   -0.06    0.77
   5 -11  -2    3.34    0.62
   5 -11  -2    2.84    0.25
   4 -11  -2    2.19    0.47
   4 -11  -2    2.26    0.21
  -2  11   2   -0.01    0.07
  -1  11   2    0.14    0.07
   0  11   2    0.02    0.08
   1  11   2   12.97    0.98
   2  11   2    1.28    0.28
   3  11   2    0.18    0.09
   4  11   2    0.12    0.08
   5  11   2    1.22    0.27
   6  11   2    0.34    0.08
  -7 -11  -2    0.15    0.19
   7  11   2    1.18    0.25
  14 -12  -2    1.27    0.24
 -14  12   2    2.11    0.43
  13 -12  -2   -0.13    0.16
  12 -12  -2    0.27    0.09
  12 -12  -2    0.13    0.20
  11 -12  -2    5.16    0.39
  10 -12  -2    5.68    0.43
   9 -12  -2    3.12    0.27
   8 -12  -2    0.03    0.08
   7 -12  -2    1.46    0.18
   6 -12  -2    1.22    0.17
   5 -12  -2    1.11    0.17
   4 -12  -2    3.07    0.26
   4 -12  -2    1.71    0.51
  -2  12   2    4.44    0.42
  -1  12   2    0.61    0.10
   0  12   2    0.37    0.09
   1  12   2    0.22    0.09
   2  12   2    0.11    0.09
   3  12   2    0.24    0.08
   4  12   2   -0.02    0.08
   5  12   2    0.36    0.08
  14 -13  -2    0.01    0.13
 -14  13   2    0.23    0.25
  13 -13  -2    0.56    0.18
 -13  13   2    1.26    0.30
  12 -13  -2    0.10    0.19
  12 -13  -2    0.01    0.08
  11 -13  -2    0.06    0.21
  11 -13  -2    0.03    0.08
  10 -13  -2    1.72    0.18
   9 -13  -2    0.62    0.11
   8 -13  -2   -0.06    0.08
   7 -13  -2    1.05    0.16
   6 -13  -2   -0.01    0.11
   5 -13  -2    1.70    0.21
   4 -13  -2    0.28    0.12
   3 -13  -2   33.37    2.38
  -1  13   2   -0.05    0.07
   0  13   2   -0.07    0.08
   1  13   2    1.27    0.30
   2  13   2    0.00    0.08
   3  13   2    3.00    0.36
   4  13   2    0.02    0.08
   5  13   2    0.80    0.24
  13 -14  -2    1.54    0.26
 -13  14   2    1.05    0.29
  12 -14  -2    0.56    0.09
  12 -14  -2    0.76    0.20
  11 -14  -2    0.08    0.08
  11 -14  -2    0.23    0.21
  10 -14  -2    1.19    0.16
   9 -14  -2    9.68    0.71
   8 -14  -2    0.66    0.10
   7 -14  -2   -0.17    0.09
   6 -14  -2    0.83    0.13
   5 -14  -2    0.58    0.14
   4 -14  -2    2.40    0.25
   3 -14  -2   12.26    0.90
   2 -14  -2    6.41    0.50
   0  14   2    3.22    0.35
   1  14   2    1.83    0.27
   2  14   2    0.05    0.07
   3  14   2   -0.01    0.07
   4  14   2    0.10    0.06
  12 -15  -2    0.36    0.08
  12 -15  -2    0.06    0.19
 -12  15   2    0.30    0.27
  11 -15  -2   -0.01    0.07
  11 -15  -2    0.22    0.20
 -11  15   2    0.08    0.30
  10 -15  -2    0.41    0.09
  10 -15  -2    0.42    0.22
   9 -15  -2    3.68    0.30
   8 -15  -2    0.45    0.10
   7 -15  -2    2.75    0.25
   6 -15  -2    0.22    0.12
   5 -15  -2    1.54    0.21
   4 -15  -2    2.69    0.27
   3 -15  -2    0.93    0.16
   2 -15  -2    2.58    0.27
   1 -15  -2    0.45    0.14
  11 -16  -2    0.04    0.07
  11 -16  -2   -0.10    0.17
 -11  16   2    0.10    0.25
  10 -16  -2    0.87    0.13
  10 -16  -2    0.94    0.21
   9 -16  -2    0.04    0.20
   9 -16  -2    0.13    0.09
   8 -16  -2    0.28    0.09
   7 -16  -2    0.18    0.09
   6 -16  -2    0.17    0.11
   5 -16  -2   -0.01    0.12
   4 -16  -2    0.23    0.13
   3 -16  -2    2.25    0.25
   2 -16  -2    1.49    0.20
   2 -16  -2    1.05    0.21
   1 -16  -2    0.29    0.13
   0 -16  -2    0.91    0.13
  -1 -16  -2    0.31    0.18
   9 -17  -2    0.08    0.08
   9 -17  -2    0.09    0.17
   8 -17  -2    0.14    0.09
   8 -17  -2   -0.07    0.17
   7 -17  -2    0.42    0.09
   6 -17  -2    0.13    0.10
   5 -17  -2   -0.03    0.10
   4 -17  -2    0.79    0.13
   3 -17  -2    3.05    0.28
   2 -17  -2   -0.04    0.11
   3 -19   3    0.27    0.11
   4 -19   3    0.03    0.09
   5 -19   3    0.06    0.08
   6 -19   3    0.42    0.09
   0 -18   3    0.98    0.15
   1 -18   3    1.62    0.22
   2 -18   3    0.29    0.14
   3 -18   3    0.08    0.13
   4 -18   3    2.89    0.26
   5 -18   3    1.92    0.20
   6 -18   3    1.69    0.17
   7 -18   3    0.60    0.10
   8 -18   3    0.11    0.08
   9 -18   3    0.37    0.08
  -2 -17   3   -0.47    0.12
  -1 -17   3   -0.10    0.13
   0 -17   3    0.56    0.14
   1 -17   3    0.37    0.14
   2 -17   3    0.23    0.13
   3 -17   3    0.48    0.14
   4 -17   3    0.13    0.13
   5 -17   3    1.68    0.20
   6 -17   3    0.00    0.09
   7 -17   3    0.00    0.08
   8 -17   3    2.81    0.25
   9 -17   3    0.04    0.08
 -10  17  -3    0.70    0.28
  10 -17   3    1.13    0.13
   4  16  -3   -0.02    0.07
   3  16  -3    0.16    0.07
   2  16  -3   -0.08    0.08
   1  16  -3   -0.11    0.06
   0 -16   3    0.15    0.15
   1 -16   3   -0.18    0.13
   2 -16   3    0.95    0.15
   3 -16   3   -0.13    0.13
   4 -16   3    0.21    0.12
   5 -16   3    0.63    0.12
   6 -16   3    2.11    0.21
   7 -16   3    0.05    0.08
   8 -16   3    6.28    0.47
  -9  16  -3    3.28    0.50
   9 -16   3    2.64    0.24
 -10  16  -3   -0.23    0.29
  10 -16   3    0.01    0.08
 -11  16  -3    2.11    0.44
  11 -16   3    2.48    0.21
   5  15  -3    0.25    0.08
   4  15  -3   -0.17    0.08
   3  15  -3   -0.20    0.08
   2  15  -3   -0.01    0.08
   1  15  -3   -0.13    0.08
   0  15  -3   -0.07    0.07
  -1  15  -3    0.11    0.75
  -2  15  -3    0.16    0.76
  -3  15  -3    0.08    0.80
   3 -15   3   -0.01    0.12
  -4  15  -3    0.07    0.82
   4 -15   3    0.14    0.12
  -5  15  -3    0.08    0.86
   5 -15   3    0.28    0.12
  -6  15  -3    0.37    0.83
  -6  15  -3    0.80    0.21
   6 -15   3    1.40    0.17
  -7  15  -3    0.06    0.18
   7 -15   3    0.08    0.09
  -8  15  -3    1.55    0.36
   8 -15   3    1.00    0.13
  -9  15  -3   -0.46    0.34
   9 -15   3   -0.14    0.09
 -10  15  -3    2.17    0.50
  10 -15   3    1.45    0.18
 -11  15  -3    0.73    0.30
  11 -15   3    0.48    0.09
 -12  15  -3    0.22    0.27
  12 -15   3    0.03    0.08
   7  14  -3    0.00    0.07
   6  14  -3   -0.16    0.07
   4  14  -3   -0.06    0.07
   3  14  -3   -0.15    0.08
   2  14  -3   -0.14    0.09
   2  14  -3   -0.62    0.99
   1  14  -3    0.19    0.09
   1  14  -3   -0.26    0.72
   0  14  -3   -0.15    0.69
   0  14  -3   -0.16    0.07
  -1  14  -3    0.13    0.71
  -1  14  -3    0.22    0.07
  -2  14  -3   -0.18    0.70
  -4  14  -3    0.32    0.17
  -4  14  -3    0.08    0.89
   4 -14   3    0.54    0.12
  -5  14  -3    1.30    0.96
  -5  14  -3    2.22    0.35
   5 -14   3    3.02    0.24
  -6  14  -3    0.52    0.89
  -6  14  -3   -0.09    0.18
   6 -14   3   -0.10    0.10
  -7  14  -3    0.68    0.21
  -7  14  -3    1.57    0.37
   7 -14   3    1.01    0.15
  -8  14  -3    0.46    0.37
   8 -14   3    0.18    0.10
  -9  14  -3    0.10    0.36
   9 -14   3    0.31    0.10
 -10  14  -3    1.37    0.36
  10 -14   3    1.01    0.13
 -11  14  -3    0.20    0.31
  11 -14   3    0.21    0.09
 -12  14  -3    2.46    0.46
  12 -14   3    2.06    0.20
 -13  14  -3    0.76    0.27
  13 -14   3    0.65    0.15
   8  13  -3    0.36    0.08
   7  13  -3   -0.01    0.07
   5  13  -3   -0.13    0.08
   4  13  -3   -0.03    0.08
   3  13  -3   -0.14    0.75
   2  13  -3    0.39    0.77
   1  13  -3    0.04    0.71
   1  13  -3    0.14    0.08
   0  13  -3    0.28    0.67
   0  13  -3    0.36    0.08
  -1  13  -3    0.56    0.66
  -1  13  -3    0.38    0.08
  -2  13  -3    1.10    0.23
  -2  13  -3    0.74    0.71
  -3  13  -3    0.32    0.71
  -3  13  -3    0.08    0.14
  -4  13  -3    1.56    0.99
  -4  13  -3    2.80    0.35
   4 -13   3    2.93    0.26
  -5  13  -3    0.61    0.91
  -5  13  -3    0.85    0.19
   5 -13   3    0.96    0.13
  -6  13  -3    0.07    0.19
  -6  13  -3   -0.04    0.84
  -6  13  -3    0.55    0.33
   6 -13   3    0.03    0.10
  -7  13  -3    7.22    1.85
  -7  13  -3    6.35    0.64
   7 -13   3    7.92    0.54
  -8  13  -3    0.07    0.37
   8 -13   3   -0.01    0.10
  -9  13  -3   -0.13    0.38
   9 -13   3    0.16    0.10
 -10  13  -3    0.67    0.35
  10 -13   3    0.41    0.11
 -11  13  -3    0.87    0.34
  11 -13   3    1.13    0.17
 -12  13  -3    2.15    0.47
 -13  13  -3    0.08    0.28
  13 -13   3    0.05    0.21
   9  12  -3    0.04    0.06
   8  12  -3   -0.14    0.07
   7  12  -3   -0.01    0.08
   5  12  -3    0.67    0.82
   5  12  -3    0.39    0.09
   4  12  -3    1.16    0.79
   4  12  -3    1.46    0.27
   3  12  -3   -0.03    0.08
   3  12  -3    0.04    0.69
   2  12  -3    0.19    0.08
   2  12  -3    0.10    0.62
   1  12  -3    0.18    0.67
   0  12  -3    0.13    0.63
   0  12  -3    0.28    0.11
   0  12  -3    0.06    0.07
  -1  12  -3    0.09    0.06
  -1  12  -3    0.18    0.14
  -1  12  -3    0.08    0.59
  -2  12  -3    1.27    0.21
  -2  12  -3    2.44    0.93
  -3  12  -3    0.37    0.73
  -4  12  -3    2.08    0.30
  -4  12  -3    2.18    0.98
  -5  12  -3    1.66    0.97
  -5  12  -3    1.18    0.27
  -6  12  -3    0.16    0.86
  -6  12  -3    0.07    0.18
   6 -12   3    0.02    0.10
  -7  12  -3    5.80    0.62
  -7  12  -3    8.30    1.87
   7 -12   3    7.73    0.52
  -8  12  -3    1.97    0.40
   8 -12   3    1.38    0.19
  -9  12  -3   -0.04    0.37
   9 -12   3   -0.03    0.10
 -10  12  -3    0.06    0.35
  10 -12   3    0.10    0.10
 -11  12  -3    0.27    0.33
  11 -12   3    0.18    0.10
 -12  12  -3    0.25    0.32
 -13  12  -3    2.40    0.49
 -14  12  -3    0.55    0.30
   9  11  -3    0.12    0.08
   8  11  -3    2.65    0.33
   7  11  -3    3.55    0.38
   6  11  -3   -0.28    0.70
   6  11  -3   -0.09    0.09
   5  11  -3    1.04    0.77
   4  11  -3   -0.06    0.08
   4  11  -3    0.10    0.73
   3  11  -3    2.49    0.96
   3  11  -3    2.46    0.29
   2  11  -3    4.16    0.92
   2  11  -3    3.50    0.33
   1  11  -3    0.01    0.06
   1  11  -3    0.02    0.54
   0  11  -3    1.91    0.69
  -1  11  -3    0.01    0.56
  -2  11  -3    5.02    1.05
  -3  11  -3    5.70    1.21
  -4  11  -3   10.58    1.65
  -5  11  -3    0.93    0.96
  -6  11  -3    1.58    0.33
  -6  11  -3    2.98    1.16
  -7  11  -3    0.35    0.20
  -7  11  -3    0.23    1.11
   7 -11   3    0.08    0.36
   7 -11   3    0.45    0.09
   8 -11   3    1.77    0.20
  -9  11  -3    3.78    0.59
   9 -11   3    4.15    0.33
 -10  11  -3    0.12    0.37
  10 -11   3    0.36    0.10
 -11  11  -3    0.27    0.34
  11 -11   3    0.46    0.11
 -12  11  -3    5.18    0.62
 -13  11  -3    0.77    0.33
 -14  11  -3    0.62    0.33
  10  10  -3    0.79    0.24
   9  10  -3    0.10    0.09
   8  10  -3    5.97    0.52
   7  10  -3   -0.02    0.78
   7  10  -3    1.55    0.30
   6  10  -3    0.13    0.81
   5  10  -3    0.10    0.75
   4  10  -3   -0.01    0.07
   4  10  -3   -0.16    0.65
   3  10  -3    4.51    0.93
   3  10  -3    4.06    0.37
   2  10  -3   -0.04    0.52
   1  10  -3    0.13    0.52
   0  10  -3    0.41    0.53
  -1  10  -3   10.36    1.25
  -2  10  -3    1.31    0.71
  -3  10  -3    1.52    0.83
  -4  10  -3    2.29    1.03
  -5  10  -3    6.47    1.50
  -6  10  -3    0.59    0.99
  -7  10  -3   -0.02    0.19
  -7  10  -3    0.22    1.02
   7 -10   3    0.22    0.34
  -8  10  -3   13.23    2.25
   8 -10   3   11.77    1.24
   8 -10   3   15.28    1.03
  -9  10  -3    1.62    0.38
   9 -10   3    1.75    0.19
 -10  10  -3    0.07    0.37
  10 -10   3    0.42    0.11
 -11  10  -3    3.45    0.57
  11 -10   3    3.63    0.30
 -12  10  -3   10.65    0.93
 -13  10  -3    4.69    0.62
 -14  10  -3    1.25    0.38
  14 -10   3    0.96    0.18
  11   9  -3    1.34    0.26
  10   9  -3    1.07    0.30
   9   9  -3    8.21    0.67
   8   9  -3    1.40    0.31
   7   9  -3   17.26    1.37
   7   9  -3   19.55    1.35
   6   9  -3    4.95    0.48
   6   9  -3    3.18    1.15
   6   9  -3    5.11    0.44
   5   9  -3    6.93    0.57
   5   9  -3    6.76    0.54
   4   9  -3    1.25    0.71
   4   9  -3    1.23    0.22
   3   9  -3    1.11    0.62
   3   9  -3    1.75    0.27
   2   9  -3    0.06    0.48
   1   9  -3    0.21    0.48
   0   9  -3   17.79    1.64
  -1   9  -3    1.26    0.65
  -2   9  -3    2.39    0.83
  -3   9  -3   28.40    2.60
  -3   9  -3   26.01    2.49
  -4   9  -3    7.90    1.46
  -4   9  -3    7.89    1.50
  -5   9  -3   18.82    2.14
  -6   9  -3   18.20    2.21
   6  -9   3   17.95    1.47
  -7   9  -3    3.84    1.43
   7  -9   3    3.45    0.59
  -8   9  -3    3.82    1.41
   8  -9   3    2.69    0.53
   8  -9   3    3.28    0.27
  -9   9  -3    9.37    0.86
   9  -9   3   10.18    0.71
   9  -9   3    9.06    0.99
 -10   9  -3    4.46    0.63
  10  -9   3    4.58    0.36
 -11   9  -3    0.24    0.34
 -12   9  -3    1.52    0.38
 -13   9  -3    0.27    0.37
 -14   9  -3    0.42    0.39
  14  -9   3    0.17    0.05
  12   8  -3    1.06    0.24
  11   8  -3    0.12    0.09
  10   8  -3    1.16    0.31
   9   8  -3    1.76    0.30
   8   8  -3    0.08    0.12
   8   8  -3   -0.52    0.79
   7   8  -3   68.43    4.35
   7   8  -3   51.90    4.64
   7   8  -3   60.85    4.33
   6   8  -3    5.20    0.44
   6   8  -3    3.28    1.00
   6   8  -3    4.38    0.39
   5   8  -3    0.11    0.09
   5   8  -3   -0.07    0.64
   5   8  -3   -0.01    0.06
   4   8  -3    1.54    0.26
   4   8  -3    1.94    0.67
   3   8  -3   25.02    2.18
   3   8  -3   27.97    1.92
   2   8  -3   40.56    2.94
   2   8  -3   41.77    3.16
   1   8  -3    2.38    0.31
   1   8  -3    2.87    0.71
   0   8  -3    4.34    0.79
  -1   8  -3   23.23    2.04
  -2   8  -3   11.21    1.63
  -2   8  -3   11.57    1.40
  -3   8  -3   16.27    1.78
  -4   8  -3    6.80    1.25
  -4   8  -3    7.36    1.38
  -5   8  -3    0.57    0.84
  -6   8  -3    2.41    1.07
   6  -8   3    3.19    0.50
  -7   8  -3    1.22    1.03
   7  -8   3    0.84    0.36
  -8   8  -3   24.90    2.80
   8  -8   3   26.58    2.03
  -9   8  -3    1.96    0.37
   9  -8   3    1.90    0.19
   9  -8   3    1.97    0.46
 -10   8  -3    2.69    0.54
  10  -8   3    2.69    0.25
 -11   8  -3   -0.07    0.35
 -12   8  -3    7.66    0.79
 -13   8  -3    3.73    0.63
  13  -8   3    2.84    0.29
  14  -8   3    0.05    0.05
  12   7  -3    0.13    0.08
  11   7  -3    0.03    0.08
  10   7  -3   16.92    1.15
  10   7  -3   13.90    1.17
   9   7  -3    1.85    0.37
   8   7  -3    5.47    0.44
   8   7  -3    4.95    0.51
   7   7  -3    3.81    0.38
   7   7  -3    3.12    0.93
   7   7  -3    3.31    0.32
   6   7  -3    0.01    0.05
   6   7  -3    0.10    0.09
   6   7  -3   -0.74    0.66
   5   7  -3    7.49    0.60
   5   7  -3    8.37    1.03
   4   7  -3  100.18    7.13
   4   7  -3   95.80    6.96
   3   7  -3   26.92    2.14
   3   7  -3   26.55    1.92
   2   7  -3   45.80    3.48
   2   7  -3   46.93    3.31
   1   7  -3    8.03    0.89
   1   7  -3    8.14    0.62
   0   7  -3   18.75    1.61
  -1   7  -3    9.45    1.38
  -1   7  -3   10.66    1.17
  -2   7  -3    1.78    0.70
  -2   7  -3    1.56    0.66
  -3   7  -3    0.83    0.74
  -4   7  -3   22.33    2.17
  -5   7  -3    1.42    0.90
  -6   7  -3   11.41    1.65
   6  -7   3   12.16    1.03
  -7   7  -3    0.35    0.90
   7  -7   3    0.38    0.30
  -8   7  -3   25.36    1.82
  -9   7  -3    0.94    0.33
  -9   7  -3    0.46    0.15
   9  -7   3    1.09    0.12
 -10   7  -3    0.60    0.34
 -10   7  -3    0.32    0.16
 -11   7  -3    0.78    0.17
 -11   7  -3    0.69    0.36
 -12   7  -3    0.22    0.15
 -13   7  -3    0.47    0.56
  14  -7   3    0.12    0.05
  13   6  -3    0.99    0.24
  12   6  -3    1.32    0.28
  11   6  -3    1.78    0.28
  10   6  -3    1.49    0.36
   9   6  -3   15.09    1.19
   9   6  -3   16.43    1.15
   8   6  -3    0.04    0.06
   8   6  -3    0.00    0.09
   8   6  -3   -0.65    0.76
   7   6  -3    1.02    0.26
   7   6  -3    1.15    0.18
   7   6  -3    0.82    0.75
   6   6  -3   34.17    2.49
   6   6  -3   35.47    2.76
   5   6  -3    0.27    0.07
   5   6  -3    0.14    0.63
   4   6  -3    0.28    0.55
   4   6  -3    0.60    0.19
   3   6  -3   20.80    1.59
   3   6  -3   18.44    1.40
   2   6  -3    1.00    0.42
  -2  -6   3    0.17    0.53
   1   6  -3   92.31    7.06
  -1  -6   3  103.30    7.11
   0   6  -3    7.11    0.82
   0   6  -3    7.90    1.18
   0  -6   3    6.27    0.73
  -1   6  -3   34.80    2.85
  -1   6  -3   36.38    2.79
   1  -6   3   35.15    2.68
  -2   6  -3    4.02    0.83
  -2   6  -3    2.44    0.59
   2  -6   3    3.79    0.66
  -3   6  -3    2.63    0.77
  -4   6  -3    2.66    0.84
  -5   6  -3    6.78    1.28
   5  -6   3    5.69    0.63
  -6   6  -3    2.66    1.02
   6  -6   3    2.95    0.50
  -7   6  -3    8.55    1.64
   7  -6   3    8.44    0.80
  -9   6  -3    1.76    0.35
 -10   6  -3    2.15    0.38
 -11   6  -3   -0.01    0.17
 -11   6  -3    0.77    0.36
 -12   6  -3    1.07    0.18
  12  -6   3    0.81    0.21
 -13   6  -3    0.93    0.16
  13  -6   3    0.67    0.19
 -14   6  -3    0.29    0.12
  13   5  -3    3.37    0.35
  12   5  -3    0.96    0.24
  10   5  -3    3.00    0.42
  10   5  -3    3.87    0.33
   9   5  -3   -0.10    0.74
   9   5  -3    0.09    0.10
   8   5  -3    2.54    0.89
   8   5  -3    2.92    0.37
   8   5  -3    3.64    0.29
   7   5  -3   -0.01    0.63
   7   5  -3    0.02    0.08
   6   5  -3   14.60    1.32
   6   5  -3   12.04    0.95
   5   5  -3    3.07    0.73
   5   5  -3    1.81    0.25
  -5  -5   3    1.48    0.56
   4   5  -3    0.52    0.55
   3   5  -3   19.53    1.52
  -3  -5   3   18.79    1.92
   2   5  -3   22.70    1.67
  -2  -5   3   20.29    1.92
   1   5  -3    5.13    0.63
  -1  -5   3    4.71    0.76
   0   5  -3   38.48    3.18
   0   5  -3   42.88    3.05
   0  -5   3   39.14    2.97
  -1   5  -3    5.34    0.80
  -1   5  -3    5.59    0.95
   1  -5   3    5.24    0.68
  -2   5  -3   16.42    1.33
  -2   5  -3   17.05    1.56
   2  -5   3   16.45    1.44
  -3   5  -3    2.69    0.80
  -3   5  -3    2.08    0.49
   3  -5   3    2.49    0.65
  -4   5  -3   43.77    3.54
  -5   5  -3   10.78    1.51
   5  -5   3   12.29    0.97
  -6   5  -3   11.96    1.76
   6  -5   3   13.86    1.08
   7  -5   3   11.08    0.94
  -8   5  -3    2.17    1.57
  -9   5  -3    0.02    0.31
 -10   5  -3    2.30    0.52
  11  -5   3    0.20    0.07
 -12   5  -3    0.03    0.17
  12  -5   3   -0.01    0.05
 -13   5  -3   -0.04    0.15
  13  -5   3   -0.03    0.05
 -14   5  -3    0.21    0.13
  14   4  -3    1.09    0.23
  13   4  -3    2.07    0.26
  12   4  -3    0.13    0.07
  11   4  -3   -0.36    0.75
  11   4  -3    0.25    0.11
  10   4  -3    5.40    0.53
  10   4  -3    4.01    1.06
  10   4  -3    5.93    0.45
   9   4  -3    4.10    0.35
   9   4  -3    3.19    0.92
   9   4  -3    4.09    0.42
   8   4  -3    4.94    0.91
   8   4  -3    4.57    0.37
   7   4  -3   14.82    1.42
   6   4  -3   -0.46    0.54
  -6  -4   3   -0.17    0.37
   5   4  -3   31.84    2.37
  -5  -4   3   28.30    2.53
   4   4  -3   29.16    2.15
  -4  -4   3   26.48    2.44
   3   4  -3    1.17    0.44
  -3  -4   3    0.69    0.52
   2   4  -3   12.44    0.98
  -2  -4   3   10.37    1.30
   1   4  -3   14.61    1.58
   1   4  -3   14.45    1.17
  -1  -4   3   12.98    1.29
   0   4  -3    4.10    1.13
   0   4  -3    6.04    0.77
  -1   4  -3   74.57    6.32
  -1   4  -3   95.64    6.25
   1  -4   3   90.00    6.28
  -2   4  -3   16.34    1.59
  -2   4  -3   18.08    1.41
   2  -4   3   18.30    1.52
  -3   4  -3   13.00    1.34
  -3   4  -3   11.51    1.07
   3  -4   3   12.04    1.20
  -4   4  -3    0.01    0.64
   4  -4   3    0.25    0.53
   4  -4   3    0.10    0.20
  -5   4  -3   38.14    3.40
   5  -4   3   38.79    2.91
   5  -4   3   43.51    3.56
   6  -4   3    2.74    0.43
  -7   4  -3   -0.32    1.12
  10  -4   3    4.91    0.43
  11  -4   3    0.19    0.06
 -12   4  -3    0.74    0.20
  12  -4   3    1.30    0.21
 -13   4  -3    0.64    0.17
  13  -4   3    0.65    0.19
 -14   4  -3    0.11    0.13
  14  -4   3   -0.06    0.05
  14   3  -3    0.15    0.06
  13   3  -3   11.34    0.84
  12   3  -3    2.81    0.29
  11   3  -3    0.75    0.74
  10   3  -3    1.31    0.22
  10   3  -3    1.83    0.77
   9   3  -3    1.65    0.21
   9   3  -3    2.37    0.76
   8   3  -3    0.08    0.08
   8   3  -3    0.36    0.60
   7   3  -3   -0.02    0.53
  -7  -3   3    0.05    0.36
   6   3  -3    2.81    0.74
  -6  -3   3    3.63    0.87
   5   3  -3   57.49    4.06
  -5  -3   3   51.67    4.17
   4   3  -3    4.83    0.63
   3   3  -3    1.65    0.41
  -3  -3   3    1.60    0.53
   2   3  -3   14.97    1.07
  -2  -3   3   10.47    1.35
   1   3  -3  190.47   13.85
   1   3  -3  194.45   13.71
   0   3  -3  136.45   11.32
   0  -3   3  180.58   11.30
  -1   3  -3    3.81    0.79
  -1   3  -3    5.16    0.55
   1  -3   3    4.55    0.67
  -2   3  -3   12.14    1.09
  -2   3  -3   12.35    1.31
   2  -3   3   13.75    1.25
  -3   3  -3   32.82    2.62
  -3   3  -3   34.84    2.77
   3  -3   3   34.96    2.72
  -4   3  -3   38.94    3.17
   4  -3   3   44.88    2.98
   4  -3   3   40.18    3.26
   4  -3   3   40.34    3.27
  -5   3  -3    2.83    1.19
   5  -3   3    2.36    0.87
   5  -3   3    2.16    0.32
  -6   3  -3   -0.06    1.11
  -7   3  -3   10.72    1.93
   9  -3   3    2.90    0.29
  10  -3   3    5.30    0.44
  11  -3   3    0.78    0.21
 -12   3  -3    0.20    0.19
  12  -3   3    0.21    0.06
 -13   3  -3    0.13    0.16
 -14   3  -3   -0.01    0.13
  14   2  -3    0.10    0.06
  13   2  -3    0.14    0.07
  12   2  -3    2.99    0.96
  11   2  -3    3.13    0.94
  11   2  -3    2.43    0.28
  10   2  -3    8.93    1.21
  10   2  -3    9.00    0.67
  10   2  -3    8.54    0.65
   9   2  -3    0.60    0.14
   9   2  -3    0.80    0.54
   9   2  -3    0.80    0.17
   8   2  -3    1.10    0.57
   7   2  -3   15.24    1.45
  -7  -2   3   15.40    1.60
   6   2  -3    3.96    0.76
  -6  -2   3    4.60    0.89
   5   2  -3   36.03    2.65
  -5  -2   3   33.19    2.73
   4   2  -3    9.03    0.84
  -4  -2   3    9.07    0.95
   3   2  -3    4.52    0.53
   1   2  -3   41.23    3.13
  -1   2  -3  156.13   10.82
  -1   2  -3  138.60   10.76
   1  -2   3  157.91   10.82
  -2   2  -3    5.35    0.71
   2  -2   3    4.89    0.84
  -3   2  -3    5.96    1.17
  -3   2  -3    5.74    0.77
   3  -2   3    5.65    0.84
   3  -2   3    5.62    0.48
  -4   2  -3    9.22    1.40
  -4   2  -3    8.22    0.98
   4  -2   3    8.36    1.16
   4  -2   3    7.86    1.02
  -5   2  -3    3.39    1.20
   5  -2   3    3.19    0.91
  -6   2  -3    7.71    1.69
   6  -2   3    8.07    1.42
  -7   2  -3    1.04    1.33
   9  -2   3   15.25    1.11
  10  -2   3    8.47    0.65
  11  -2   3   -0.01    0.06
  12  -2   3    0.02    0.06
 -13   2  -3    2.75    0.29
 -13   2  -3    1.72    0.26
  13  -2   3    2.54    0.26
 -14   2  -3    0.55    0.15
  15   1  -3    0.09    0.05
  14   1  -3    2.70    0.28
  13   1  -3    0.06    0.06
  12   1  -3    2.83    0.97
  11   1  -3    0.50    0.69
  10   1  -3    0.02    0.05
  10   1  -3    0.01    0.09
  10   1  -3    0.15    0.55
   9   1  -3    3.52    0.83
   9   1  -3    3.34    0.28
   9   1  -3    3.53    0.36
   8   1  -3   15.34    1.49
   7   1  -3    8.21    1.04
  -7  -1   3    7.83    1.12
   6   1  -3    1.67    0.60
  -6  -1   3    1.00    0.40
   5   1  -3    2.50    0.58
  -5  -1   3    2.64    0.63
   4   1  -3    2.13    0.46
  -4  -1   3    2.17    0.57
   3   1  -3  161.05   12.42
  -3  -1   3  187.32   12.45
   2   1  -3   96.82    7.03
  -1   1  -3    8.08    1.09
  -1   1  -3    8.86    0.86
   1  -1   3    9.14    0.91
  -2   1  -3  118.08    8.25
  -2   1  -3  111.58    8.15
   2  -1   3  107.64    8.15
  -3   1  -3    0.97    0.35
  -3   1  -3    0.96    0.80
   3  -1   3    0.76    0.37
  -4   1  -3    3.37    1.12
   4  -1   3    3.11    0.71
  -5   1  -3    1.41    1.15
   5  -1   3    1.24    0.58
  -6   1  -3    4.35    1.58
   6  -1   3    4.32    1.07
   9  -1   3   11.51    0.86
  10  -1   3    7.32    0.58
  11  -1   3    5.52    0.46
 -12   1  -3    0.44    0.20
 -13   1  -3    0.42    0.13
 -13   1  -3    0.31    0.17
  15   0  -3    0.05    0.05
  14   0  -3    4.56    0.39
  13   0  -3    0.11    0.06
  12   0  -3    5.37    0.43
  12   0  -3    4.33    0.93
  11   0  -3    2.75    0.91
  11   0  -3    2.20    0.25
  11   0  -3    2.10    0.22
  10   0  -3    0.21    0.09
  10   0  -3    0.67    0.60
   9   0  -3    0.87    0.15
   9   0  -3    0.86    0.63
   8   0  -3    4.20    0.94
   7   0  -3    3.91    0.82
  -7   0   3    4.11    0.88
   6   0  -3   24.47    2.04
  -6   0   3   25.08    2.08
   5   0  -3   33.20    2.57
  -5   0   3   33.54    2.60
   4   0  -3    0.98    0.39
  -4   0   3    0.92    0.31
   3   0  -3   53.36    3.99
  -3   0   3   56.21    4.00
   2   0  -3   46.50    3.44
   0   0  -3  260.92   20.93
   0   0   3  326.14   20.90
  -1   0  -3  332.20   25.08
  -1   0  -3  371.62   25.17
  -2   0  -3   32.72    2.74
  -2   0  -3   32.32    2.56
  -3   0  -3    8.93    0.99
  -3   0  -3    9.67    1.32
   3   0   3    7.75    0.92
  -4   0  -3    0.23    0.95
   4   0   3    0.96    0.52
  -5   0  -3    7.63    1.65
   5   0   3    7.65    1.07
  -6   0  -3   15.32    2.29
   6   0   3   22.82    2.24
   8   0   3    0.02    0.05
   9   0   3    2.51    0.28
  10   0   3    6.98    0.56
  11   0   3    3.13    0.32
 -12   0  -3   -0.07    0.19
  12   0   3   -0.06    0.06
 -13   0  -3    0.48    0.17
 -13   0  -3    0.27    0.13
  15  -1  -3    0.14    0.06
  14  -1  -3    7.33    0.57
  13  -1  -3    3.20    0.31
  12  -1  -3    0.77    0.64
  11  -1  -3    2.19    0.21
  11  -1  -3    1.93    0.24
  11  -1  -3    2.77    0.94
  10  -1  -3    1.23    0.76
  10  -1  -3    0.73    0.14
  10  -1  -3    0.77    0.20
   9  -1  -3    3.87    0.90
   8  -1  -3   -0.01    0.54
  -8   1   3    0.21    0.39
   7  -1  -3   32.59    2.56
  -7   1   3   29.04    2.55
   6  -1  -3    5.12    0.82
  -6   1   3    5.12    0.82
   5  -1  -3   44.85    3.34
  -5   1   3   42.98    3.33
   4  -1  -3   39.19    3.06
  -4   1   3   41.90    3.06
   3  -1  -3  266.68   20.08
  -3   1   3  296.85   20.09
   2  -1  -3  124.84    9.08
  -2   1   3  128.77    9.05
   1  -1  -3    9.74    0.78
   1  -1  -3   10.79    1.01
  -1   1   3   10.34    1.01
   0  -1  -3    1.39    0.88
   0   1   3   -1.00    0.47
  -1  -1  -3   68.05    4.71
  -1  -1  -3   58.56    4.84
  -2  -1  -3  180.63   13.14
  -2  -1  -3  179.91   13.01
  -3  -1  -3  105.24    7.23
  -3  -1  -3   99.87    7.38
   3   1   3   88.28    7.07
  -4  -1  -3    3.57    1.25
   4   1   3    2.73    0.68
  -5  -1  -3    0.46    1.17
   5   1   3    0.56    0.51
  -6  -1  -3    2.31    1.48
   8   1   3    0.00    0.06
   9   1   3    6.84    0.55
  10   1   3    3.00    0.31
  11   1   3    0.05    0.07
 -12  -1  -3    0.13    0.18
 -13  -1  -3    2.79    0.26
 -13  -1  -3    2.25    0.28
  15  -2  -3    0.67    0.18
  14  -2  -3   18.69    1.36
  13  -2  -3    0.77    0.21
  12  -2  -3    0.91    0.69
  11  -2  -3    0.03    0.09
  11  -2  -3    0.28    0.72
  10  -2  -3    0.73    0.14
  10  -2  -3    0.65    0.59
   9  -2  -3    5.11    1.02
   8  -2  -3    5.16    0.96
  -8   2   3    3.97    1.09
   7  -2  -3    1.49    0.65
  -7   2   3    0.93    0.44
   6  -2  -3   14.20    1.33
  -6   2   3   12.51    1.30
   5  -2  -3    0.67    0.44
  -5   2   3    0.37    0.30
   4  -2  -3   18.09    1.39
   4  -2  -3   18.46    1.57
  -4   2   3   18.81    1.54
   3  -2  -3  205.61   15.73
   3  -2  -3  225.28   15.65
  -3   2   3  229.43   15.71
   2  -2  -3  282.35   19.99
   2  -2  -3  254.73   19.91
  -2   2   3  303.69   19.96
   1  -2  -3  341.28   24.34
   1  -2  -3  368.66   24.24
  -1   2   3  314.50   24.34
   0  -2  -3   20.56    1.86
   0   2   3   19.46    1.81
  -1  -2  -3   29.23    2.63
   1   2   3   28.86    2.30
  -2  -2  -3   13.26    1.83
  -2  -2  -3   14.82    1.34
   2   2   3   13.19    1.17
  -3  -2  -3    0.15    0.99
   3   2   3    0.19    0.41
  -4  -2  -3   17.80    2.41
   4   2   3   22.92    1.83
  -5  -2  -3    2.89    1.37
   5   2   3    6.08    0.90
   8   2   3    0.83    0.20
   9   2   3    0.40    0.08
  10   2   3   -0.07    0.07
  11   2   3    1.00    0.24
 -12  -2  -3    0.13    0.17
  15  -3  -3    0.05    0.05
  14  -3  -3   -0.01    0.06
  13  -3  -3    3.44    1.00
  12  -3  -3    1.04    0.82
  11  -3  -3   10.34    0.79
  11  -3  -3   11.99    1.45
  10  -3  -3    0.97    0.16
  10  -3  -3    1.63    0.78
   9  -3  -3   22.69    2.14
   8  -3  -3    0.12    0.57
   7  -3  -3   10.19    1.20
  -7   3   3    9.58    1.17
   6  -3  -3   21.93    1.90
  -6   3   3   20.49    1.83
   5  -3  -3   12.33    1.27
   5  -3  -3   12.92    1.03
  -5   3   3   13.84    1.24
   4  -3  -3   12.80    1.02
   4  -3  -3   12.39    1.23
  -4   3   3   13.77    1.17
   3  -3  -3  865.08   65.37
   3  -3  -3  899.17   65.48
  -3   3   3 1000.00   65.44
   2  -3  -3  118.15    7.97
   2  -3  -3   97.51    7.84
  -2   3   3  114.55    7.96
   1  -3  -3  100.76    6.81
  -1   3   3   85.35    6.82
   0  -3  -3    1.15    0.73
   0   3   3    0.63    0.47
  -1  -3  -3    0.18    0.92
   1   3   3    0.12    0.32
   1   3   3    0.45    0.37
  -2  -3  -3    0.73    1.23
   2   3   3    0.95    0.44
  -3  -3  -3   11.39    2.20
   3   3   3   11.82    1.15
  -4  -3  -3   31.15    3.60
   4   3   3   39.05    2.84
  -5  -3  -3    3.37    1.91
   8   3   3    0.51    0.08
   9   3   3    0.81    0.24
  10   3   3    0.00    0.08
 -11  -3  -3    0.42    0.19
 -12  -3  -3    0.00    0.15
 -12  -3  -3    0.13    0.14
  16  -4  -3    1.02    0.17
  15  -4  -3    0.01    0.05
  14  -4  -3    8.69    0.67
  13  -4  -3    2.75    1.06
  12  -4  -3    6.56    1.26
  11  -4  -3    1.54    0.85
  10  -4  -3    1.37    0.19
  10  -4  -3    1.31    0.73
   9  -4  -3   22.67    2.18
   8  -4  -3   14.37    1.55
   7  -4  -3    3.38    0.89
  -7   4   3    2.63    0.76
   6  -4  -3    7.32    1.07
   6  -4  -3    7.72    0.73
  -6   4   3    7.17    1.02
   5  -4  -3   11.17    0.94
   5  -4  -3   11.64    1.22
  -5   4   3   11.61    1.13
   4  -4  -3   13.02    1.08
   4  -4  -3   13.25    1.33
  -4   4   3   14.97    1.23
   3  -4  -3  252.25   19.18
   3  -4  -3  265.66   19.32
  -3   4   3  291.32   19.28
   2  -4  -3   -0.28    0.43
  -2   4   3   -0.51    0.43
   1  -4  -3    2.43    0.81
  -1   4   3    1.15    0.56
   0  -4  -3    0.00    0.71
   0   4   3    0.05    0.47
  -1  -4  -3   -0.17    1.02
   1   4   3    0.49    0.39
   1   4   3   -0.19    0.46
  -2  -4  -3    5.02    1.71
   2   4   3    4.68    0.80
  -3  -4  -3    0.99    1.52
   3   4   3    0.95    0.57
  -4  -4  -3    3.80    1.86
   6   4   3    1.22    0.19
   7   4   3    1.29    0.22
   8   4   3    1.46    0.25
   9   4   3    0.25    0.09
 -10  -4  -3    0.11    0.19
 -11  -4  -3    0.06    0.16
  11   4   3   -0.19    0.09
  16  -5  -3    1.98    0.22
  15  -5  -3    0.77    0.19
  14  -5  -3    4.21    0.38
  13  -5  -3    5.76    1.30
  12  -5  -3    0.46    0.73
  11  -5  -3    0.40    0.70
  11  -5  -3    0.36    0.15
  10  -5  -3    4.30    1.10
   9  -5  -3    0.53    0.64
   8  -5  -3    2.74    0.97
   7  -5  -3    7.12    1.16
   7  -5  -3    5.20    0.67
   6  -5  -3    1.73    0.37
   6  -5  -3    1.75    0.71
  -6   5   3    1.28    0.46
   5  -5  -3    0.61    0.58
   5  -5  -3    0.62    0.29
  -5   5   3    0.45    0.37
   4  -5  -3   10.65    1.16
   4  -5  -3    8.47    0.81
  -4   5   3    9.72    1.02
   3  -5  -3    7.52    0.69
   3  -5  -3    8.56    1.00
  -3   5   3    8.26    1.03
   2  -5  -3   23.85    1.81
  -2   5   3   17.06    1.93
   1  -5  -3    1.13    0.71
  -1   5   3    0.76    0.60
  -1   5   3   -0.13    0.51
   0  -5  -3    0.90    0.87
   0   5   3    1.08    0.58
   0   5   3   -0.16    0.46
  -1  -5  -3    4.31    1.32
   1   5   3    3.64    0.81
  -2  -5  -3    0.53    1.38
  -3  -5  -3    3.98    1.76
   7   5   3    0.01    0.08
   8   5   3   -0.07    0.08
   9   5   3    1.16    0.30
 -10  -5  -3    0.57    0.18
 -11  -5  -3    0.49    0.15
  16  -6  -3    0.08    0.05
  15  -6  -3    0.11    0.06
  14  -6  -3    2.46    0.30
  13  -6  -3    1.83    0.91
  12  -6  -3    3.23    1.19
  12  -6  -3    2.16    0.30
  11  -6  -3    6.80    0.55
  11  -6  -3    6.10    1.33
  10  -6  -3    0.27    0.17
  10  -6  -3    0.41    0.67
  10  -6  -3    0.13    0.07
   9  -6  -3    9.22    1.36
   8  -6  -3    0.61    0.68
   8  -6  -3    0.54    0.30
   7  -6  -3   -0.06    0.56
   7  -6  -3    0.32    0.29
   6  -6  -3    5.81    1.07
   6  -6  -3    5.25    0.64
   5  -6  -3    2.12    0.38
   5  -6  -3    2.47    0.79
  -5   6   3    2.77    0.80
   4  -6  -3   -0.01    0.26
   4  -6  -3    0.06    0.55
  -4   6   3   -0.20    0.46
   3  -6  -3    8.72    1.12
  -3   6   3    9.18    1.46
   2  -6  -3   -0.06    0.54
  -2   6   3   -0.38    0.79
   1  -6  -3   14.70    1.62
   0  -6  -3    0.52    0.94
  -1  -6  -3    9.21    1.79
  -2  -6  -3    4.82    1.84
   5   6   3    0.45    0.08
   6   6   3    0.05    0.08
   7   6   3   -0.08    0.09
   8   6   3    5.46    0.50
   9   6   3    0.17    0.09
  10   6   3    1.23    0.29
  16  -7  -3    0.04    0.04
  15  -7  -3    2.95    0.29
 -15   7   3    4.05    0.85
  13  -7  -3    5.93    0.50
  12  -7  -3    3.32    0.36
  12  -7  -3    3.54    1.20
  11  -7  -3    3.21    1.23
  11  -7  -3    3.90    0.40
  10  -7  -3    0.10    0.73
  10  -7  -3   -0.10    0.16
  10  -7  -3    0.07    0.08
   9  -7  -3    4.53    1.19
   8  -7  -3    1.53    0.86
   8  -7  -3    1.51    0.40
   7  -7  -3    9.97    0.97
   7  -7  -3   11.75    1.50
   6  -7  -3    0.74    0.34
   6  -7  -3    1.38    0.71
   5  -7  -3   10.22    0.97
   5  -7  -3   11.97    1.41
   4  -7  -3    5.98    1.06
   4  -7  -3    7.08    0.66
   3  -7  -3    0.92    0.63
   2  -7  -3    0.24    0.59
   1  -7  -3    4.94    1.16
   0  -7  -3    1.71    1.07
  -1  -7  -3   26.81    2.80
   4   7   3    0.21    0.08
   5   7   3    3.74    0.38
   6   7   3    1.84    0.31
   7   7   3    2.79    0.34
   8   7   3    0.00    0.09
   9   7   3    0.38    0.09
 -10  -7  -3   -0.31    0.13
  15  -8  -3    0.00    0.06
 -15   8   3   -0.35    0.37
  14  -8  -3    0.26    0.15
  13  -8  -3    6.46    0.54
  12  -8  -3    0.76    0.20
  12  -8  -3    1.44    0.94
  11  -8  -3    4.36    0.46
  11  -8  -3    5.09    0.37
  11  -8  -3    4.84    1.28
  10  -8  -3    6.63    0.49
  10  -8  -3    6.21    1.34
   9  -8  -3    0.58    0.09
   9  -8  -3    0.32    0.36
   9  -8  -3    0.62    0.78
   8  -8  -3   -0.02    0.68
   8  -8  -3   -0.45    0.30
   7  -8  -3    6.73    1.25
   7  -8  -3    6.02    0.72
   6  -8  -3   -0.16    0.65
   6  -8  -3   -0.03    0.28
   5  -8  -3    2.36    0.81
   5  -8  -3    2.66    0.47
   4  -8  -3    2.74    0.44
   4  -8  -3    1.86    0.74
   3  -8  -3    0.50    0.62
   2  -8  -3    5.41    1.04
   1  -8  -3   11.11    1.52
   0  -8  -3    3.24    1.18
   3   8   3    0.26    0.08
   4   8   3   -0.10    0.08
   5   8   3    0.08    0.08
   6   8   3   -0.07    0.08
   7   8   3    0.09    0.09
   8   8   3    3.92    0.38
  -9  -8  -3   -0.38    0.14
 -15   9   3   -0.40    0.34
  14  -9  -3    0.15    0.14
  13  -9  -3    0.25    0.17
  12  -9  -3    4.77    1.33
  12  -9  -3    4.27    0.44
  11  -9  -3    1.43    0.95
  11  -9  -3    0.91    0.23
  11  -9  -3    1.30    0.16
  10  -9  -3    0.08    0.09
  10  -9  -3    0.47    0.83
   9  -9  -3    3.79    0.29
   9  -9  -3    3.41    1.30
   9  -9  -3    3.07    0.58
   8  -9  -3   11.27    1.64
   8  -9  -3   11.44    0.82
   8  -9  -3   11.51    1.08
   7  -9  -3    3.83    0.62
   7  -9  -3    4.08    1.12
   6  -9  -3    0.49    0.71
   6  -9  -3    0.58    0.34
   5  -9  -3    0.00    0.63
   5  -9  -3    0.33    0.30
   4  -9  -3    9.83    1.33
   4  -9  -3    9.84    0.89
   3  -9  -3   -0.26    0.61
   2  -9  -3    4.49    1.12
   1  -9  -3   -0.30    0.74
   1   9   3    3.24    0.33
   2   9   3    0.11    0.07
   3   9   3    2.17    0.29
   4   9   3   -0.06    0.08
   5   9   3    1.00    0.26
   6   9   3    0.00    0.08
  -7  -9  -3    0.56    0.17
   7   9   3    1.06    0.25
  -8  -9  -3    0.22    0.13
   8   9   3    1.39    0.22
  15 -10  -3    0.17    0.12
 -15  10   3   -0.07    0.30
  14 -10  -3    0.42    0.15
  13 -10  -3    1.52    0.29
  12 -10  -3    5.89    0.43
  12 -10  -3    5.25    0.52
  11 -10  -3    0.01    0.75
  11 -10  -3    0.14    0.09
  11 -10  -3   -0.02    0.20
  10 -10  -3    0.16    0.09
  10 -10  -3    0.01    0.81
   9 -10  -3    2.19    0.21
   9 -10  -3    2.91    1.15
   8 -10  -3   14.19    1.33
   8 -10  -3   14.77    1.07
   8 -10  -3   15.98    1.95
   7 -10  -3    3.05    0.25
   7 -10  -3    2.43    0.55
   7 -10  -3    3.78    1.18
   6 -10  -3    0.19    0.71
   6 -10  -3    0.54    0.10
   6 -10  -3    0.50    0.35
   5 -10  -3    2.72    0.49
   5 -10  -3    3.17    0.26
   5 -10  -3    2.56    0.91
   4 -10  -3   -0.32    0.29
   4 -10  -3   -0.01    0.65
   3 -10  -3    1.16    0.73
   3 -10  -3    0.41    0.32
  -2  10   3    3.77    0.38
  -1  10   3    1.66    0.28
   0  10   3    0.14    0.08
   1  10   3    0.26    0.09
   2  10   3    0.12    0.08
   3  10   3    0.11    0.08
   4  10   3    0.22    0.08
   5  10   3    2.41    0.31
   6  10   3    1.02    0.28
  -7 -10  -3    0.34    0.18
  15 -11  -3    0.01    0.11
 -15  11   3   -0.14    0.27
  14 -11  -3    0.03    0.14
  13 -11  -3    4.19    0.41
  12 -11  -3    2.88    0.25
  12 -11  -3    3.10    0.38
  11 -11  -3    3.69    0.29
  11 -11  -3    3.59    1.76
  11 -11  -3    3.52    0.42
  10 -11  -3    0.03    0.09
  10 -11  -3   -0.17    0.79
   9 -11  -3    0.04    0.09
   9 -11  -3    0.21    0.76
   8 -11  -3    0.29    0.09
   8 -11  -3    0.56    0.80
   7 -11  -3    0.39    0.74
   7 -11  -3    0.57    0.10
   6 -11  -3    2.73    0.24
   6 -11  -3    2.44    0.99
   6 -11  -3    2.42    0.51
   5 -11  -3    6.82    0.82
   5 -11  -3    6.50    1.39
   5 -11  -3    7.61    0.54
   4 -11  -3    0.30    0.80
   4 -11  -3   -0.13    0.34
   4 -11  -3    0.06    0.10
  -2  11   3    0.06    0.07
  -1  11   3    0.42    0.09
   0  11   3    0.02    0.09
   1  11   3    1.08    0.32
   2  11   3    1.89    0.31
   3  11   3   -0.04    0.08
   4  11   3    0.03    0.08
   5  11   3    0.96    0.27
  -6 -11  -3    0.73    0.21
  14 -12  -3    0.28    0.15
 -14  12   3    0.65    0.28
  13 -12  -3    0.06    0.17
  12 -12  -3    3.76    0.31
  12 -12  -3    4.09    0.42
  11 -12  -3    0.38    0.09
  11 -12  -3    0.70    0.22
  10 -12  -3    0.03    0.09
  10 -12  -3   -0.27    0.93
   9 -12  -3    0.29    0.10
   9 -12  -3    0.68    0.85
   8 -12  -3    7.06    1.53
   8 -12  -3    7.63    0.56
   7 -12  -3    0.43    0.83
   7 -12  -3    0.69    0.11
   6 -12  -3    1.26    0.97
   6 -12  -3    2.35    0.22
   5 -12  -3    0.54    0.12
   4 -12  -3    6.70    0.51
   3 -12  -3    2.32    0.24
  -1  12   3    0.96    0.27
   0  12   3    1.87    0.34
   1  12   3    0.16    0.09
   2  12   3    0.08    0.09
   3  12   3    0.38    0.09
   4  12   3    0.18    0.09
  14 -13  -3   -0.01    0.13
 -14  13   3    0.05    0.24
  13 -13  -3    0.24    0.16
  12 -13  -3    4.30    0.36
  12 -13  -3    5.85    0.47
  11 -13  -3    0.37    0.21
  11 -13  -3   -0.03    0.08
  10 -13  -3    1.27    0.16
   9 -13  -3    1.79    0.19
   8 -13  -3    1.33    0.16
   7 -13  -3    0.32    0.10
   6 -13  -3    1.44    0.19
   5 -13  -3    0.98    0.14
   4 -13  -3    2.24    0.24
   3 -13  -3    0.64    0.14
   0  13   3    0.02    0.07
   1  13   3   -0.03    0.08
   2  13   3    0.10    0.08
   3  13   3    0.10    0.07
   4  13   3    1.18    0.25
  13 -14  -3    0.42    0.16
 -13  14   3    0.53    0.27
  12 -14  -3    0.11    0.18
  12 -14  -3   -0.08    0.07
  11 -14  -3    0.87    0.21
  11 -14  -3    0.40    0.09
  10 -14  -3    1.27    0.16
  10 -14  -3    1.67    0.33
   9 -14  -3    0.02    0.09
   8 -14  -3    1.19    0.16
   7 -14  -3    0.24    0.10
   6 -14  -3    0.10    0.11
   5 -14  -3    0.70    0.14
   4 -14  -3    1.42    0.22
   3 -14  -3    5.54    0.44
   2 -14  -3    0.34    0.14
  -3 -14  -3    0.75    0.20
  12 -15  -3   -0.06    0.16
  12 -15  -3    0.01    0.07
 -12  15   3    0.04    0.26
  11 -15  -3    0.49    0.19
  11 -15  -3    0.39    0.08
  10 -15  -3    0.21    0.08
  10 -15  -3    0.29    0.19
   9 -15  -3    0.00    0.09
   9 -15  -3    0.13    0.20
   8 -15  -3    0.93    0.22
   8 -15  -3    0.48    0.10
   7 -15  -3    0.01    0.10
   6 -15  -3    1.65    0.21
   5 -15  -3    7.74    0.59
   4 -15  -3    0.94    0.15
   3 -15  -3    0.69    0.30
   3 -15  -3    1.04    0.16
   2 -15  -3   -0.17    0.17
   2 -15  -3    0.32    0.13
   1 -15  -3   10.09    0.74
   0 -15  -3    0.42    0.13
  -1 -15  -3    1.46    0.21
  -1 -15  -3    2.07    0.30
  11 -16  -3    0.53    0.17
  10 -16  -3    0.30    0.08
  10 -16  -3    0.37    0.18
   9 -16  -3    0.31    0.09
   9 -16  -3    0.25    0.18
   8 -16  -3    0.20    0.18
   8 -16  -3    0.35    0.10
   7 -16  -3    0.06    0.09
   6 -16  -3    0.18    0.10
   5 -16  -3    0.56    0.12
   4 -16  -3    0.94    0.15
   3 -16  -3    0.80    0.14
   2 -16  -3    2.41    0.31
   2 -16  -3    3.03    0.27
   1 -16  -3    0.41    0.12
   1 -16  -3    0.49    0.17
   8 -17  -3    0.05    0.08
   7 -17  -3    0.31    0.09
   6 -17  -3    1.02    0.15
   5 -17  -3    0.03    0.10
   4 -17  -3    0.06    0.10
   2 -19   4    0.15    0.12
   3 -19   4    0.33    0.11
   4 -19   4    0.06    0.09
   5 -19   4    0.03    0.08
   6 -19   4    0.30    0.08
   0 -18   4    0.50    0.16
   1 -18   4   -0.21    0.13
   2 -18   4   -0.11    0.13
   3 -18   4    0.30    0.13
   4 -18   4    0.12    0.11
   5 -18   4    0.15    0.10
   6 -18   4    1.30    0.15
   7 -18   4    0.01    0.09
   8 -18   4    1.26    0.15
   9 -18   4    0.20    0.07
   3  17  -4    0.15    0.06
   2 -17   4    0.39    0.16
   3 -17   4    0.69    0.15
   4 -17   4    8.93    0.66
   5 -17   4    1.00    0.13
   6 -17   4    0.02    0.08
   7 -17   4    0.09    0.09
   8 -17   4    3.40    0.28
   9 -17   4    0.95    0.14
 -10  17  -4    0.99    0.29
  10 -17   4    0.99    0.13
   4  16  -4   -0.06    0.07
   3  16  -4   -0.09    0.08
   2  16  -4   -0.11    0.08
   1  16  -4   -0.06    0.07
   4 -16   4    0.13    0.13
  -5  16  -4    0.36    0.18
   5 -16   4    0.24    0.11
  -6  16  -4    0.48    0.20
   6 -16   4    0.76    0.11
   7 -16   4    2.13    0.20
  -8  16  -4   -0.67    0.36
   8 -16   4   -0.05    0.09
  -9  16  -4    0.74    0.32
   9 -16   4    0.79    0.11
 -10  16  -4    0.46    0.31
  10 -16   4    0.25    0.08
 -11  16  -4    0.07    0.29
  11 -16   4    0.13    0.08
   6  15  -4   -0.09    0.08
   5  15  -4    0.07    0.09
   4  15  -4   -0.18    0.08
   3  15  -4   -0.16    0.08
   2  15  -4   -0.08    0.08
   1  15  -4   -0.04    0.08
   0  15  -4   -0.12    0.74
   0  15  -4    0.19    0.07
  -1  15  -4    0.17    0.78
  -2  15  -4    0.25    0.14
  -3  15  -4    0.89    0.90
  -4  15  -4    0.25    0.17
  -4  15  -4    0.12    0.83
  -5  15  -4    0.39    0.84
  -5  15  -4    0.08    0.17
   5 -15   4    0.20    0.11
  -6  15  -4    0.08    0.18
  -6  15  -4   -0.25    0.91
   6 -15   4    0.01    0.10
  -7  15  -4    1.33    0.33
  -7  15  -4    1.52    0.38
   7 -15   4    1.11    0.17
  -8  15  -4    4.66    0.55
   8 -15   4    3.03    0.29
  -9  15  -4   -0.27    0.33
   9 -15   4    0.02    0.09
 -10  15  -4   -0.09    0.32
  10 -15   4   -0.11    0.09
 -11  15  -4    0.52    0.31
  11 -15   4    0.54    0.10
 -12  15  -4    0.11    0.28
   7  14  -4    0.04    0.07
   4  14  -4   -0.18    0.08
   3  14  -4    0.08    0.08
   2  14  -4   -0.02    0.09
   2  14  -4    0.20    0.14
   2  14  -4   -0.27    0.69
   1  14  -4    0.48    0.13
   1  14  -4    0.59    0.77
   0  14  -4    0.20    0.72
   0  14  -4    0.91    0.21
   0  14  -4    0.24    0.08
  -1  14  -4   -0.03    0.06
  -1  14  -4    0.13    0.12
  -1  14  -4    0.03    0.71
  -2  14  -4    0.11    0.70
  -2  14  -4    1.48    0.25
  -3  14  -4    2.08    1.01
  -3  14  -4    3.41    0.35
  -4  14  -4    2.28    0.32
  -4  14  -4    1.17    0.88
  -5  14  -4   -0.01    0.16
  -5  14  -4   -0.08    0.76
   5 -14   4   -0.15    0.12
  -6  14  -4    1.03    1.06
  -6  14  -4    0.91    0.21
   6 -14   4    1.01    0.13
  -7  14  -4    0.31    1.09
  -7  14  -4    0.45    0.21
  -7  14  -4    0.49    0.33
   7 -14   4    0.46    0.10
  -8  14  -4    5.57    0.61
  -8  14  -4    2.96    1.39
   8 -14   4    4.10    0.35
  -9  14  -4    0.29    0.34
   9 -14   4    0.12    0.10
 -10  14  -4   -0.19    0.31
  10 -14   4    0.13    0.09
 -11  14  -4   -0.05    0.31
  11 -14   4    0.11    0.09
 -12  14  -4   -0.40    0.29
 -13  14  -4    0.45    0.27
   8  13  -4   -0.09    0.07
   7  13  -4    0.42    0.09
   5  13  -4   -0.15    0.08
   4  13  -4    0.02    0.80
   3  13  -4   -0.32    0.70
   2  13  -4    0.28    0.13
   2  13  -4    0.37    0.75
   1  13  -4   -0.14    0.64
   1  13  -4    0.07    0.12
   0  13  -4    7.90    0.53
   0  13  -4    5.51    0.55
  -1  13  -4    1.67    0.80
  -1  13  -4    1.45    0.26
  -1  13  -4    1.83    0.23
  -2  13  -4    0.88    0.77
  -3  13  -4    2.07    0.28
  -3  13  -4    1.55    0.88
  -4  13  -4    0.41    0.84
  -4  13  -4    0.19    0.15
  -5  13  -4    0.23    0.16
  -5  13  -4    0.13    0.84
  -6  13  -4    0.72    0.21
  -6  13  -4    1.17    0.33
  -6  13  -4    1.04    1.09
   6 -13   4    1.00    0.13
  -7  13  -4    4.03    0.50
  -7  13  -4    5.82    0.62
  -7  13  -4    3.77    1.49
   7 -13   4    5.15    0.38
  -8  13  -4    3.14    1.49
  -8  13  -4    4.51    0.60
   8 -13   4    4.05    0.34
  -9  13  -4    0.18    0.34
   9 -13   4    0.15    0.10
 -10  13  -4    0.39    0.33
  10 -13   4    0.65    0.11
 -11  13  -4    0.03    0.32
  11 -13   4    0.15    0.10
 -12  13  -4    0.10    0.31
 -13  13  -4    0.61    0.30
   9  12  -4   -0.09    0.07
   8  12  -4    0.06    0.08
   7  12  -4   -0.11    0.08
   6  12  -4   -0.12    0.09
   5  12  -4    0.02    0.08
   5  12  -4   -0.28    0.68
   4  12  -4    0.06    0.08
   4  12  -4   -0.13    0.68
   2  12  -4    0.05    0.07
   2  12  -4    0.24    0.66
   1  12  -4   -0.07    0.07
   1  12  -4    0.29    0.64
   1  12  -4    0.05    0.11
   0  12  -4   -0.16    0.58
   0  12  -4    0.17    0.07
   0  12  -4    0.41    0.11
  -1  12  -4    0.43    0.11
  -1  12  -4    0.46    0.65
  -2  12  -4    3.52    0.33
  -2  12  -4    5.58    1.15
  -3  12  -4    0.42    0.78
  -3  12  -4    0.57    0.14
  -4  12  -4    3.93    1.31
  -4  12  -4    3.09    0.34
  -5  12  -4    0.23    0.86
  -5  12  -4   -0.02    0.28
  -5  12  -4    0.00    0.16
  -6  12  -4   -0.01    0.18
  -6  12  -4    0.08    1.00
  -6  12  -4   -0.17    0.31
   6 -12   4   -0.04    0.10
  -7  12  -4   -0.09    0.33
  -7  12  -4    0.21    0.21
  -7  12  -4   -0.04    1.09
   7 -12   4    0.29    0.10
  -8  12  -4    1.97    0.38
  -8  12  -4    2.26    1.39
   8 -12   4    2.08    0.22
  -9  12  -4    3.79    0.59
   9 -12   4    3.17    0.29
 -10  12  -4    3.92    0.60
  10 -12   4    4.88    0.37
 -11  12  -4   -0.08    0.32
  11 -12   4    0.56    0.11
 -12  12  -4    1.71    0.36
 -13  12  -4    0.56    0.32
  10  11  -4    0.01    0.07
   9  11  -4    0.01    0.08
   8  11  -4    3.48    0.37
   7  11  -4   -0.03    0.09
   6  11  -4    1.65    0.87
   6  11  -4    3.83    0.38
   5  11  -4    0.86    0.78
   5  11  -4    0.57    0.10
   4  11  -4    1.54    0.27
   4  11  -4    1.36    0.76
   3  11  -4    4.85    0.42
   3  11  -4    4.78    1.00
   2  11  -4    0.15    0.58
   2  11  -4    0.10    0.06
   1  11  -4    2.99    0.29
   1  11  -4    2.88    0.84
   0  11  -4    0.00    0.54
  -1  11  -4    0.09    0.54
  -2  11  -4    0.02    0.63
  -3  11  -4    8.33    1.41
  -4  11  -4    0.25    0.80
  -5  11  -4    9.10    0.83
  -6  11  -4    0.09    0.95
  -6  11  -4    0.32    0.28
  -6  11  -4    0.06    0.18
  -7  11  -4    0.83    0.31
  -7  11  -4    0.73    1.07
  -7  11  -4    0.30    0.21
   7 -11   4    0.71    0.11
   7 -11   4    0.71    0.39
  -8  11  -4    0.01    1.12
  -8  11  -4   -0.35    0.33
   8 -11   4    0.16    0.10
  -9  11  -4    1.03    0.35
   9 -11   4    0.94    0.13
 -10  11  -4    2.39    0.52
  10 -11   4    2.21    0.23
 -11  11  -4    0.43    0.33
  11 -11   4    0.29    0.11
 -12  11  -4   10.56    0.92
 -13  11  -4    4.10    0.59
 -14  11  -4    0.34    0.34
  10  10  -4    3.91    0.39
   9  10  -4    1.14    0.30
   8  10  -4    0.10    0.09
   7  10  -4    0.29    0.12
   7  10  -4   -0.43    0.72
   6  10  -4    1.12    0.32
   6  10  -4    1.07    0.28
   6  10  -4    0.15    0.76
   5  10  -4   14.92    1.08
   5  10  -4   15.22    1.07
   5  10  -4   11.55    1.56
   4  10  -4    4.05    0.38
   4  10  -4    3.18    0.90
   4  10  -4    3.07    0.34
   3  10  -4   16.44    1.13
   3  10  -4   15.33    1.55
   3  10  -4   14.20    1.12
   2  10  -4   17.64    1.65
   1  10  -4   12.71    1.33
   0  10  -4    1.58    0.63
  -1  10  -4    2.75    0.86
  -2  10  -4   11.33    1.43
  -3  10  -4    2.46    1.06
  -3  10  -4    4.44    1.18
  -4  10  -4    0.65    0.83
  -5  10  -4    0.95    0.86
  -6  10  -4   11.86    1.85
  -7  10  -4    0.02    0.28
  -7  10  -4   -0.33    0.96
  -7  10  -4    0.26    0.20
   7 -10   4    0.21    0.34
  -8  10  -4    0.07    1.09
  -8  10  -4   -0.22    0.31
   8 -10   4    0.08    0.35
   8 -10   4    0.20    0.09
  -9  10  -4    6.37    0.72
   9 -10   4    7.63    0.54
 -10  10  -4    0.23    0.33
  10 -10   4    0.72    0.12
 -11  10  -4    2.56    0.53
 -12  10  -4    2.41    0.56
 -13  10  -4    4.66    0.64
  13 -10   4    3.92    0.36
 -14  10  -4    0.01    0.37
  11   9  -4    1.50    0.27
  10   9  -4    2.19    0.33
   9   9  -4    0.05    0.09
   9   9  -4   -0.17    0.12
   8   9  -4    0.18    0.12
   8   9  -4   -0.76    0.74
   7   9  -4    5.43    0.46
   7   9  -4    4.99    0.50
   6   9  -4    0.11    0.08
   6   9  -4   -0.85    0.75
   5   9  -4   40.70    2.83
   5   9  -4   38.32    2.82
   4   9  -4   12.57    1.47
   4   9  -4   15.20    1.12
   4   9  -4   16.29    1.11
   3   9  -4   14.78    1.06
   3   9  -4   13.61    1.41
   2   9  -4    1.87    0.27
   2   9  -4    1.65    0.60
   1   9  -4    0.48    0.50
   0   9  -4    2.54    0.78
  -1   9  -4   -0.10    0.52
  -2   9  -4   -0.19    0.90
  -2   9  -4   -0.09    0.67
  -3   9  -4    2.48    0.97
  -3   9  -4    2.87    0.97
  -4   9  -4    3.89    1.16
  -4   9  -4    3.30    1.19
  -5   9  -4    3.57    1.29
  -6   9  -4    1.83    1.02
   6  -9   4    0.84    0.36
  -7   9  -4    0.69    0.28
  -7   9  -4    0.90    0.21
  -7   9  -4    1.14    1.06
   7  -9   4    0.84    0.35
  -8   9  -4    2.84    0.49
  -8   9  -4    4.17    1.47
   8  -9   4    3.23    0.27
   8  -9   4    3.33    0.61
  -9   9  -4    6.03    0.65
   9  -9   4    6.00    0.45
 -10   9  -4    8.59    0.79
  10  -9   4    8.61    0.64
 -11   9  -4    4.53    0.62
 -12   9  -4    0.23    0.37
 -13   9  -4    0.40    0.40
 -14   9  -4    1.34    0.42
  12   8  -4    2.69    0.32
  11   8  -4    0.21    0.09
  10   8  -4    1.09    0.29
   9   8  -4    1.64    0.36
   8   8  -4    1.96    0.27
   8   8  -4   -0.47    0.78
   8   8  -4    1.13    0.35
   7   8  -4    0.34    0.11
   7   8  -4   -0.02    0.73
   6   8  -4    2.49    0.97
   6   8  -4    3.88    0.37
   6   8  -4    5.06    0.42
   5   8  -4    2.54    0.30
   5   8  -4    1.60    0.72
   4   8  -4    5.04    0.43
   3   8  -4    9.49    1.07
   3   8  -4    9.93    0.74
   2   8  -4   10.38    1.10
   2   8  -4   11.48    0.83
   1   8  -4   17.07    1.51
   1   8  -4   16.80    1.23
   0   8  -4    5.36    0.90
  -1   8  -4    9.56    1.18
  -1   8  -4    9.94    1.56
  -2   8  -4    2.93    0.98
  -2   8  -4    3.90    1.22
  -3   8  -4    0.16    0.73
  -3   8  -4    0.39    0.74
  -4   8  -4   37.09    3.19
  -5   8  -4   39.75    3.47
  -6   8  -4    0.23    0.84
   6  -8   4    0.37    0.30
  -7   8  -4   -0.06    0.90
   7  -8   4   -0.03    0.31
  -8   8  -4    5.66    0.60
   8  -8   4    6.04    0.71
  -9   8  -4    1.29    0.33
   9  -8   4    1.04    0.17
 -10   8  -4    2.91    0.53
 -11   8  -4    2.85    0.56
 -12   8  -4    2.21    0.44
 -13   8  -4    0.46    0.41
  13  -8   4    0.16    0.05
  12   7  -4    3.25    0.35
  11   7  -4    1.19    0.29
  10   7  -4    5.63    0.45
  10   7  -4    4.09    0.50
   9   7  -4    1.45    0.35
   9   7  -4   -0.32    0.78
   8   7  -4    9.51    0.75
   8   7  -4    9.28    0.71
   7   7  -4    2.94    0.95
   7   7  -4    4.38    0.40
   7   7  -4    4.01    0.35
   6   7  -4    5.77    0.49
   6   7  -4    5.17    0.98
   6   7  -4    6.63    0.50
   5   7  -4    4.60    0.40
   5   7  -4    4.88    0.82
   4   7  -4   53.63    3.95
   4   7  -4   52.25    3.77
   3   7  -4    3.14    0.72
   3   7  -4    3.16    0.31
   2   7  -4   92.86    6.75
   2   7  -4   97.17    6.91
   1   7  -4   15.44    1.15
   1   7  -4   16.61    1.41
   0   7  -4    5.38    0.83
   0   7  -4    5.74    1.25
   0  -7   4    4.12    0.66
  -1   7  -4    0.25    0.69
  -1   7  -4    0.31    0.51
   1  -7   4   -0.12    0.30
  -2   7  -4   12.24    1.45
  -2   7  -4   11.72    1.37
  -3   7  -4    2.78    0.97
  -4   7  -4    2.13    0.92
  -5   7  -4   84.49    6.53
  -6   7  -4   10.72    1.61
  -6   7  -4    8.87    0.70
   6  -7   4   11.79    0.89
  -7   7  -4    0.08    0.10
  -7   7  -4    0.07    1.08
   7  -7   4   -0.06    0.28
  -8   7  -4   -0.43    0.26
  -8   7  -4   -0.09    0.12
  -9   7  -4    0.22    0.29
  -9   7  -4    0.24    0.14
   9  -7   4    0.16    0.10
 -10   7  -4    8.01    0.68
 -10   7  -4   10.36    0.83
 -11   7  -4    5.84    0.48
 -11   7  -4    6.16    0.71
 -12   7  -4    1.29    0.42
 -12   7  -4    0.61    0.16
  12  -7   4    0.79    0.20
 -13   7  -4    1.04    0.15
  13  -7   4    0.87    0.18
  13   6  -4    0.84    0.22
  12   6  -4    4.30    0.41
  11   6  -4    9.55    0.66
  11   6  -4    7.36    0.71
  10   6  -4    0.10    0.11
  10   6  -4   -1.23    0.73
   9   6  -4    1.42    0.83
   9   6  -4    2.43    0.25
   9   6  -4    1.80    0.35
   8   6  -4    0.55    0.75
   8   6  -4    1.29    0.19
   8   6  -4    0.84    0.28
   7   6  -4    1.98    0.76
   7   6  -4    2.40    0.24
   7   6  -4    2.43    0.30
   6   6  -4    8.54    0.67
   6   6  -4    9.34    1.07
   5   6  -4   48.57    3.44
   5   6  -4   42.93    3.25
   4   6  -4   29.86    2.30
   4   6  -4   35.02    2.48
   3   6  -4    5.39    0.44
   2   6  -4    0.54    0.39
  -2  -6   4    0.05    0.49
   1   6  -4   14.95    1.29
  -1  -6   4   15.10    1.31
   0   6  -4   33.59    2.52
   0   6  -4   33.08    2.71
   0  -6   4   30.31    2.42
  -1   6  -4    6.96    1.10
  -1   6  -4    7.31    0.96
   1  -6   4    7.57    0.83
  -2   6  -4    0.45    0.55
   2  -6   4    0.40    0.33
  -3   6  -4   33.03    2.77
  -4   6  -4    1.14    0.77
  -5   6  -4   84.89    6.75
   5  -6   4   91.11    6.34
  -6   6  -4    1.17    0.17
  -6   6  -4    1.06    1.05
   6  -6   4    2.03    0.35
  -7   6  -4    8.71    0.65
  -8   6  -4    0.74    0.40
  -8   6  -4    0.34    0.14
  -8   6  -4    0.66    1.31
  -9   6  -4    2.43    0.45
  -9   6  -4    1.36    0.25
 -10   6  -4    6.74    0.54
 -11   6  -4    2.39    0.60
 -11   6  -4    1.24    0.21
  11  -6   4    1.68    0.24
 -12   6  -4    0.23    0.15
  12  -6   4    0.06    0.05
 -13   6  -4    0.51    0.14
 -14   6  -4    2.81    0.26
  13   5  -4    1.00    0.23
  12   5  -4    0.10    0.07
  11   5  -4    0.27    0.11
  11   5  -4   -1.98    1.21
  10   5  -4    4.06    0.47
  10   5  -4    5.15    0.40
   9   5  -4    2.96    0.96
   9   5  -4    4.98    0.38
   9   5  -4    4.36    0.46
   8   5  -4    3.09    0.27
   8   5  -4    2.62    0.35
   8   5  -4    2.95    0.86
   7   5  -4    6.31    0.92
   7   5  -4    5.63    0.49
   6   5  -4   -0.39    0.56
  -6  -5   4   -0.06    0.41
   5   5  -4    8.40    0.97
   4   5  -4    5.07    0.73
  -4  -5   4    4.75    1.60
   3   5  -4   22.99    1.80
  -3  -5   4   24.76    2.14
   2   5  -4   11.10    0.95
  -2  -5   4    9.96    1.20
   1   5  -4    4.82    1.03
   1   5  -4    3.86    0.58
  -1  -5   4    3.28    0.61
   0   5  -4   43.94    3.49
   0   5  -4   42.90    3.34
   0  -5   4   47.05    3.29
  -1   5  -4   10.87    1.14
   1  -5   4   10.99    1.01
  -2   5  -4    1.52    0.57
   2  -5   4    0.73    0.32
  -3   5  -4    0.22    0.59
   3  -5   4    0.08    0.32
  -4   5  -4   36.94    3.11
  -5   5  -4    4.18    1.33
   5  -5   4    3.92    0.50
   6  -5   4   44.87    3.28
  -7   5  -4    0.65    1.22
  -8   5  -4    2.09    1.44
  -9   5  -4    1.34    0.32
 -10   5  -4    1.06    0.41
 -10   5  -4    0.74    0.20
  10  -5   4    1.15    0.23
 -11   5  -4    0.55    0.18
  11  -5   4    0.22    0.06
 -12   5  -4    3.11    0.31
  12  -5   4    3.00    0.30
 -13   5  -4    1.41    0.22
 -14   5  -4    0.54    0.13
  14   4  -4    0.95    0.20
  13   4  -4    0.08    0.06
  12   4  -4    0.03    0.10
  12   4  -4    0.17    0.07
  11   4  -4    1.10    0.34
  11   4  -4    0.04    0.73
  11   4  -4    1.40    0.22
  10   4  -4    3.75    0.33
  10   4  -4    3.45    0.42
  10   4  -4    2.42    0.94
   9   4  -4   10.39    0.73
   9   4  -4    7.85    1.17
   8   4  -4    2.29    0.78
   8   4  -4    2.90    0.28
   7   4  -4    2.61    0.75
  -7  -4   4    3.25    0.92
   6   4  -4   -0.32    0.52
  -6  -4   4   -0.13    0.40
   5   4  -4    4.71    0.75
  -5  -4   4    4.47    0.90
   4   4  -4   13.45    1.12
  -4  -4   4   13.12    1.48
   3   4  -4   20.63    1.67
  -3  -4   4   24.78    1.96
  -2  -4   4   20.31    1.73
   1   4  -4   18.78    1.83
   0  -4   4   31.14    2.32
  -1   4  -4  217.95   15.59
   1  -4   4  216.77   15.54
  -2   4  -4   62.52    4.61
   2  -4   4   59.40    4.54
  -3   4  -4    8.23    1.15
  -3   4  -4    8.14    0.88
   3  -4   4    8.92    1.03
  -4   4  -4    4.63    1.21
   4  -4   4    6.42    0.54
   5  -4   4    7.62    0.68
  -6   4  -4    5.20    1.71
  -7   4  -4    5.91    1.70
  -8   4  -4    2.12    1.48
   9  -4   4    0.93    0.22
  10  -4   4    1.05    0.22
 -11   4  -4    0.40    0.18
  11  -4   4    0.23    0.07
 -12   4  -4    0.34    0.17
 -13   4  -4    0.14    0.14
 -14   4  -4    0.41    0.18
  14   3  -4    1.87    0.23
  13   3  -4    6.98    0.55
  12   3  -4    2.05    0.36
  12   3  -4    2.17    0.26
  11   3  -4    2.82    0.29
  11   3  -4    1.90    0.78
  10   3  -4    0.90    0.67
   9   3  -4    2.05    0.20
   9   3  -4    2.27    0.73
   9   3  -4    2.11    0.23
   8   3  -4    3.50    0.28
   8   3  -4    3.91    0.81
   7   3  -4   13.79    1.32
  -7  -3   4   13.69    1.50
   6   3  -4    3.66    0.75
  -6  -3   4    4.63    0.90
   5   3  -4    6.55    0.76
  -5  -3   4    6.40    0.91
   4   3  -4    2.14    0.43
   2   3  -4  118.16    8.64
   1   3  -4  108.68    7.94
  -1   3  -4   50.50    3.89
   1  -3   4   53.43    3.86
  -2   3  -4    9.28    1.17
   2  -3   4    9.28    1.03
  -3   3  -4    3.09    0.59
   3  -3   4    3.64    0.77
  -4   3  -4    7.36    1.45
   4  -3   4    5.75    0.53
  -5   3  -4   13.47    1.95
  -6   3  -4    5.27    1.63
  -7   3  -4    0.60    1.29
  -8   3  -4    0.87    1.57
   9  -3   4    8.30    0.64
  10  -3   4    2.22    0.27
 -11   3  -4    1.03    0.20
  11  -3   4    1.02    0.22
 -12   3  -4    2.10    0.31
 -12   3  -4    2.38    0.29
 -13   3  -4    0.55    0.15
  15   2  -4    0.66    0.17
  14   2  -4    0.62    0.18
  13   2  -4    1.20    0.23
  13   2  -4    2.06    0.32
  12   2  -4    0.98    0.67
  11   2  -4    0.59    0.68
  10   2  -4    0.45    0.10
  10   2  -4    0.49    0.65
   9   2  -4    0.23    0.48
   9   2  -4    0.44    0.09
   9   2  -4    0.13    0.05
   8   2  -4    0.27    0.50
  -8  -2   4    1.08    0.50
   7   2  -4    5.02    0.80
  -7  -2   4    4.80    0.97
   6   2  -4    4.04    0.72
  -6  -2   4    5.21    0.86
   5   2  -4    1.40    0.49
  -5  -2   4    2.40    0.62
   4   2  -4   18.71    1.47
  -4  -2   4   19.65    1.57
   2   2  -4   42.52    3.33
  -1   2  -4  241.89   16.79
   1  -2   4  226.54   16.75
  -2   2  -4  118.99    7.83
  -2   2  -4   94.08    7.66
   2  -2   4  105.49    7.73
  -3   2  -4   20.06    1.79
  -3   2  -4   23.41    2.06
   3  -2   4   21.76    1.56
   3  -2   4   20.71    1.87
  -4   2  -4    0.98    1.02
  -5   2  -4    0.36    1.12
  -6   2  -4    2.24    1.39
  -7   2  -4   33.49    3.50
   9  -2   4    2.24    0.31
  10  -2   4   -0.03    0.06
 -11   2  -4    3.02    0.37
  11  -2   4    4.10    0.39
 -12   2  -4    0.67    0.19
 -12   2  -4    0.78    0.14
 -13   2  -4   -0.02    0.11
 -13   2  -4    0.30    0.15
  15   1  -4    0.87    0.18
  14   1  -4    6.24    0.50
  13   1  -4    1.60    0.23
  12   1  -4    2.84    0.94
  11   1  -4    5.97    0.46
  11   1  -4    6.20    1.05
  11   1  -4    6.06    0.48
  10   1  -4    0.42    0.53
   9   1  -4    1.68    0.18
   9   1  -4    1.99    0.73
   8   1  -4    5.73    0.87
  -8  -1   4    4.84    0.99
   7   1  -4   19.37    1.68
  -7  -1   4   18.47    1.78
   6   1  -4    2.25    0.60
  -6  -1   4    2.32    0.73
   5   1  -4    1.81    0.51
  -5  -1   4    1.26    0.34
   4   1  -4   23.40    1.78
   2   1  -4    4.85    1.00
   0   1  -4   47.22    3.57
  -1   1  -4   47.21    3.36
   1  -1   4   38.30    3.20
  -2   1  -4   -0.18    0.71
  -2   1  -4    0.11    0.26
   2  -1   4    0.06    0.30
  -3   1  -4    2.18    0.88
  -3   1  -4    1.18    0.37
   3  -1   4    0.95    0.41
  -4   1  -4   14.61    1.86
  -5   1  -4   -0.08    1.18
  -6   1  -4    7.18    1.79
  -7   1  -4    5.84    1.89
   9  -1   4    0.01    0.08
  10  -1   4    0.02    0.08
 -11   1  -4    6.53    0.54
 -12   1  -4    1.74    0.27
 -12   1  -4    1.73    0.23
 -13   1  -4    0.17    0.10
 -13   1  -4    0.22    0.15
  15   0  -4    0.12    0.06
  14   0  -4    0.71    0.20
  13   0  -4    1.05    0.21
  12   0  -4    6.72    0.52
  12   0  -4    5.50    0.97
  12   0  -4    6.72    0.50
  11   0  -4    4.00    0.92
  11   0  -4    3.66    0.33
  11   0  -4    3.63    0.31
  10   0  -4    0.65    0.60
  10   0  -4    0.73    0.14
   9   0  -4    2.00    0.19
   9   0  -4    2.48    0.81
   8   0  -4    7.06    0.98
  -8   0   4    6.25    1.05
   7   0  -4    0.95    0.51
  -7   0   4    0.76    0.40
   6   0  -4   34.12    2.58
  -6   0   4   31.53    2.61
   5   0  -4    2.89    0.56
  -5   0   4    2.61    0.58
   4   0  -4  104.63    7.78
  -4   0   4  111.71    7.81
   2   0  -4    2.88    0.79
   0   0  -4   23.87    2.21
   0   0   4   26.10    2.01
  -1   0  -4   47.74    3.70
  -1   0  -4   46.32    3.53
  -2   0  -4   24.03    1.97
  -2   0  -4   23.32    2.22
  -3   0  -4   76.72    5.91
  -4   0  -4    5.25    1.50
  -5   0  -4    4.71    1.67
  -6   0  -4   20.11    2.63
 -11   0  -4    0.38    0.19
 -12   0  -4    0.91    0.19
 -12   0  -4    0.99    0.15
 -13   0  -4    0.60    0.11
 -13   0  -4    0.46    0.16
  15  -1  -4    0.81    0.19
  14  -1  -4    1.35    0.22
  13  -1  -4    1.14    0.21
  13  -1  -4    0.77    0.17
  12  -1  -4    0.00    0.10
  12  -1  -4    0.67    0.61
  11  -1  -4    1.41    0.17
  11  -1  -4    0.98    0.20
  11  -1  -4    2.35    0.89
  10  -1  -4    2.77    0.25
  10  -1  -4    3.25    0.91
   9  -1  -4    5.08    0.91
   8  -1  -4    0.18    0.51
  -8   1   4    0.14    0.36
   7  -1  -4    8.90    1.07
  -7   1   4    8.90    1.09
   6  -1  -4   10.86    1.15
  -6   1   4   11.51    1.15
   5  -1  -4    2.56    0.56
  -5   1   4    2.44    0.60
   4  -1  -4  179.26   13.70
  -4   1   4  203.56   13.72
   3  -1  -4   52.00    4.07
  -3   1   4   59.53    4.07
   2  -1  -4   42.09    3.26
  -2   1   4   46.90    3.25
   1  -1  -4  200.67   14.90
  -1   1   4  216.35   14.92
   0  -1  -4    2.10    0.86
   0   1   4    0.25    0.50
  -1  -1  -4   10.51    1.05
  -1  -1  -4    8.63    1.48
  -2  -1  -4    0.72    0.33
  -2  -1  -4    0.04    0.83
  -3  -1  -4   -0.13    0.99
  -4  -1  -4    1.50    1.23
  -5  -1  -4    0.32    1.20
  -6  -1  -4    1.51    1.41
 -11  -1  -4    0.25    0.18
 -12  -1  -4    1.92    0.28
 -12  -1  -4    2.69    0.26
  16  -2  -4    0.05    0.05
  15  -2  -4    1.22    0.20
  14  -2  -4    1.22    0.22
  13  -2  -4    3.07    0.97
  12  -2  -4    5.34    1.08
  12  -2  -4    4.69    0.37
  12  -2  -4    4.49    0.40
  11  -2  -4    2.73    0.25
  11  -2  -4    3.70    1.04
  10  -2  -4    1.61    0.18
  10  -2  -4    2.23    0.82
   9  -2  -4    1.62    0.67
   8  -2  -4    0.17    0.53
  -8   2   4   -0.10    0.36
   7  -2  -4    3.26    0.76
  -7   2   4    4.37    0.86
   6  -2  -4   73.87    5.56
  -6   2   4   75.49    5.56
   5  -2  -4    3.44    0.71
  -5   2   4    3.57    0.67
   4  -2  -4   30.32    2.41
  -4   2   4   32.06    2.39
   3  -2  -4  340.58   24.97
   3  -2  -4  341.43   24.88
  -3   2   4  368.70   24.93
   2  -2  -4  188.53   14.62
   2  -2  -4  218.02   14.71
  -2   2   4  210.51   14.71
   1  -2  -4    5.42    0.87
   1  -2  -4    5.55    0.47
   0  -2  -4    0.83    0.80
   0   2   4    0.38    0.43
  -1  -2  -4    8.69    0.96
  -1  -2  -4    6.15    1.49
  -2  -2  -4    3.27    1.38
  -3  -2  -4    1.28    1.52
  -4  -2  -4   14.72    2.36
  -5  -2  -4    9.85    2.27
  -6  -2  -4    1.04    2.49
 -10  -2  -4    6.93    0.56
 -11  -2  -4    1.64    0.27
 -12  -2  -4    0.89    0.17
 -12  -2  -4    1.18    0.15
  16  -3  -4    0.07    0.05
  15  -3  -4    3.29    0.31
  14  -3  -4    1.99    0.25
  13  -3  -4    2.48    0.93
  12  -3  -4    7.42    0.59
  12  -3  -4   10.27    1.39
  11  -3  -4    2.86    0.26
  11  -3  -4    3.22    0.96
  10  -3  -4    3.16    0.93
  10  -3  -4    2.40    0.24
   9  -3  -4    8.46    1.19
   8  -3  -4    1.96    0.66
  -8   3   4    0.77    0.43
   7  -3  -4    0.39    0.53
  -7   3   4    0.16    0.37
   6  -3  -4   29.53    2.48
  -6   3   4   30.15    2.44
   5  -3  -4   10.00    1.08
   5  -3  -4    9.27    0.82
  -5   3   4   10.25    1.04
   4  -3  -4   73.29    5.29
   4  -3  -4   71.64    5.44
  -4   3   4   76.00    5.37
   3  -3  -4  270.63   19.95
   3  -3  -4  277.56   20.06
  -3   3   4  293.47   20.02
   2  -3  -4   14.02    1.03
   2  -3  -4   14.39    1.25
  -2   3   4   12.14    1.34
   1  -3  -4   14.84    1.06
   1  -3  -4   15.95    1.42
  -1   3   4   11.53    1.47
   0  -3  -4   61.10    4.62
   0   3   4   58.65    4.53
  -1  -3  -4    8.17    1.49
   1   3   4    6.17    0.94
  -2  -3  -4    6.99    1.95
  -3  -3  -4   13.98    2.40
  -4  -3  -4   -0.36    1.58
  -5  -3  -4    0.29    1.73
 -10  -3  -4    2.55    0.31
 -11  -3  -4    1.97    0.23
 -11  -3  -4    1.09    0.19
  16  -4  -4    0.01    0.05
  15  -4  -4    0.11    0.06
  14  -4  -4   -0.03    0.06
  13  -4  -4    1.26    0.82
  12  -4  -4    4.53    1.08
  12  -4  -4    4.35    0.36
  11  -4  -4    0.67    0.16
  11  -4  -4    0.72    0.72
  11  -4  -4    0.83    0.16
  10  -4  -4    3.14    0.99
  10  -4  -4    3.47    0.30
   9  -4  -4    1.09    0.64
   8  -4  -4   53.90    4.26
   7  -4  -4   13.91    1.50
  -7   4   4   13.82    1.43
   6  -4  -4   23.17    1.69
   6  -4  -4   20.23    1.96
  -6   4   4   22.65    1.92
   5  -4  -4    5.05    0.91
   5  -4  -4    5.16    0.56
  -5   4   4    5.66    0.81
   4  -4  -4   23.85    1.90
   4  -4  -4   25.87    2.13
  -4   4   4   26.69    2.03
   3  -4  -4    6.98    0.88
   3  -4  -4    6.47    0.59
  -3   4   4    6.53    0.92
   2  -4  -4    9.55    0.77
   2  -4  -4   10.97    1.08
  -2   4   4    7.92    1.29
   1  -4  -4    4.58    0.96
  -1   4   4    3.17    1.03
   0  -4  -4   15.11    1.69
   0   4   4   12.73    1.52
  -1  -4  -4   -0.59    1.16
   1   4   4    0.24    0.51
  -2  -4  -4    8.10    1.86
  -3  -4  -4    1.48    1.54
  -4  -4  -4    7.07    2.28
  -9  -4  -4   -0.35    0.18
 -10  -4  -4    0.06    0.16
 -11  -4  -4    0.15    0.13
 -11  -4  -4   -0.31    0.16
  16  -5  -4    1.05    0.18
  15  -5  -4    1.07    0.20
  14  -5  -4    0.36    0.08
  13  -5  -4   10.76    1.57
  12  -5  -4    2.89    0.31
  12  -5  -4    1.95    0.89
  11  -5  -4    0.33    0.12
  11  -5  -4    0.08    0.70
  11  -5  -4    0.45    0.16
  10  -5  -4   17.35    1.87
  10  -5  -4   16.79    1.22
  10  -5  -4   16.06    1.20
   9  -5  -4   13.83    1.02
   9  -5  -4   14.57    1.61
   8  -5  -4   32.79    2.84
   7  -5  -4   21.28    1.98
   7  -5  -4   21.37    1.60
  -7   5   4   18.23    1.95
   6  -5  -4   33.05    2.79
   6  -5  -4   34.52    2.49
  -6   5   4   32.57    2.67
   5  -5  -4   31.95    2.54
   5  -5  -4   34.22    2.84
  -5   5   4   36.76    2.73
   4  -5  -4   16.30    1.59
   4  -5  -4   16.53    1.31
  -4   5   4   17.53    1.61
   3  -5  -4   34.28    2.54
   3  -5  -4   36.81    2.78
  -3   5   4   33.01    2.85
   2  -5  -4    0.55    0.57
   2  -5  -4   -0.22    0.17
  -2   5   4   -0.21    0.65
   1  -5  -4    1.22    0.84
  -1   5   4    0.45    0.80
   0  -5  -4    8.66    1.55
  -1  -5  -4    0.10    1.17
  -2  -5  -4   -0.33    1.30
  -3  -5  -4    8.18    2.13
  -4  -5  -4    0.85    1.76
   6   5   4   -0.12    0.11
  -7  -5  -4    1.68    0.27
  -8  -5  -4    0.96    0.20
  -9  -5  -4    2.81    0.43
 -10  -5  -4    0.30    0.14
  16  -6  -4    3.95    0.33
  15  -6  -4    2.19    0.25
  13  -6  -4    1.27    0.26
  13  -6  -4    1.21    0.81
  12  -6  -4    0.58    0.72
  12  -6  -4    0.57    0.17
  11  -6  -4   19.88    1.47
  11  -6  -4   19.79    2.18
  11  -6  -4   19.68    1.45
  10  -6  -4    0.16    0.16
  10  -6  -4    0.30    0.07
  10  -6  -4    0.42    0.13
  10  -6  -4    0.20    0.65
   9  -6  -4    4.50    1.11
   9  -6  -4    4.16    0.36
   8  -6  -4    3.68    1.10
   7  -6  -4   11.89    1.52
   7  -6  -4   14.42    1.12
   6  -6  -4    9.56    0.83
   6  -6  -4    8.03    1.26
   5  -6  -4    6.96    0.67
   5  -6  -4    6.45    1.10
  -5   6   4    6.38    1.10
   4  -6  -4    0.10    0.25
   4  -6  -4    0.09    0.56
  -4   6   4   -0.03    0.57
   3  -6  -4    1.51    0.64
   3  -6  -4    1.02    0.27
  -3   6   4    0.00    0.74
   2  -6  -4    1.45    0.66
   2  -6  -4    1.11    0.25
   1  -6  -4    2.29    0.93
   0  -6  -4   10.54    1.69
  -1  -6  -4   13.81    2.08
  -2  -6  -4   15.03    2.31
  -3  -6  -4    2.04    1.54
   4   6   4    0.83    0.14
   5   6   4   -0.13    0.09
   6   6   4   -0.19    0.09
   7   6   4   -0.18    0.16
  -9  -6  -4    0.23    0.16
 -10  -6  -4    0.16    0.11
  16  -7  -4    1.17    0.18
 -15   7   4    0.37    0.43
  14  -7  -4    4.23    0.38
  13  -7  -4    0.05    0.16
  12  -7  -4    6.21    1.35
  12  -7  -4    5.79    0.51
  11  -7  -4    1.99    1.00
  11  -7  -4    1.66    0.30
  10  -7  -4    2.91    0.23
  10  -7  -4    2.30    0.33
  10  -7  -4    2.28    0.89
   9  -7  -4    0.16    0.07
   9  -7  -4    0.11    0.67
   9  -7  -4    0.07    0.13
   8  -7  -4    0.70    0.34
   8  -7  -4    0.21    0.68
   7  -7  -4   23.93    2.26
   7  -7  -4   21.45    1.77
   6  -7  -4   33.21    2.89
   6  -7  -4   32.70    2.48
   5  -7  -4    1.14    0.32
   5  -7  -4    1.50    0.75
   4  -7  -4   -0.03    0.25
   4  -7  -4   -0.23    0.54
   3  -7  -4    0.80    0.26
   3  -7  -4    0.94    0.64
   2  -7  -4    8.85    1.23
   1  -7  -4    1.56    0.86
   0  -7  -4    0.74    1.11
  -1  -7  -4   -0.17    1.20
  -2  -7  -4   -0.50    1.33
   3   7   4    0.07    0.07
   4   7   4    0.12    0.08
   5   7   4   -0.06    0.08
   6   7   4    0.03    0.09
  -7  -7  -4    1.15    0.22
  -8  -7  -4    0.53    0.16
  -9  -7  -4    1.93    0.22
  15  -8  -4    0.08    0.07
  15  -8  -4    0.43    0.14
 -15   8   4    0.14    0.39
  14  -8  -4    0.58    0.16
  13  -8  -4    2.30    0.31
  12  -8  -4    0.67    0.84
  12  -8  -4    0.24    0.17
  11  -8  -4   -0.14    0.18
  11  -8  -4    0.23    0.08
  11  -8  -4   -0.05    0.71
  10  -8  -4    1.21    0.16
  10  -8  -4    1.46    0.91
  10  -8  -4    1.54    0.23
   9  -8  -4    7.99    0.59
   9  -8  -4    8.93    1.52
   8  -8  -4    0.49    0.14
   8  -8  -4   -0.07    0.65
   8  -8  -4    0.16    0.34
   7  -8  -4    4.10    1.07
   7  -8  -4    2.93    0.56
   6  -8  -4   25.68    2.06
   6  -8  -4   27.79    2.52
   5  -8  -4   14.94    1.68
   5  -8  -4   15.09    1.23
   4  -8  -4    4.55    0.54
   4  -8  -4    4.32    0.99
   3  -8  -4   -0.45    0.59
   3  -8  -4   -0.36    0.21
   2  -8  -4    3.07    0.97
   1  -8  -4    8.97    1.46
   0  -8  -4   13.69    1.96
  -1  -8  -4   -0.85    1.30
   2   8   4    1.03    0.22
   3   8   4    1.29    0.25
   4   8   4    0.17    0.08
   5   8   4   -0.01    0.08
   6   8   4    0.26    0.10
  -7  -8  -4    2.33    0.32
  -7  -8  -4    1.70    0.27
  -8  -8  -4    0.13    0.12
  15  -9  -4    0.54    0.13
 -15   9   4    0.02    0.34
  14  -9  -4    0.49    0.16
  13  -9  -4   -0.06    0.16
  12  -9  -4    1.47    1.00
  12  -9  -4    1.25    0.22
  11  -9  -4    2.31    0.19
  11  -9  -4    1.51    0.26
  11  -9  -4    1.92    1.00
  10  -9  -4   -0.01    0.08
  10  -9  -4    0.12    0.19
  10  -9  -4    0.22    0.81
   9  -9  -4    2.30    1.05
   9  -9  -4    2.67    0.23
   8  -9  -4    0.04    0.07
   8  -9  -4   -0.34    0.35
   8  -9  -4    0.02    0.71
   7  -9  -4    0.16    0.08
   7  -9  -4    0.40    0.67
   7  -9  -4   -0.03    0.33
   6  -9  -4    7.94    0.81
   6  -9  -4    7.99    1.36
   5  -9  -4    0.27    0.72
   5  -9  -4    0.48    0.30
   4  -9  -4    3.22    0.50
   4  -9  -4    3.31    1.00
   3  -9  -4    1.53    0.79
   2  -9  -4   -0.06    0.71
  -1   9   4   10.55    0.83
   0  -9  -4   -0.54    1.01
   1   9   4    1.18    0.26
   2   9   4    1.15    0.26
   3   9   4    0.85    0.25
   4   9   4    2.74    0.32
   5   9   4    0.19    0.08
  -7  -9  -4    4.15    0.37
  -7  -9  -4    2.69    0.31
  15 -10  -4    0.67    0.14
 -15  10   4    0.70    0.31
  14 -10  -4    1.09    0.24
  13 -10  -4   -0.06    0.16
  12 -10  -4    0.17    0.19
  11 -10  -4    1.87    0.93
  11 -10  -4    2.43    0.22
  11 -10  -4    2.56    0.35
  10 -10  -4   -0.11    0.08
  10 -10  -4    0.18    0.78
  10 -10  -4    0.02    0.19
   9 -10  -4    1.04    0.85
   9 -10  -4    1.54    0.17
   8 -10  -4    0.43    0.09
   8 -10  -4    0.39    0.77
   7 -10  -4    7.98    0.85
   7 -10  -4    7.53    0.55
   7 -10  -4    6.86    1.36
   6 -10  -4    0.25    0.75
   6 -10  -4    0.30    0.34
   6 -10  -4    0.19    0.10
   5 -10  -4   -0.11    0.09
   5 -10  -4    0.14    0.74
   5 -10  -4    0.05    0.30
   4 -10  -4    0.25    0.73
   4 -10  -4    0.73    0.11
   3 -10  -4    0.12    0.72
  -2  10   4    4.71    0.42
   1 -10  -4    4.54    1.70
  -1  10   4    2.65    0.34
   0  10   4    1.23    0.31
   1  10   4    0.19    0.09
   2  10   4    1.47    0.31
   3  10   4    1.06    0.28
   4  10   4    1.36    0.28
   5  10   4    0.19    0.09
  -6 -10  -4    3.02    0.36
  -7 -10  -4    0.73    0.17
  15 -11  -4    1.07    0.20
 -15  11   4    1.64    0.38
  14 -11  -4    0.38    0.15
  13 -11  -4    0.16    0.16
  12 -11  -4    1.01    0.15
  12 -11  -4    0.95    0.21
  11 -11  -4    2.70    0.35
  11 -11  -4    2.08    0.21
  10 -11  -4    8.17    0.61
  10 -11  -4    6.23    1.49
  10 -11  -4    9.26    0.69
   9 -11  -4    0.52    0.80
   9 -11  -4    0.47    0.10
   8 -11  -4    1.61    0.93
   8 -11  -4    2.08    0.19
   7 -11  -4   -0.31    0.69
   7 -11  -4    0.13    0.09
   6 -11  -4   -0.03    0.10
   6 -11  -4   -0.44    0.75
   5 -11  -4    5.26    0.39
   5 -11  -4    3.86    1.25
   4 -11  -4    1.71    0.19
   4 -11  -4    0.79    0.91
   3 -11  -4   -0.03    0.87
  -1  11   4    0.16    0.08
   0  11   4    2.52    0.35
   1  11   4    1.13    0.33
   2  11   4    1.70    0.33
   3  11   4    0.17    0.09
   4  11   4    1.46    0.31
  -5 -11  -4    0.39    0.19
  -6 -11  -4    0.49    0.17
  14 -12  -4    0.01    0.14
  13 -12  -4    0.72    0.18
  12 -12  -4   -0.02    0.18
  12 -12  -4    0.01    0.08
  11 -12  -4    1.11    0.15
  11 -12  -4    1.54    0.31
  10 -12  -4    0.78    0.11
  10 -12  -4    1.47    0.31
   9 -12  -4    0.59    0.11
   9 -12  -4    0.43    0.85
   8 -12  -4    1.59    0.17
   8 -12  -4    0.88    0.90
   7 -12  -4    0.12    0.77
   7 -12  -4    0.09    0.10
   6 -12  -4    0.31    0.11
   6 -12  -4    0.40    0.87
   5 -12  -4    0.12    0.89
   5 -12  -4    0.27    0.12
   4 -12  -4    0.24    0.12
   3 -12  -4    2.52    0.26
   0  12   4    0.36    0.08
   1  12   4    0.14    0.09
   2  12   4    1.61    0.30
   3  12   4    1.83    0.29
  -4 -12  -4    0.16    0.19
  -5 -12  -4    1.16    0.20
  13 -13  -4    0.24    0.16
  12 -13  -4    0.04    0.08
  12 -13  -4    0.33    0.18
  11 -13  -4    1.03    0.14
  11 -13  -4    0.91    0.22
  10 -13  -4    3.55    0.38
  10 -13  -4    2.92    0.26
   9 -13  -4    0.11    0.09
   9 -13  -4    0.06    0.20
   8 -13  -4    0.08    0.09
   7 -13  -4    4.91    1.21
   6 -13  -4    2.07    0.22
   5 -13  -4    0.89    0.15
   4 -13  -4   16.58    1.20
   3 -13  -4    4.96    0.40
   2 -13  -4    0.55    0.15
   1  13   4    2.69    0.31
   2  13   4    0.89    0.22
  -3 -13  -4   -0.15    0.18
  -4 -13  -4    0.31    0.17
  13 -14  -4    0.03    0.14
  12 -14  -4    0.10    0.17
  11 -14  -4    0.16    0.08
  11 -14  -4    0.28    0.19
  10 -14  -4    0.78    0.20
  10 -14  -4    0.50    0.09
   9 -14  -4    1.18    0.24
   9 -14  -4    1.53    0.17
   8 -14  -4    0.18    0.21
   8 -14  -4    0.09    0.09
   7 -14  -4    2.18    0.33
   7 -14  -4    1.85    0.21
   6 -14  -4    0.13    0.11
   5 -14  -4    2.20    0.24
   4 -14  -4    0.21    0.14
   3 -14  -4    0.05    0.14
   3 -14  -4    0.07    0.17
   2 -14  -4    0.31    0.18
   2 -14  -4    0.81    0.14
   1 -14  -4    0.11    0.13
   1 -14  -4    0.10    0.18
   0 -14  -4    3.33    0.38
  -1 -14  -4   10.79    0.84
  -2 -14  -4    0.72    0.20
  12 -15  -4    0.05    0.15
  11 -15  -4    0.12    0.16
  11 -15  -4    0.14    0.07
  10 -15  -4    0.39    0.18
  10 -15  -4    0.36    0.08
   9 -15  -4    0.00    0.09
   9 -15  -4   -0.05    0.18
   8 -15  -4    0.07    0.18
   8 -15  -4   -0.01    0.09
   7 -15  -4    0.09    0.09
   6 -15  -4    0.53    0.12
   5 -15  -4    0.26    0.12
   4 -15  -4    0.70    0.15
   3 -15  -4    0.26    0.13
   3 -15  -4    0.01    0.16
   2 -15  -4    0.05    0.16
   2 -15  -4    0.23    0.13
   1 -15  -4    1.55    0.27
   1 -15  -4    1.46    0.20
   0 -15  -4    1.85    0.28
   0 -15  -4    1.39    0.19
  10 -16  -4    0.20    0.07
  10 -16  -4    0.22    0.15
   9 -16  -4    0.02    0.15
   9 -16  -4    0.12    0.07
   8 -16  -4   -0.01    0.09
   7 -16  -4    1.98    0.19
   6 -16  -4    3.59    0.30
   5 -16  -4    0.62    0.12
   4 -16  -4    4.66    0.37
   3 -16  -4    0.57    0.12
   2 -16  -4    0.20    0.14
   2 -16  -4    0.23    0.11
   3 -19   5    0.75    0.12
   4 -19   5   -0.02    0.10
   5 -19   5    2.73    0.23
   6 -19   5    0.20    0.09
   4 -18   5    1.28    0.18
   5 -18   5    5.24    0.40
   6 -18   5    0.04    0.08
   7 -18   5    0.18    0.09
   8 -18   5    0.09    0.08
   9 -18   5   -0.08    0.07
   3  17  -5   -0.02    0.06
   2  17  -5   -0.06    0.06
  -3  17  -5    1.96    0.32
  -4  17  -5    2.19    0.31
  -5  17  -5    0.21    0.16
   5 -17   5    0.50    0.11
  -6  17  -5    0.47    0.18
   6 -17   5    0.47    0.10
   7 -17   5    0.08    0.09
   8 -17   5    0.14    0.08
  -9  17  -5   -0.12    0.30
   9 -17   5   -0.03    0.08
 -10  17  -5   -0.16    0.29
  10 -17   5   -0.16    0.07
   5  16  -5   -0.09    0.07
   4  16  -5   -0.07    0.07
   3  16  -5   -0.14    0.08
   2  16  -5   -0.03    0.08
   1  16  -5   -0.07    0.07
   0  16  -5    0.30    0.13
  -1  16  -5    1.27    0.24
  -2  16  -5    0.37    0.14
  -3  16  -5    0.08    0.15
  -4  16  -5    0.47    0.16
  -5  16  -5    5.65    0.52
  -6  16  -5    0.26    0.17
   6 -16   5    0.51    0.09
  -7  16  -5   -0.01    0.17
   7 -16   5    0.07    0.10
  -8  16  -5    1.16    0.34
   8 -16   5    1.35    0.17
  -9  16  -5    1.62    0.36
   9 -16   5    1.49    0.17
 -10  16  -5   -0.01    0.31
  10 -16   5    0.48    0.09
 -11  16  -5    0.13    0.29
  11 -16   5   -0.14    0.08
   5  15  -5    0.00    0.09
   4  15  -5    0.50    0.19
   4  15  -5    0.02    0.09
   3  15  -5    1.10    0.20
   2  15  -5   -0.10    0.08
   2  15  -5    0.05    0.12
   1  15  -5    0.03    0.12
   1  15  -5   -0.09    0.08
   0  15  -5   -0.22    0.76
   0  15  -5    0.08    0.12
   0  15  -5    0.00    0.06
  -1  15  -5    0.11    0.13
  -2  15  -5    0.26    0.14
  -2  15  -5    0.09    0.85
  -3  15  -5    0.37    0.81
  -3  15  -5    0.16    0.14
  -4  15  -5    0.58    0.82
  -4  15  -5    0.07    0.16
  -5  15  -5    0.58    0.92
  -5  15  -5    0.76    0.19
  -6  15  -5    0.10    0.96
  -6  15  -5   -0.10    0.17
   6 -15   5   -0.11    0.09
  -7  15  -5    0.34    0.19
  -7  15  -5    0.09    0.32
   7 -15   5    0.29    0.11
  -8  15  -5    1.01    0.35
   8 -15   5    1.42    0.17
  -9  15  -5    0.32    0.34
   9 -15   5    0.61    0.11
 -10  15  -5    1.52    0.35
  10 -15   5    1.57    0.18
 -11  15  -5    0.47    0.31
  11 -15   5    0.57    0.10
 -12  15  -5    0.20    0.29
   6  14  -5    0.05    0.08
   6  14  -5    0.32    0.12
   5  14  -5   -0.09    0.08
   5  14  -5    0.05    0.12
   4  14  -5   -0.16    0.08
   4  14  -5   -0.12    0.12
   3  14  -5   -0.10    0.12
   2  14  -5   -0.05    0.09
   2  14  -5   -0.02    0.68
   2  14  -5    0.24    0.13
   1  14  -5    0.63    0.10
   1  14  -5    0.94    0.77
   0  14  -5   -0.04    0.12
   0  14  -5   -0.07    0.07
   0  14  -5    0.05    0.72
  -1  14  -5    0.49    0.13
  -1  14  -5   -0.24    0.66
  -1  14  -5    0.05    0.06
  -2  14  -5    0.22    0.13
  -2  14  -5   -0.01    0.78
  -3  14  -5   -0.24    0.77
  -3  14  -5    0.16    0.14
  -4  14  -5    5.77    0.51
  -4  14  -5    5.34    1.39
  -5  14  -5    0.02    0.16
  -5  14  -5    0.23    0.93
  -6  14  -5    0.46    0.31
  -6  14  -5    0.14    0.19
  -6  14  -5   -0.02    0.97
  -7  14  -5   -0.04    0.20
  -7  14  -5    0.43    1.01
  -7  14  -5   -0.44    0.31
   7 -14   5    0.08    0.11
  -8  14  -5    0.81    1.30
  -8  14  -5    0.34    0.33
   8 -14   5    0.41    0.11
  -9  14  -5    0.77    0.34
   9 -14   5    0.48    0.11
 -10  14  -5    4.97    0.62
  10 -14   5    5.22    0.40
 -11  14  -5    0.05    0.32
  11 -14   5   -0.15    0.09
 -12  14  -5    0.07    0.30
   8  13  -5   -0.02    0.07
   7  13  -5   -0.08    0.08
   6  13  -5   -0.15    0.08
   5  13  -5    0.08    0.08
   4  13  -5    0.08    0.72
   4  13  -5    0.05    0.08
   3  13  -5   -0.09    0.70
   3  13  -5   -0.02    0.08
   2  13  -5   -0.09    0.68
   2  13  -5    0.21    0.08
   2  13  -5    0.83    0.21
   1  13  -5    0.51    0.69
   1  13  -5    0.44    0.09
   0  13  -5    0.72    0.13
   0  13  -5    0.61    0.71
  -2  13  -5   -0.12    0.12
  -2  13  -5   -0.03    0.78
  -3  13  -5    0.62    0.15
  -3  13  -5    0.74    0.83
  -4  13  -5    0.14    0.82
  -4  13  -5    0.30    0.15
  -5  13  -5    0.34    0.92
  -5  13  -5    0.04    0.37
  -5  13  -5   -0.08    0.16
  -6  13  -5    0.52    1.02
  -6  13  -5    0.13    0.19
  -6  13  -5   -0.18    0.29
  -7  13  -5    0.36    1.04
  -7  13  -5   -0.17    0.20
  -7  13  -5   -0.36    0.31
   7 -13   5    0.05    0.11
  -8  13  -5   -0.38    1.10
  -8  13  -5    0.07    0.32
   8 -13   5    0.26    0.11
  -9  13  -5   -0.01    1.90
  -9  13  -5   -0.08    0.32
   9 -13   5   -0.15    0.10
 -10  13  -5    0.38    0.33
  10 -13   5    0.08    0.10
 -11  13  -5   -0.16    0.32
  11 -13   5    0.26    0.11
 -12  13  -5   -0.04    0.32
 -13  13  -5    0.53    0.30
   9  12  -5    0.13    0.07
   8  12  -5    0.01    0.08
   7  12  -5   -0.18    0.09
   6  12  -5   -0.19    0.09
   5  12  -5   -0.29    0.63
   5  12  -5   -0.16    0.08
   4  12  -5    0.16    0.71
   3  12  -5   -0.02    0.07
   3  12  -5    0.05    0.66
   2  12  -5    0.67    0.68
   2  12  -5    0.79    0.23
   1  12  -5    5.36    0.50
   1  12  -5    7.37    0.49
   1  12  -5    5.28    1.08
   0  12  -5    1.31    0.67
   0  12  -5    1.81    0.22
   0  12  -5    1.58    0.27
  -1  12  -5    0.15    0.07
  -1  12  -5    0.25    0.11
  -1  12  -5    0.63    0.70
  -2  12  -5    4.22    0.37
  -3  12  -5    5.00    0.44
  -3  12  -5    6.48    1.33
  -4  12  -5    0.10    0.14
  -4  12  -5   -0.29    0.74
  -5  12  -5    0.43    0.17
  -5  12  -5    0.39    0.26
  -5  12  -5    0.83    0.96
  -6  12  -5    2.51    1.16
  -6  12  -5    1.23    0.33
  -6  12  -5    1.87    0.43
  -7  12  -5    0.04    0.21
  -7  12  -5    0.18    1.03
  -7  12  -5    0.12    0.29
   7 -12   5    0.31    0.15
  -8  12  -5   -0.36    0.31
  -8  12  -5   -0.16    1.15
   8 -12   5    0.02    0.10
  -9  12  -5    1.10    0.34
  -9  12  -5   -0.58    1.39
   9 -12   5    1.57    0.19
 -10  12  -5    1.02    0.35
  10 -12   5    1.35    0.18
 -11  12  -5   -0.48    0.33
  11 -12   5    0.10    0.11
 -12  12  -5    1.54    0.36
 -13  12  -5    1.61    0.36
  10  11  -5   -0.02    0.07
   9  11  -5    0.21    0.09
   8  11  -5    4.68    0.45
   7  11  -5    0.45    0.10
   6  11  -5    0.05    0.09
   6  11  -5   -0.23    0.66
   5  11  -5   -0.41    0.64
   5  11  -5    0.00    0.09
   4  11  -5    0.00    0.07
   4  11  -5   -0.10    0.60
   3  11  -5    6.94    0.51
   3  11  -5    4.45    0.98
   2  11  -5    7.09    1.07
   2  11  -5    7.68    0.58
   1  11  -5   10.26    1.24
   0  11  -5    1.90    0.71
  -1  11  -5    1.45    0.70
  -3  11  -5   -0.02    0.74
  -4  11  -5    0.54    0.80
  -5  11  -5    3.94    1.35
  -5  11  -5    1.95    0.32
  -6  11  -5    0.10    0.18
  -6  11  -5    0.46    0.95
  -6  11  -5    0.02    0.26
  -7  11  -5    0.47    1.06
  -7  11  -5   -0.22    0.29
  -7  11  -5    0.06    0.21
   7 -11   5   -0.01    0.34
  -8  11  -5    2.93    1.42
  -8  11  -5    2.86    0.49
   8 -11   5    3.17    0.27
  -9  11  -5   -0.24    0.31
   9 -11   5    0.01    0.10
 -10  11  -5    0.03    0.33
  10 -11   5    0.19    0.11
 -11  11  -5    1.86    0.39
 -12  11  -5    5.41    0.66
 -13  11  -5    6.03    0.67
  11  10  -5    0.04    0.07
  10  10  -5    1.47    0.29
   9  10  -5    0.28    0.09
   9  10  -5   -0.12    0.12
   8  10  -5    1.62    0.36
   7  10  -5    0.13    0.66
   7  10  -5    0.17    0.12
   7  10  -5    0.20    0.09
   6  10  -5    2.82    0.37
   6  10  -5    2.95    0.34
   5  10  -5    0.09    0.10
   5  10  -5    0.09    0.08
   5  10  -5   -0.31    0.57
   4  10  -5   14.78    1.61
   4  10  -5   17.94    1.23
   4  10  -5   16.37    1.21
   3  10  -5    1.57    0.27
   3  10  -5    1.74    0.65
   3  10  -5    1.08    0.27
   2  10  -5    0.73    0.57
   1  10  -5    1.93    0.73
   0  10  -5    0.59    0.56
  -1  10  -5    6.66    1.09
  -2  10  -5   -0.82    0.88
  -2  10  -5   -0.19    0.66
  -3  10  -5    7.02    1.51
  -3  10  -5    6.28    1.29
  -4  10  -5    5.36    1.37
  -4  10  -5    4.52    1.18
  -5  10  -5    7.09    1.50
  -6  10  -5   11.06    0.94
  -6  10  -5   13.92    1.87
  -6  10  -5   12.71    0.95
  -7  10  -5    0.27    1.01
  -7  10  -5    0.11    0.20
  -7  10  -5   -0.19    0.26
   7 -10   5   -0.24    0.32
  -8  10  -5    3.71    1.59
  -8  10  -5    4.47    0.53
   8 -10   5    4.67    0.36
  -9  10  -5    2.23    0.48
   9 -10   5    2.52    0.23
 -10  10  -5    1.09    0.34
  10 -10   5    0.85    0.13
 -11  10  -5    1.66    0.39
 -12  10  -5    1.32    0.39
 -13  10  -5    4.63    0.68
  11   9  -5    0.99    0.28
  10   9  -5    0.23    0.09
   9   9  -5    4.19    0.40
   9   9  -5    2.98    0.43
   8   9  -5    2.24    0.37
   8   9  -5    2.43    0.33
   7   9  -5    4.26    0.45
   7   9  -5    4.44    0.40
   6   9  -5    2.88    0.31
   6   9  -5    1.16    0.74
   6   9  -5    3.05    0.35
   5   9  -5    0.18    0.07
   5   9  -5    0.87    0.26
   5   9  -5    0.32    0.62
   4   9  -5   17.93    1.26
   4   9  -5   15.86    1.57
   3   9  -5   11.26    0.84
   3   9  -5   10.90    1.18
   2   9  -5    8.72    0.65
   2   9  -5    7.59    0.98
   1   9  -5    3.09    0.75
   0   9  -5    0.75    0.56
  -1   9  -5    3.62    0.94
  -1   9  -5    3.25    1.08
  -2   9  -5    6.74    1.48
  -2   9  -5    5.38    1.20
  -3   9  -5    6.49    1.42
  -3   9  -5    5.05    1.19
  -4   9  -5    0.94    0.80
  -4   9  -5    1.12    0.84
  -5   9  -5   22.49    2.33
  -6   9  -5   -0.51    0.82
   6  -9   5   -0.30    0.30
  -7   9  -5    1.11    1.04
  -7   9  -5    1.45    0.35
  -7   9  -5    1.11    0.27
   7  -9   5    1.28    0.41
  -8   9  -5    0.71    0.28
   8  -9   5    1.00    0.15
  -9   9  -5    1.81    0.45
  -9   9  -5    1.91    1.68
   9  -9   5    1.99    0.21
 -10   9  -5    0.16    0.33
 -11   9  -5    5.68    0.69
 -12   9  -5    0.77    0.40
 -13   9  -5    1.07    0.43
  12   8  -5    0.15    0.08
  11   8  -5    1.58    0.30
  10   8  -5    1.15    0.27
   9   8  -5    0.21    0.12
   9   8  -5   -1.04    0.70
   8   8  -5   -0.19    0.75
   8   8  -5    0.21    0.08
   8   8  -5    0.31    0.12
   7   8  -5    0.07    0.10
   7   8  -5    0.13    0.07
   7   8  -5    0.01    0.72
   6   8  -5    0.06    0.65
   6   8  -5    0.06    0.06
   5   8  -5    3.30    0.33
   5   8  -5    1.86    0.70
   4   8  -5    5.73    0.46
   4   8  -5    4.70    0.82
   3   8  -5    4.65    0.73
   3   8  -5    4.54    0.40
   2   8  -5   15.65    1.44
   2   8  -5   16.50    1.18
   1   8  -5    3.84    0.74
   1   8  -5    3.07    0.32
   0   8  -5    0.29    0.52
   0   8  -5    0.75    0.90
  -1   8  -5    0.85    0.60
  -1   8  -5   -0.01    0.83
  -2   8  -5   -0.54    0.81
  -2   8  -5    0.16    0.67
  -3   8  -5    7.68    1.20
  -4   8  -5    4.63    1.20
  -5   8  -5    6.15    1.33
  -6   8  -5   23.55    2.55
   6  -8   5   26.68    1.95
  -7   8  -5   44.00    3.11
  -7   8  -5   43.61    3.09
   7  -8   5   41.79    3.22
  -8   8  -5   15.59    1.16
  -8   8  -5   16.18    1.10
   8  -8   5   13.81    1.09
  -9   8  -5    0.33    0.30
  -9   8  -5    0.45    1.51
  -9   8  -5    0.05    0.13
   9  -8   5    0.03    0.10
 -10   8  -5    7.68    0.79
 -10   8  -5    8.37    0.62
 -11   8  -5    0.37    0.16
 -11   8  -5    0.50    0.39
 -12   8  -5    3.33    0.70
 -13   8  -5    5.10    0.78
  13   7  -5    0.20    0.08
  12   7  -5    0.14    0.08
  11   7  -5    1.03    0.28
  10   7  -5    4.54    0.38
  10   7  -5    3.44    0.45
   9   7  -5   -1.01    0.66
   9   7  -5    0.11    0.11
   8   7  -5    1.30    0.22
   8   7  -5    0.39    0.70
   8   7  -5    1.33    0.29
   7   7  -5    3.56    0.32
   7   7  -5    2.90    0.79
   7   7  -5    3.73    0.37
   6   7  -5    4.18    0.38
   6   7  -5    3.68    0.81
   5   7  -5    6.43    0.88
   5   7  -5    6.75    0.53
   4   7  -5   23.66    2.06
   4   7  -5   27.45    1.85
   3   7  -5   14.04    1.01
   3   7  -5   13.33    1.24
   2   7  -5    1.55    0.23
   2   7  -5    1.03    0.48
   1   7  -5    2.46    0.25
   1   7  -5    2.63    0.66
  -1  -7   5    1.63    0.42
   0   7  -5   -0.12    0.72
   0   7  -5    0.20    0.48
   0  -7   5   -0.35    0.28
  -1   7  -5    2.10    0.82
  -1   7  -5    1.12    0.61
   1  -7   5    1.21    0.39
  -2   7  -5   25.08    2.21
  -3   7  -5    5.00    1.15
  -4   7  -5   -0.06    0.74
  -5   7  -5   14.73    1.81
  -6   7  -5    0.45    0.10
  -6   7  -5    0.82    1.09
   6  -7   5    0.55    0.30
  -7   7  -5    7.07    0.53
  -8   7  -5    3.69    0.33
  -8   7  -5    4.12    0.48
  -8   7  -5    5.57    1.94
  -9   7  -5    9.44    2.32
  -9   7  -5   10.75    0.82
  -9   7  -5   11.64    0.92
 -10   7  -5    0.09    0.16
 -10   7  -5    0.52    0.36
 -11   7  -5    2.89    0.63
 -11   7  -5    2.00    0.26
 -12   7  -5    0.21    0.15
 -12   7  -5    0.96    0.44
 -13   7  -5    4.40    0.36
  12   6  -5    1.13    0.25
  11   6  -5    7.37    0.54
  11   6  -5    6.00    0.59
  10   6  -5    5.08    0.41
  10   6  -5    4.32    0.48
   9   6  -5   -0.38    0.71
   9   6  -5    0.31    0.11
   8   6  -5   13.23    0.92
   8   6  -5   13.30    0.96
   8   6  -5    9.63    1.31
   7   6  -5   15.65    1.18
   7   6  -5   16.96    1.16
   7   6  -5   14.87    1.48
   6   6  -5   18.97    1.55
   6   6  -5   16.91    1.29
  -6  -6   5   17.43    1.90
   5   6  -5    0.49    0.51
   4   6  -5   22.49    1.67
   4   6  -5   19.24    1.49
   3   6  -5   32.90    2.37
   3   6  -5   30.80    2.22
  -3  -6   5   28.40    2.76
   2   6  -5   27.65    2.10
  -2  -6   5   26.70    2.20
   1   6  -5    2.77    0.83
   1   6  -5    3.02    0.59
  -1  -6   5    2.30    0.52
   0   6  -5    9.18    1.27
   0   6  -5    8.70    0.96
   0  -6   5    8.37    0.85
  -1   6  -5    0.27    0.46
   1  -6   5    0.00    0.27
  -2   6  -5   55.85    4.24
   2  -6   5   54.29    4.17
  -3   6  -5    2.32    0.82
  -4   6  -5   10.58    1.49
  -5   6  -5   18.52    2.04
  -5   6  -5   14.39    1.16
   5  -6   5   18.35    1.28
  -6   6  -5    3.56    0.31
   6  -6   5    5.52    0.53
  -7   6  -5    0.24    0.12
  -7   6  -5    0.97    1.32
  -8   6  -5   13.30    1.08
  -8   6  -5   15.04    2.49
  -8   6  -5   16.73    1.15
  -9   6  -5    0.15    0.15
  -9   6  -5    0.47    1.57
  -9   6  -5    0.77    0.33
 -10   6  -5    0.57    0.38
 -10   6  -5    0.52    0.16
 -11   6  -5    0.39    0.17
 -11   6  -5    0.82    0.47
 -12   6  -5    1.66    0.23
 -13   6  -5    5.09    0.41
  14   5  -5    0.18    0.07
  13   5  -5    0.16    0.07
  12   5  -5    1.48    0.23
  11   5  -5    1.12    0.21
  10   5  -5   35.37    2.53
  10   5  -5   34.61    2.50
   9   5  -5    0.07    0.10
   9   5  -5    0.15    0.06
   9   5  -5    0.04    0.70
   8   5  -5    6.80    1.01
   8   5  -5    7.66    0.57
   7   5  -5    1.16    0.63
  -7  -5   5    1.16    0.54
   6   5  -5    4.46    0.77
  -6  -5   5    3.98    0.99
   5   5  -5    2.77    0.65
   4   5  -5    6.82    0.72
  -4  -5   5    4.13    1.49
  -3  -5   5    1.25    0.57
   2   5  -5   13.28    1.54
   1   5  -5   25.13    2.12
  -1  -5   5   22.04    1.76
   0   5  -5   18.08    1.65
   0   5  -5   20.43    1.83
   0  -5   5   21.57    1.58
  -1   5  -5    5.00    0.84
   1  -5   5    5.15    0.69
  -2   5  -5   19.72    1.79
   2  -5   5   19.27    1.69
  -3   5  -5   35.62    2.96
  -4   5  -5   13.60    1.76
  -5   5  -5   10.31    0.75
  -6   5  -5    0.80    0.13
  -6   5  -5    1.97    1.36
  -7   5  -5   21.77    1.56
  -8   5  -5    1.26    0.18
  -8   5  -5    1.94    1.64
  -9   5  -5    2.33    2.14
  -9   5  -5    1.45    0.21
  -9   5  -5    1.98    0.39
 -10   5  -5   -0.24    0.17
 -11   5  -5    1.32    0.19
 -12   5  -5    0.17    0.15
 -13   5  -5    7.08    0.54
  14   4  -5    0.09    0.06
  13   4  -5    1.49    0.22
  12   4  -5    0.77    0.20
  12   4  -5    0.17    0.11
  11   4  -5   -0.47    0.70
  11   4  -5    0.01    0.11
  11   4  -5    0.10    0.06
  10   4  -5    3.17    0.91
  10   4  -5    4.14    0.35
   9   4  -5    3.74    0.32
   9   4  -5    2.95    0.84
   8   4  -5    5.08    0.38
   8   4  -5    4.96    0.86
   7   4  -5    6.23    0.87
  -7  -4   5    5.92    1.08
   6   4  -5   -0.39    0.49
  -6  -4   5   -0.08    0.39
   5   4  -5   14.73    1.23
  -5  -4   5   16.22    1.66
  -5  -4   5   12.84    1.42
  -4  -4   5   10.49    1.26
   2   4  -5    5.27    1.09
   1   4  -5   17.03    1.66
  -1   4  -5    1.66    0.55
   1  -4   5    1.71    0.56
  -2   4  -5  124.30    8.58
   2  -4   5  110.10    8.54
   3  -4   5    1.21    0.45
  -4   4  -5    2.00    1.15
   4  -4   5    2.73    0.38
  -5   4  -5    0.10    0.11
  -5   4  -5    0.32    1.17
  -6   4  -5    1.16    0.15
  -6   4  -5    2.79    1.43
  -7   4  -5   16.48    2.51
  -8   4  -5    1.64    0.21
  -8   4  -5    2.85    1.70
  -8   4  -5    2.36    0.55
  -9   4  -5    4.47    0.40
 -10   4  -5    1.00    0.20
 -10   4  -5    1.12    0.17
 -11   4  -5    2.16    0.28
 -12   4  -5    2.00    0.26
 -13   4  -5    0.37    0.14
  14   3  -5    2.21    0.24
  13   3  -5    0.88    0.31
  13   3  -5    1.05    0.20
  12   3  -5    2.72    1.00
  12   3  -5    2.49    0.27
  12   3  -5    2.43    0.37
  11   3  -5    2.60    0.87
  11   3  -5    3.91    0.34
  10   3  -5   -0.06    0.08
  10   3  -5    0.05    0.06
  10   3  -5    0.12    0.60
   9   3  -5    0.64    0.13
   9   3  -5    0.73    0.17
   9   3  -5    0.89    0.59
   8   3  -5    9.97    1.06
   8   3  -5    8.79    0.67
  -8  -3   5    9.80    1.31
   7   3  -5    1.75    0.67
  -7  -3   5    3.12    0.85
   6   3  -5   13.41    1.26
  -6  -3   5   15.31    1.45
  -5  -3   5    5.28    0.83
   2   3  -5   17.21    1.68
  -1   3  -5   38.07    2.86
   1  -3   5   33.92    2.76
  -2   3  -5    5.72    1.07
   2  -3   5    5.13    0.84
  -3   3  -5   20.66    1.96
   3  -3   5   18.35    1.71
   3  -3   5   16.81    1.34
  -4   3  -5    0.68    1.08
   4  -3   5    1.13    0.36
  -5   3  -5    3.56    1.42
  -6   3  -5   45.57    4.22
  -7   3  -5    1.71    1.48
  -8   3  -5    3.69    1.80
  -9   3  -5    0.85    0.19
 -10   3  -5    3.19    0.34
 -11   3  -5    2.24    0.26
 -11   3  -5    2.85    0.30
 -12   3  -5    0.39    0.16
 -12   3  -5    0.38    0.14
 -13   3  -5    0.78    0.15
  15   2  -5    0.09    0.05
  14   2  -5    0.05    0.12
  14   2  -5    0.10    0.06
  13   2  -5    5.68    0.47
  13   2  -5    5.97    0.52
  12   2  -5    3.15    0.83
  11   2  -5    0.13    0.09
  11   2  -5    0.31    0.61
  11   2  -5    0.09    0.06
  10   2  -5    2.14    0.24
  10   2  -5    2.46    0.79
  10   2  -5    2.39    0.21
   9   2  -5    0.31    0.53
   9   2  -5    0.01    0.05
   9   2  -5    0.08    0.07
   8   2  -5    2.26    0.63
  -8  -2   5    3.01    0.91
   7   2  -5    0.72    0.47
  -7  -2   5    0.41    0.40
   6   2  -5   26.24    2.01
  -6  -2   5   24.79    2.14
  -5  -2   5    7.13    0.84
   3   2  -5   10.68    1.26
   2   2  -5   15.24    1.53
  -1   2  -5   19.74    1.77
   1  -2   5   20.16    1.66
  -2   2  -5   47.45    3.66
   2  -2   5   45.05    3.55
  -3   2  -5   39.94    3.35
  -4   2  -5   22.70    2.46
  -5   2  -5    0.54    1.25
  -6   2  -5    5.00    1.71
  -7   2  -5    4.02    1.75
  -8   2  -5   17.57    3.00
 -10   2  -5    0.74    0.19
 -11   2  -5    0.11    0.13
 -11   2  -5    0.09    0.18
 -12   2  -5    0.29    0.16
 -12   2  -5    0.25    0.11
 -13   2  -5    0.18    0.13
  15   1  -5    2.17    0.23
  13   1  -5    1.87    0.24
  12   1  -5    5.10    0.42
  12   1  -5    5.98    0.97
  12   1  -5    4.72    0.40
  11   1  -5    0.49    0.61
  10   1  -5    0.02    0.05
  10   1  -5    0.04    0.08
  10   1  -5    0.00    0.48
   9   1  -5    6.31    0.47
   9   1  -5    6.36    0.89
   8   1  -5    2.01    0.58
  -8  -1   5    0.99    0.46
   7   1  -5   24.69    1.95
  -7  -1   5   22.09    2.04
   6   1  -5    0.20    0.45
  -6  -1   5    0.22    0.36
  -5  -1   5   23.16    1.86
   3   1  -5    3.56    0.86
   2   1  -5   10.82    1.23
   0   1  -5    5.14    0.92
   0  -1   5    6.45    0.73
  -1   1  -5   40.10    3.03
   1  -1   5   34.77    2.85
  -2   1  -5   51.22    3.83
   2  -1   5   44.62    3.65
  -3   1  -5   23.66    2.36
  -4   1  -5   14.05    2.00
  -5   1  -5    4.88    1.62
  -6   1  -5    2.96    1.63
  -7   1  -5    0.40    1.57
 -10   1  -5    0.13    0.18
 -11   1  -5    4.13    0.34
 -11   1  -5    3.57    0.37
 -12   1  -5    0.80    0.17
 -12   1  -5    0.75    0.12
  15   0  -5    0.18    0.06
  14   0  -5    0.05    0.06
  13   0  -5    1.59    0.20
  13   0  -5    1.87    0.23
  12   0  -5    0.51    0.51
  12   0  -5    0.04    0.06
  12   0  -5    0.13    0.10
  11   0  -5    6.26    0.50
  11   0  -5    6.54    1.00
  11   0  -5    6.29    0.48
  10   0  -5    1.23    0.19
  10   0  -5    1.73    0.62
  10   0  -5    1.36    0.16
   9   0  -5    0.92    0.59
   9   0  -5    1.16    0.15
  -9   0   5    0.88    0.49
   8   0  -5   10.20    1.12
  -8   0   5    9.44    1.20
   7   0  -5   17.30    1.51
  -7   0   5   16.84    1.61
   6   0  -5    8.86    0.95
  -6   0   5    8.72    1.01
  -5   0   5   21.29    1.74
   3   0  -5   44.92    3.38
   0   0  -5   49.23    4.07
   0   0   5   57.09    3.95
  -1   0  -5    9.48    1.29
  -2   0  -5    0.98    0.93
  -3   0  -5   17.82    2.12
  -4   0  -5    5.99    1.72
  -5   0  -5    2.36    1.38
  -6   0  -5   10.61    2.18
  -7   0  -5    1.93    1.63
  -9   0  -5   13.28    0.98
 -10   0  -5    3.14    0.34
 -11   0  -5    1.50    0.26
 -11   0  -5    1.76    0.23
 -12   0  -5   -0.08    0.15
 -12   0  -5    0.13    0.11
  15  -1  -5    1.22    0.20
  14  -1  -5    0.18    0.06
  14  -1  -5    0.15    0.10
  13  -1  -5    3.94    1.06
  12  -1  -5   -0.05    0.09
  12  -1  -5    0.80    0.58
  11  -1  -5   10.61    0.85
  11  -1  -5   11.85    0.84
  11  -1  -5   12.98    1.37
  10  -1  -5    3.92    0.32
  10  -1  -5    3.86    0.90
   9  -1  -5    2.53    0.75
   9  -1  -5    2.96    0.25
  -9   1   5    2.70    0.89
   8  -1  -5   35.29    2.72
  -8   1   5   31.75    2.77
   7  -1  -5    0.31    0.48
  -7   1   5    0.44    0.38
   6  -1  -5    0.02    0.36
  -6   1   5    0.02    0.33
   5  -1  -5    8.41    0.90
  -5   1   5    9.45    0.95
   4  -1  -5    0.77    0.34
  -4   1   5    0.85    0.27
   3  -1  -5   41.49    3.62
  -3   1   5   57.28    3.61
   2  -1  -5  153.62   10.44
  -2   1   5  137.90   10.44
   1  -1  -5    4.70    0.76
  -1   1   5    2.90    0.82
   0  -1  -5    3.09    1.03
   0   1   5    3.21    0.71
  -1  -1  -5   -0.13    1.03
  -2  -1  -5   12.65    1.96
  -3  -1  -5    5.74    1.68
  -4  -1  -5    0.38    1.20
  -5  -1  -5   -0.39    1.24
  -6  -1  -5    1.85    1.81
  -9  -1  -5    3.68    0.36
 -10  -1  -5    1.17    0.20
 -11  -1  -5   -0.01    0.16
 -11  -1  -5    0.42    0.13
 -12  -1  -5   -0.34    0.14
 -12  -1  -5   -0.12    0.10
  16  -2  -5    0.09    0.05
  15  -2  -5    1.16    0.20
  14  -2  -5    0.16    0.06
  14  -2  -5    0.10    0.11
  13  -2  -5    2.67    0.82
  13  -2  -5    0.62    0.12
  12  -2  -5    8.31    1.14
  12  -2  -5    6.41    0.53
  12  -2  -5    6.66    0.51
  11  -2  -5    0.84    0.69
  11  -2  -5    0.63    0.12
  10  -2  -5    0.13    0.09
  10  -2  -5   -0.02    0.47
   9  -2  -5    7.02    0.53
   9  -2  -5    6.97    1.04
   8  -2  -5    2.77    0.77
  -8   2   5    1.54    0.49
   7  -2  -5   36.89    2.97
  -7   2   5   38.04    3.00
   6  -2  -5   17.03    1.54
  -6   2   5   16.94    1.57
   5  -2  -5   24.22    2.08
  -5   2   5   27.71    2.09
   4  -2  -5   71.17    5.37
  -4   2   5   75.34    5.33
   3  -2  -5   41.10    3.21
  -3   2   5   44.70    3.18
   2  -2  -5   31.61    2.18
  -2   2   5   23.73    2.24
   1  -2  -5    4.00    0.85
   0  -2  -5   26.83    2.30
   0   2   5   23.66    2.09
  -1  -2  -5   52.85    4.35
  -2  -2  -5   -0.14    1.43
  -3  -2  -5    0.03    1.49
  -4  -2  -5    2.51    1.69
  -5  -2  -5   15.78    2.71
  -6  -2  -5    1.40    1.92
  -8  -2  -5   -0.26    0.17
  -9  -2  -5    4.18    0.39
 -10  -2  -5    1.01    0.19
 -11  -2  -5   -0.11    0.15
 -11  -2  -5   -0.16    0.13
  16  -3  -5    0.92    0.17
  15  -3  -5    0.14    0.06
  14  -3  -5    7.75    0.60
  14  -3  -5    7.60    0.58
  13  -3  -5    2.88    0.31
  13  -3  -5    5.15    0.96
  13  -3  -5    3.08    0.27
  12  -3  -5    3.13    0.29
  12  -3  -5    4.30    1.08
  12  -3  -5    3.33    0.36
  11  -3  -5   22.34    1.54
  11  -3  -5   21.20    2.03
  11  -3  -5   20.10    1.52
  10  -3  -5    0.25    0.11
  10  -3  -5    0.42    0.58
   9  -3  -5    9.17    0.68
   9  -3  -5    9.20    1.21
   8  -3  -5    7.10    1.00
  -8   3   5    5.95    0.99
   7  -3  -5   22.29    2.02
  -7   3   5   23.49    2.02
   6  -3  -5    1.37    0.58
  -6   3   5    1.41    0.45
   5  -3  -5   14.76    1.44
  -5   3   5   16.93    1.42
   4  -3  -5    1.10    0.51
   4  -3  -5    0.62    0.23
  -4   3   5    0.51    0.30
   3  -3  -5   15.57    1.20
   3  -3  -5   15.46    1.38
  -3   3   5   16.03    1.42
   2  -3  -5   23.38    1.60
   2  -3  -5   22.68    1.81
  -2   3   5   18.19    1.96
   1  -3  -5    6.44    1.04
   1  -3  -5    4.42    0.42
  -1   3   5    3.43    1.04
   0  -3  -5    0.47    0.92
   0   3   5    0.58    0.49
  -1  -3  -5    4.63    1.50
  -2  -3  -5   24.07    2.83
  -3  -3  -5   13.41    2.42
  -4  -3  -5    0.62    1.71
  -5  -3  -5    0.04    1.89
  -7  -3  -5    0.36    0.17
  -8  -3  -5    0.11    0.17
  -9  -3  -5   12.11    0.90
 -10  -3  -5    0.17    0.14
 -10  -3  -5    0.15    0.16
 -11  -3  -5   -0.06    0.14
 -11  -3  -5    0.08    0.11
  16  -4  -5    0.08    0.05
  15  -4  -5    1.15    0.20
  14  -4  -5    3.02    0.29
  14  -4  -5    2.48    0.28
  13  -4  -5    1.47    0.79
  12  -4  -5    0.21    0.11
  12  -4  -5    0.19    0.14
  12  -4  -5    0.51    0.63
  11  -4  -5    2.93    1.01
  11  -4  -5    3.06    0.30
  11  -4  -5    2.37    0.26
  10  -4  -5    0.02    0.14
  10  -4  -5    0.18    0.10
  10  -4  -5    0.17    0.62
   9  -4  -5   19.45    1.91
   9  -4  -5   19.84    1.42
   8  -4  -5    7.44    1.09
  -8   4   5    6.44    1.04
   7  -4  -5    2.28    0.74
  -7   4   5    1.73    0.53
   6  -4  -5   27.01    2.38
  -6   4   5   28.82    2.31
   5  -4  -5    2.75    0.84
   5  -4  -5    2.81    0.46
  -5   4   5    2.78    0.72
   4  -4  -5    9.39    1.10
   4  -4  -5    8.75    0.79
  -4   4   5    9.01    1.09
   3  -4  -5    5.00    0.81
   3  -4  -5    4.01    0.46
  -3   4   5    3.78    1.03
   2  -4  -5   10.81    0.83
   2  -4  -5   11.49    1.19
  -2   4   5    7.86    1.44
   1  -4  -5   -0.07    0.17
   1  -4  -5    0.30    0.76
  -1   4   5    0.09    0.72
   0  -4  -5    1.32    1.03
   0   4   5    1.16    0.59
  -1  -4  -5    0.15    1.23
  -2  -4  -5   39.39    3.80
  -3  -4  -5    6.11    1.94
  -4  -4  -5   -0.93    1.42
  -4  -4  -5    0.06    0.11
  -5  -4  -5    1.25    0.20
  -5  -4  -5    0.24    1.71
  -6  -4  -5   -0.06    0.15
  -7  -4  -5    0.11    0.16
  -8  -4  -5    0.90    0.19
  -9  -4  -5    4.86    0.44
  -9  -4  -5    5.69    0.44
 -10  -4  -5    0.46    0.14
 -10  -4  -5    0.11    0.15
  16  -5  -5    0.54    0.16
  15  -5  -5    0.81    0.19
  14  -5  -5    0.16    0.07
  13  -5  -5    0.88    0.78
  13  -5  -5    0.70    0.17
  13  -5  -5    0.59    0.16
  12  -5  -5    0.92    0.18
  12  -5  -5    0.90    0.18
  12  -5  -5    0.69    0.77
  11  -5  -5    0.09    0.15
  11  -5  -5   -0.03    0.66
  11  -5  -5    0.05    0.12
  10  -5  -5    8.32    0.62
  10  -5  -5    8.26    1.28
  10  -5  -5    8.08    0.64
   9  -5  -5    3.91    0.33
   9  -5  -5    3.67    0.94
   8  -5  -5   -0.05    0.56
   7  -5  -5   10.22    1.28
  -7   5   5    8.62    1.17
   6  -5  -5   16.47    1.40
   6  -5  -5   17.72    1.74
  -6   5   5   18.97    1.68
   5  -5  -5   40.45    3.22
   5  -5  -5   43.90    3.50
  -5   5   5   47.46    3.45
   4  -5  -5   21.96    1.66
   4  -5  -5   22.48    1.95
  -4   5   5   20.75    2.03
   3  -5  -5    6.91    0.61
   3  -5  -5    6.27    1.02
   2  -5  -5    4.59    0.50
   2  -5  -5    6.74    1.02
  -2   5   5    4.01    1.43
   1  -5  -5    2.01    0.95
   0  -5  -5   -0.11    1.02
  -1  -5  -5    0.19    1.19
  -2  -5  -5    9.52    2.12
  -3  -5  -5    1.67    1.56
  -4  -5  -5    2.07    1.66
  -9  -5  -5    0.86    0.16
 -10  -5  -5    0.84    0.13
  16  -6  -5    0.97    0.17
  15  -6  -5    1.08    0.20
  14  -6  -5    0.43    0.14
  13  -6  -5    1.31    0.26
  13  -6  -5    1.81    0.93
  12  -6  -5    3.17    1.06
  12  -6  -5    3.34    0.32
  12  -6  -5    3.60    0.36
  11  -6  -5    1.31    0.85
  11  -6  -5    1.24    0.27
  11  -6  -5    1.57    0.23
  10  -6  -5   12.44    0.93
  10  -6  -5   13.15    0.91
  10  -6  -5   12.53    1.62
  10  -6  -5   11.43    0.88
   9  -6  -5    0.25    0.13
   9  -6  -5    0.03    0.66
   8  -6  -5    6.23    0.51
   8  -6  -5    8.04    1.29
   7  -6  -5   83.04    6.12
   7  -6  -5   75.31    5.74
   6  -6  -5   61.81    4.74
   6  -6  -5   68.69    5.11
   5  -6  -5  146.65   10.75
   5  -6  -5  153.82   11.03
   4  -6  -5   -0.14    0.56
   4  -6  -5    0.08    0.25
  -4   6   5   -0.79    1.19
   3  -6  -5   -0.15    0.59
   3  -6  -5   -0.15    0.22
   2  -6  -5    0.94    0.66
   1  -6  -5    7.38    1.38
   0  -6  -5   -0.27    1.00
  -1  -6  -5    0.46    1.20
  -2  -6  -5    2.37    1.47
  -3  -6  -5    1.68    1.53
  -6  -6  -5   -0.03    0.18
  -7  -6  -5    0.12    0.16
  -8  -6  -5    0.25    0.15
  -9  -6  -5    0.05    0.12
  16  -7  -5    1.14    0.18
  15  -7  -5    1.97    0.25
  14  -7  -5    3.97    0.37
  13  -7  -5    0.02    0.16
  12  -7  -5    5.93    0.47
  12  -7  -5    3.21    1.19
  11  -7  -5    2.26    0.26
  11  -7  -5    1.74    0.30
  11  -7  -5    1.49    0.85
  10  -7  -5    1.80    0.17
  10  -7  -5    1.67    0.29
  10  -7  -5    1.71    0.24
  10  -7  -5    1.10    0.76
   9  -7  -5    9.46    0.70
   9  -7  -5    8.94    1.44
   9  -7  -5    8.85    0.72
   9  -7  -5    9.19    0.66
   8  -7  -5    2.90    0.29
   8  -7  -5    3.00    1.03
   7  -7  -5    3.09    1.00
   7  -7  -5    2.85    0.52
   6  -7  -5   31.74    2.51
   6  -7  -5   35.30    2.94
   5  -7  -5    2.22    0.83
   5  -7  -5    2.10    0.38
   4  -7  -5    5.76    1.05
   4  -7  -5    6.31    0.61
   3  -7  -5   -0.07    0.61
   3  -7  -5   -0.10    0.15
   2  -7  -5    0.21    0.67
   1  -7  -5    0.64    0.86
   0  -7  -5    0.06    1.11
  -1  -7  -5    0.36    1.30
  -2  -7  -5    0.35    1.51
  -3  -7  -5    3.13    0.28
  -5  -7  -5    0.65    0.16
  -6  -7  -5    3.24    0.35
  -6  -7  -5    2.67    0.31
  -7  -7  -5    0.03    0.15
  -8  -7  -5   -0.20    0.12
  -9  -7  -5    0.63    0.12
 -16   8   5    0.75    0.31
  15  -8  -5    0.98    0.20
  14  -8  -5    4.74    0.41
  13  -8  -5    0.32    0.17
  12  -8  -5    0.21    0.17
  12  -8  -5    0.04    0.80
  11  -8  -5    0.82    0.11
  11  -8  -5    0.92    0.20
  11  -8  -5    0.98    0.83
  10  -8  -5    1.07    0.20
  10  -8  -5    1.14    0.14
  10  -8  -5    0.96    0.22
  10  -8  -5    1.22    0.88
   9  -8  -5    4.01    0.30
   9  -8  -5    3.87    0.35
   9  -8  -5    3.91    1.27
   9  -8  -5    3.85    0.39
   8  -8  -5    5.60    0.69
   8  -8  -5    6.57    1.27
   8  -8  -5    4.99    0.45
   8  -8  -5    5.61    0.40
   7  -8  -5    1.87    0.80
   7  -8  -5    2.32    0.44
   7  -8  -5    1.24    0.23
   6  -8  -5    0.12    0.30
   6  -8  -5    0.25    0.69
   6  -8  -5    0.32    0.20
   5  -8  -5    5.84    1.18
   5  -8  -5    6.92    0.68
   4  -8  -5    0.55    0.27
   4  -8  -5    0.67    0.67
   3  -8  -5    1.77    0.77
   2  -8  -5    0.08    0.68
   1  -8  -5    0.23    0.88
   0  -8  -5   15.75    2.19
  -1  -8  -5    4.18    1.62
  -4  -8  -5    0.67    0.15
  -5  -8  -5    0.46    0.15
  -6  -8  -5    2.34    0.32
  -6  -8  -5    1.71    0.24
  -7  -8  -5    0.01    0.12
  -7  -8  -5   -0.09    0.16
  -8  -8  -5    2.22    0.23
  15  -9  -5    1.76    0.22
  14  -9  -5    1.07    0.18
  13  -9  -5    0.33    0.17
  12  -9  -5   -0.01    0.17
  11  -9  -5    3.22    0.39
  11  -9  -5    3.33    1.15
  11  -9  -5    3.72    0.28
  10  -9  -5    5.55    0.48
  10  -9  -5    5.18    0.40
  10  -9  -5    4.30    1.36
   9  -9  -5    2.32    0.21
   9  -9  -5    2.40    0.33
   9  -9  -5    2.53    1.10
   8  -9  -5    1.73    0.90
   8  -9  -5    1.79    0.17
   8  -9  -5    2.00    0.47
   7  -9  -5    6.01    1.27
   7  -9  -5    6.69    0.48
   7  -9  -5    5.68    0.74
   6  -9  -5    5.55    0.67
   6  -9  -5    5.36    0.40
   6  -9  -5    4.13    1.21
   5  -9  -5    0.93    0.33
   5  -9  -5    0.34    0.10
   5  -9  -5    0.32    0.75
   4  -9  -5    1.44    0.16
   4  -9  -5    1.37    0.77
   3  -9  -5    0.75    0.78
   2  -9  -5    0.14    0.82
   1  -9  -5   -0.28    0.90
  -1   9   5    1.77    0.35
   0  -9  -5   14.32    2.17
  -5  -9  -5    1.84    0.32
  -6  -9  -5    0.20    0.17
  -7  -9  -5    2.05    0.29
  15 -10  -5    0.41    0.13
  14 -10  -5    0.62    0.16
  13 -10  -5   -0.06    0.16
  12 -10  -5    0.02    0.17
  11 -10  -5    0.52    0.80
  11 -10  -5    0.14    0.18
  11 -10  -5    0.14    0.08
  10 -10  -5    0.92    0.21
  10 -10  -5    1.00    0.14
  10 -10  -5    0.91    0.86
   9 -10  -5    0.15    0.09
   9 -10  -5   -0.08    0.76
   9 -10  -5    0.04    0.18
   8 -10  -5    3.91    0.30
   8 -10  -5    3.54    1.30
   7 -10  -5    2.68    0.60
   7 -10  -5    2.72    0.22
   7 -10  -5    1.41    0.86
   6 -10  -5    0.14    0.09
   6 -10  -5   -0.12    0.76
   6 -10  -5    0.08    0.32
   5 -10  -5   -0.16    0.10
   5 -10  -5    0.29    0.79
   4 -10  -5    4.14    1.23
   4 -10  -5    5.35    0.38
   4 -10  -5    4.38    0.42
   3 -10  -5    5.70    1.32
   2 -10  -5    8.47    1.64
  -1  10   5    5.03    0.45
   0  10   5    2.38    0.36
  -4 -10  -5    0.05    0.19
  -5 -10  -5    0.16    0.18
  -6 -10  -5    1.40    0.25
  14 -11  -5    1.49    0.24
  13 -11  -5    0.14    0.16
  12 -11  -5   -0.07    0.17
  11 -11  -5    1.78    0.18
  11 -11  -5    2.15    0.32
  10 -11  -5    2.70    0.34
  10 -11  -5    2.43    1.04
  10 -11  -5    2.38    0.22
   9 -11  -5    0.00    0.77
   9 -11  -5    0.97    0.21
   9 -11  -5    0.64    0.11
   8 -11  -5    1.17    0.93
   8 -11  -5    0.50    0.09
   7 -11  -5    0.20    0.77
   6 -11  -5    0.12    0.84
   6 -11  -5    0.28    0.10
   5 -11  -5    0.45    0.88
   5 -11  -5    0.82    0.13
   4 -11  -5   10.61    0.85
   4 -11  -5    9.49    1.72
   4 -11  -5   12.12    0.82
   3 -11  -5   -0.49    0.91
   3 -11  -5    0.61    0.13
   2 -11  -5   -0.11    1.00
   0  11   5    0.16    0.07
  -3 -11  -5    0.66    0.21
  -4 -11  -5    1.57    0.24
  -5 -11  -5    1.08    0.19
  14 -12  -5    0.19    0.14
  13 -12  -5    1.79    0.27
  12 -12  -5    0.12    0.17
  11 -12  -5    0.08    0.08
  11 -12  -5   -0.03    0.18
  10 -12  -5    0.16    0.08
  10 -12  -5    0.26    0.19
   9 -12  -5    0.20    0.19
   9 -12  -5    0.31    0.09
   8 -12  -5    1.55    0.18
   8 -12  -5    2.04    0.32
   8 -12  -5    1.30    0.96
   7 -12  -5    0.59    0.82
   7 -12  -5    0.46    0.10
   7 -12  -5    0.20    0.20
   6 -12  -5    2.00    0.21
   6 -12  -5    1.40    0.98
   5 -12  -5    1.92    1.13
   5 -12  -5    3.42    0.28
   4 -12  -5    0.13    1.06
   4 -12  -5    0.26    0.12
   4 -12  -5    0.25    0.25
   3 -12  -5    1.01    1.32
   3 -12  -5    3.63    0.28
   3 -12  -5    2.77    0.33
  -2 -12  -5    1.05    0.22
  -3 -12  -5   -0.04    0.19
  -4 -12  -5   -0.01    0.17
  13 -13  -5    3.36    0.34
  12 -13  -5    0.34    0.17
  11 -13  -5    0.15    0.17
  11 -13  -5    0.20    0.08
  10 -13  -5    2.66    0.34
  10 -13  -5    2.48    0.22
   9 -13  -5    2.39    0.32
   9 -13  -5    2.11    0.21
   8 -13  -5    0.03    0.18
   8 -13  -5    0.10    0.09
   7 -13  -5    0.05    0.10
   7 -13  -5    0.07    0.18
   6 -13  -5   -0.11    0.11
   5 -13  -5    1.10    0.15
   4 -13  -5    0.02    0.13
   3 -13  -5    7.65    0.64
   3 -13  -5    8.43    0.61
   2 -13  -5    4.70    0.37
   2 -13  -5    4.09    0.42
   1 -13  -5    0.01    0.17
   0 -13  -5    2.98    0.35
  -1 -13  -5    2.44    0.33
  -2 -13  -5    3.88    0.40
  -3 -13  -5    0.18    0.17
  12 -14  -5   -0.10    0.15
  11 -14  -5    0.40    0.08
  11 -14  -5    0.39    0.17
  10 -14  -5    0.12    0.08
  10 -14  -5    0.08    0.17
   9 -14  -5    0.22    0.09
   9 -14  -5    0.52    0.18
   8 -14  -5    0.19    0.10
   8 -14  -5    0.40    0.18
   7 -14  -5    1.23    0.16
   6 -14  -5    0.40    0.11
   5 -14  -5    0.12    0.12
   4 -14  -5    0.07    0.13
   3 -14  -5    7.46    0.56
   3 -14  -5    7.08    0.58
   2 -14  -5    0.04    0.16
   2 -14  -5    0.21    0.13
   1 -14  -5    2.01    0.22
   1 -14  -5    1.78    0.29
   0 -14  -5    2.30    0.24
   0 -14  -5    2.22    0.31
  -1 -14  -5    3.35    0.34
  -1 -14  -5    3.06    0.28
  11 -15  -5    0.05    0.14
  10 -15  -5    0.05    0.14
  10 -15  -5    0.08    0.07
   9 -15  -5    0.23    0.16
   9 -15  -5    0.29    0.08
   8 -15  -5    0.07    0.09
   7 -15  -5    1.13    0.15
   6 -15  -5    0.19    0.10
   5 -15  -5    0.26    0.11
   4 -15  -5    8.23    0.61
   3 -15  -5    1.13    0.17
   3 -15  -5    0.93    0.15
   2 -15  -5    1.98    0.22
   2 -15  -5    2.05    0.27
   1 -15  -5   -0.12    0.14
   1 -15  -5    0.09    0.11
   9 -16  -5    0.16    0.06
   8 -16  -5    0.04    0.08
   7 -16  -5    0.42    0.09
   6 -16  -5    1.33    0.15
   5 -16  -5    0.35    0.09
   4 -16  -5    0.20    0.10
   5 -19   6    4.30    0.34
   6 -19   6    1.86    0.19
  -2  18  -6    0.20    0.20
  -3  18  -6    0.21    0.13
  -4  18  -6    0.31    0.15
  -6  18  -6    0.01    0.14
   6 -18   6    0.04    0.09
   7 -18   6    1.35    0.16
   8 -18   6    0.63    0.09
   4  17  -6    0.00    0.06
   3  17  -6   -0.05    0.06
   2  17  -6    0.40    0.08
   1  17  -6    0.22    0.12
   0  17  -6    0.81    0.21
  -1  17  -6    0.01    0.12
  -2  17  -6    2.20    0.29
  -3  17  -6    0.22    0.15
  -4  17  -6    0.30    0.15
  -5  17  -6   -0.05    0.15
  -6  17  -6    0.07    0.16
   7 -17   6    0.64    0.11
   8 -17   6    0.14    0.09
  -9  17  -6   -0.23    0.31
   9 -17   6   -0.06    0.08
 -10  17  -6   -0.21    0.30
  10 -17   6   -0.04    0.07
   5  16  -6   -0.10    0.08
   4  16  -6    0.00    0.10
   4  16  -6   -0.08    0.08
   3  16  -6   -0.01    0.08
   3  16  -6    0.28    0.11
   2  16  -6    1.92    0.23
   2  16  -6    1.22    0.31
   1  16  -6   -0.06    0.07
   1  16  -6    0.07    0.12
   0  16  -6    1.62    0.24
  -1  16  -6    0.42    0.14
  -2  16  -6    1.18    0.25
  -3  16  -6    0.71    0.17
  -4  16  -6    0.47    0.16
  -5  16  -6    0.19    0.17
  -6  16  -6   -0.06    0.16
  -7  16  -6    0.06    0.17
   7 -16   6    0.22    0.10
  -8  16  -6    0.75    0.34
   8 -16   6    1.08    0.15
  -9  16  -6    3.03    0.53
   9 -16   6    2.42    0.23
 -10  16  -6    2.57    0.51
  10 -16   6    1.81    0.19
 -11  16  -6    4.93    0.55
  11 -16   6    4.44    0.35
   6  15  -6    0.04    0.10
   6  15  -6   -0.12    0.08
   5  15  -6   -0.11    0.09
   5  15  -6    0.09    0.11
   4  15  -6    0.22    0.12
   4  15  -6   -0.02    0.09
   3  15  -6    0.08    0.12
   3  15  -6   -0.08    0.09
   2  15  -6    1.75    0.25
   1  15  -6    0.02    0.08
   1  15  -6    0.09    0.12
   0  15  -6    1.57    0.26
   0  15  -6    0.21    0.81
   0  15  -6    2.24    0.25
  -1  15  -6    0.16    0.85
  -2  15  -6    0.59    0.15
  -2  15  -6    0.56    0.80
  -3  15  -6    0.78    0.83
  -3  15  -6    2.03    0.28
  -4  15  -6    2.18    1.04
  -4  15  -6    1.72    0.30
  -5  15  -6    0.62    0.18
  -5  15  -6    1.21    1.00
  -6  15  -6    0.08    0.17
  -6  15  -6    0.34    0.92
  -7  15  -6   -0.20    0.32
  -7  15  -6   -0.04    0.18
  -8  15  -6   -0.05    0.34
   8 -15   6    0.06    0.10
  -9  15  -6    0.23    0.35
   9 -15   6    0.87    0.12
 -10  15  -6    0.07    0.33
  10 -15   6    0.45    0.10
 -11  15  -6    0.72    0.33
  11 -15   6    0.98    0.15
   8  14  -6    1.03    0.23
   7  14  -6   -0.05    0.11
   7  14  -6   -0.09    0.08
   6  14  -6    0.02    0.12
   5  14  -6   -0.11    0.09
   5  14  -6    0.34    0.13
   4  14  -6    2.61    0.29
   3  14  -6    0.41    0.13
   3  14  -6    0.11    0.09
   3  14  -6   -0.22    0.73
   2  14  -6    1.36    0.32
   2  14  -6    0.09    0.67
   1  14  -6   -0.01    0.08
   1  14  -6   -0.15    0.69
   1  14  -6    0.07    0.12
   0  14  -6    0.02    0.68
   0  14  -6    0.30    0.08
   0  14  -6    0.93    0.20
  -1  14  -6    0.00    0.76
  -1  14  -6   -0.02    0.12
  -2  14  -6    0.19    0.78
  -2  14  -6    0.85    0.23
  -3  14  -6    0.27    0.79
  -3  14  -6    0.36    0.15
  -4  14  -6   -0.49    0.86
  -4  14  -6    0.22    0.16
  -5  14  -6    0.25    0.94
  -5  14  -6   -0.15    0.16
  -6  14  -6    0.40    0.20
  -6  14  -6    0.40    0.95
  -6  14  -6    0.86    0.32
  -7  14  -6    1.12    0.23
  -7  14  -6    0.99    1.10
  -7  14  -6    1.36    0.35
  -8  14  -6    0.01    0.34
   8 -14   6    0.36    0.11
  -9  14  -6    0.00    0.33
   9 -14   6    0.00    0.10
 -10  14  -6   -0.01    0.34
  10 -14   6    0.05    0.10
 -11  14  -6    3.13    0.58
  11 -14   6    4.53    0.33
 -12  14  -6    3.73    0.53
   9  13  -6   -0.03    0.06
   8  13  -6    0.06    0.07
   7  13  -6    0.05    0.08
   6  13  -6   -0.16    0.08
   5  13  -6   -0.19    0.08
   4  13  -6   -0.42    0.62
   4  13  -6    0.04    0.08
   3  13  -6    0.01    0.08
   3  13  -6    0.15    0.63
   2  13  -6   -0.24    0.59
   2  13  -6    0.08    0.12
   2  13  -6   -0.04    0.07
   1  13  -6    0.04    0.08
   1  13  -6    0.27    0.65
   1  13  -6    0.08    0.12
   0  13  -6    0.11    0.70
   0  13  -6    0.16    0.07
   0  13  -6    0.28    0.11
  -1  13  -6    0.72    0.78
  -1  13  -6    1.76    0.23
  -1  13  -6    1.47    0.23
  -2  13  -6    8.35    0.66
  -2  13  -6   10.26    1.49
  -3  13  -6    0.96    0.87
  -3  13  -6    0.64    0.15
  -4  13  -6    0.03    0.15
  -4  13  -6   -0.14    0.87
  -5  13  -6    0.43    0.27
  -5  13  -6    0.30    0.93
  -5  13  -6    0.37    0.17
  -6  13  -6    0.11    0.29
  -6  13  -6   -0.14    0.19
  -6  13  -6    0.00    0.92
  -7  13  -6    6.82    1.66
  -7  13  -6    4.61    0.52
  -8  13  -6    0.99    0.34
  -8  13  -6    0.34    1.16
   8 -13   6    0.65    0.12
  -9  13  -6   -0.26    0.33
   9 -13   6    0.08    0.10
 -10  13  -6   -0.02    0.34
  10 -13   6    0.44    0.11
 -11  13  -6    0.43    0.34
 -12  13  -6    2.96    0.52
   9  12  -6    0.29    0.08
   8  12  -6    0.42    0.09
   7  12  -6    0.08    0.09
   6  12  -6    0.04    0.09
   5  12  -6    0.51    0.69
   4  12  -6   -0.06    0.63
   4  12  -6    0.14    0.08
   3  12  -6    0.05    0.07
   3  12  -6    0.11    0.66
   2  12  -6    9.79    0.75
   1  12  -6    1.59    0.72
   1  12  -6    2.60    0.25
   1  12  -6    2.44    0.29
   0  12  -6    2.45    0.92
   0  12  -6    2.14    0.24
   0  12  -6    2.21    0.28
  -1  12  -6    0.19    0.06
  -1  12  -6    0.32    0.11
  -2  12  -6    7.50    1.30
  -2  12  -6    5.29    0.45
  -3  12  -6    3.31    0.34
  -3  12  -6    3.87    1.18
  -4  12  -6   -0.12    0.30
  -4  12  -6    0.00    0.15
  -4  12  -6    0.05    0.84
  -5  12  -6    0.67    0.26
  -5  12  -6    0.50    0.17
  -5  12  -6    0.26    0.89
  -6  12  -6    0.35    0.27
  -6  12  -6   -0.36    0.89
  -6  12  -6   -0.08    0.20
  -7  12  -6    0.13    0.22
  -7  12  -6    0.44    0.30
  -7  12  -6   -0.49    0.98
  -8  12  -6    1.19    0.33
  -8  12  -6    0.69    1.36
   8 -12   6    1.41    0.19
  -9  12  -6    0.51    0.34
   9 -12   6    1.04    0.13
 -10  12  -6    2.85    0.53
  10 -12   6    2.43    0.25
 -11  12  -6   -0.07    0.35
 -12  12  -6    0.18    0.34
 -13  12  -6    0.70    0.36
  10  11  -6    0.05    0.07
   9  11  -6   -0.08    0.08
   8  11  -6    0.39    0.10
   7  11  -6    5.58    0.55
   7  11  -6    6.59    0.53
   6  11  -6    0.17    0.62
   6  11  -6    1.25    0.29
   6  11  -6    1.75    0.33
   5  11  -6   -0.07    0.59
   5  11  -6    0.18    0.11
   5  11  -6   -0.02    0.08
   4  11  -6    4.94    0.45
   4  11  -6    5.50    0.48
   3  11  -6    0.11    0.06
   3  11  -6    0.19    0.57
   2  11  -6    2.74    0.84
   2  11  -6    3.30    0.30
   1  11  -6    2.88    0.83
   0  11  -6    5.62    1.02
  -2  11  -6    0.83    0.74
  -2  11  -6   -0.89    1.05
  -3  11  -6   -0.14    0.66
  -3  11  -6   -0.96    0.91
  -4  11  -6    0.29    0.15
  -4  11  -6    0.62    0.86
  -5  11  -6    0.43    0.86
  -5  11  -6    0.48    0.23
  -5  11  -6    0.55    0.18
  -6  11  -6    0.03    0.24
  -6  11  -6    0.02    0.90
  -6  11  -6   -0.15    0.19
  -7  11  -6    0.30    0.23
  -7  11  -6   -0.25    0.98
  -7  11  -6    0.61    0.27
   7 -11   6    0.20    0.41
  -8  11  -6    3.32    0.50
   8 -11   6    2.63    0.33
  -9  11  -6    3.45    0.56
  -9  11  -6    1.84    1.65
   9 -11   6    4.52    0.33
 -10  11  -6    0.00    0.34
  10 -11   6    0.26    0.11
 -11  11  -6    0.35    0.36
 -12  11  -6    4.03    0.61
 -13  11  -6    0.09    0.38
  11  10  -6    0.90    0.23
  10  10  -6    0.12    0.09
   9  10  -6   -0.04    0.12
   9  10  -6    0.14    0.09
   8  10  -6    0.24    0.09
   8  10  -6    0.18    0.12
   7  10  -6    1.16    0.32
   7  10  -6   -0.02    0.63
   7  10  -6    1.17    0.28
   6  10  -6    2.85    0.36
   6  10  -6    3.00    0.33
   6  10  -6    1.19    0.70
   5  10  -6    1.10    0.29
   5  10  -6    0.64    0.61
   4  10  -6    2.03    0.73
   4  10  -6    2.14    0.29
   4  10  -6    1.25    0.25
   3  10  -6    3.65    0.83
   3  10  -6    5.80    0.46
   2  10  -6    1.19    0.57
   2  10  -6    1.39    0.26
   1  10  -6    1.71    0.61
   0  10  -6    2.58    0.84
  -1  10  -6    1.43    0.72
  -1  10  -6    0.70    1.03
  -2  10  -6    9.01    1.33
  -2  10  -6   10.96    1.76
  -3  10  -6    0.06    0.63
  -3  10  -6    0.65    0.87
  -4  10  -6    9.38    1.54
  -4  10  -6    8.51    1.45
  -5  10  -6    1.59    0.85
  -5  10  -6   -0.14    0.77
  -5  10  -6    0.12    0.19
  -6  10  -6    3.76    0.45
  -6  10  -6    3.93    1.35
  -6  10  -6    3.99    0.45
   6 -10   6    3.09    0.59
  -7  10  -6    5.09    1.66
  -7  10  -6    5.05    0.53
  -7  10  -6    4.85    0.53
  -8  10  -6    7.27    0.68
  -9  10  -6   -0.10    0.31
  -9  10  -6    0.83    1.58
   9 -10   6    0.33    0.11
 -10  10  -6    1.31    1.68
 -10  10  -6    0.78    0.36
 -11  10  -6    9.20    0.88
 -12  10  -6    2.66    0.61
 -13  10  -6    0.60    0.41
  12   9  -6    0.88    0.23
  10   9  -6   -0.11    0.11
  10   9  -6    0.22    0.09
   9   9  -6    5.53    0.46
   9   9  -6    4.31    0.50
   8   9  -6   -0.78    0.59
   7   9  -6    4.55    0.46
   7   9  -6    4.42    0.41
   6   9  -6    3.69    0.90
   6   9  -6    5.02    0.45
   6   9  -6    4.31    0.40
   5   9  -6    2.48    0.74
   5   9  -6    2.69    0.29
   4   9  -6    0.39    0.52
   3   9  -6    5.85    0.46
   3   9  -6    4.27    0.79
   2   9  -6    0.23    0.08
   2   9  -6    0.18    0.47
   1   9  -6   64.86    5.00
   1   9  -6   76.66    5.28
   0   9  -6   21.11    1.90
   0   9  -6   20.73    2.33
  -1   9  -6    0.89    0.67
  -1   9  -6    1.33    0.91
  -2   9  -6    4.76    1.03
  -2   9  -6    4.86    1.35
  -3   9  -6    5.05    1.30
  -3   9  -6    4.49    1.11
  -4   9  -6    7.93    1.35
  -5   9  -6    0.92    0.89
  -6   9  -6    4.21    1.28
  -6   9  -6    3.62    0.43
  -6   9  -6    4.33    0.45
   6  -9   6    3.48    0.58
  -7   9  -6    1.17    0.26
  -8   9  -6    3.51    0.48
  -8   9  -6    2.56    1.58
  -9   9  -6    2.44    1.69
  -9   9  -6    1.14    0.34
   9  -9   6    1.46    0.19
 -10   9  -6    1.85    1.69
 -11   9  -6    3.12    0.65
 -12   9  -6    1.79    0.46
 -13   9  -6    0.20    0.43
  12   8  -6    0.06    0.08
  11   8  -6   13.07    0.87
  11   8  -6    9.68    0.89
  10   8  -6    1.64    0.28
   9   8  -6   -0.58    0.61
   9   8  -6   -0.01    0.11
   9   8  -6    0.14    0.08
   8   8  -6    3.01    0.33
   8   8  -6    3.07    0.38
   7   8  -6   23.89    1.80
   7   8  -6   26.31    1.82
   6   8  -6    0.12    0.07
   6   8  -6    0.18    0.57
   6   8  -6    0.70    0.24
   5   8  -6    7.05    0.94
   5   8  -6    7.72    0.60
   4   8  -6    3.81    0.72
   4   8  -6    4.17    0.37
   3   8  -6    8.18    0.95
   3   8  -6    9.53    0.69
   2   8  -6   21.00    1.77
   2   8  -6   21.45    1.53
   1   8  -6    4.91    0.41
   1   8  -6    5.17    0.79
   0   8  -6    0.46    0.87
   0   8  -6    0.52    0.51
  -1   8  -6    0.26    0.61
  -1   8  -6    0.34    0.81
  -2   8  -6    2.41    0.91
  -2   8  -6    2.74    0.88
  -3   8  -6   10.87    1.43
  -4   8  -6   21.83    2.19
  -5   8  -6    7.47    1.38
  -5   8  -6    7.51    0.55
  -6   8  -6    1.07    0.15
   6  -8   6    0.96    0.35
  -7   8  -6    2.92    0.42
  -7   8  -6    3.28    0.27
  -8   8  -6    2.28    0.23
  -8   8  -6    2.01    0.43
  -8   8  -6    2.65    1.57
   8  -8   6    2.01    0.24
  -9   8  -6    1.03    0.16
  -9   8  -6    0.63    0.34
  -9   8  -6    1.34    1.62
 -10   8  -6    4.25    0.66
 -10   8  -6    5.35    2.19
 -10   8  -6    4.69    0.39
 -11   8  -6    3.37    0.64
 -11   8  -6    2.47    0.28
 -12   8  -6    4.96    0.74
 -12   8  -6    4.19    0.36
  13   7  -6    0.19    0.07
  12   7  -6    0.87    0.24
  11   7  -6   11.29    0.82
  11   7  -6   10.31    0.86
  10   7  -6    4.44    0.48
  10   7  -6    4.89    0.41
   9   7  -6    1.73    0.33
   9   7  -6    1.84    0.25
   8   7  -6    0.52    0.69
   8   7  -6    2.21    0.32
   8   7  -6    2.18    0.25
   7   7  -6    7.66    0.60
   7   7  -6    8.14    0.63
   6   7  -6   11.24    1.22
   6   7  -6   13.29    0.93
  -6  -7   6   11.11    1.67
   5   7  -6    3.04    0.31
   5   7  -6    3.18    0.70
   4   7  -6   28.33    2.29
   4   7  -6   30.68    2.12
   3   7  -6    3.85    0.34
   2   7  -6    5.77    0.76
   2   7  -6    5.47    0.45
  -2  -7   6    5.86    0.87
   1   7  -6   38.39    3.23
   1   7  -6   36.28    2.84
  -1  -7   6   36.86    2.81
   0   7  -6    3.68    1.09
   0  -7   6    3.92    0.76
  -1   7  -6    5.41    1.29
  -1   7  -6    4.56    0.88
   1  -7   6    4.31    0.83
  -2   7  -6    2.27    0.78
  -3   7  -6    3.22    1.04
  -4   7  -6    0.49    0.78
  -5   7  -6    3.01    1.13
  -5   7  -6    2.86    0.24
  -6   7  -6   22.38    1.60
  -7   7  -6    7.08    0.66
  -7   7  -6    9.90    2.04
  -7   7  -6    7.63    0.56
  -8   7  -6    5.37    1.95
  -8   7  -6    5.60    0.59
  -8   7  -6    5.22    0.43
  -9   7  -6    7.08    2.20
  -9   7  -6    8.30    0.80
  -9   7  -6    8.06    0.62
 -10   7  -6   29.94    2.18
 -10   7  -6   31.24    2.29
 -11   7  -6    0.82    0.44
 -11   7  -6    0.23    0.16
 -12   7  -6    3.60    0.33
 -12   7  -6    4.47    1.03
 -13   7  -6    0.25    0.11
  13   6  -6    2.53    0.30
  12   6  -6   -0.12    0.11
  12   6  -6    0.16    0.07
  11   6  -6    1.73    0.24
  11   6  -6    1.02    0.33
  10   6  -6    4.66    0.50
  10   6  -6    5.50    0.43
   9   6  -6   -0.34    0.65
   9   6  -6    0.78    0.19
   9   6  -6    0.26    0.11
   8   6  -6    1.32    0.29
   8   6  -6    1.55    0.21
   8   6  -6    1.49    0.69
   7   6  -6    0.86    0.58
   7   6  -6    0.46    0.10
  -7  -6   6    1.05    0.56
   6   6  -6   28.01    2.15
   6   6  -6   26.27    1.98
  -6  -6   6   28.88    2.53
   4   6  -6   21.99    1.61
  -4  -6   6   23.45    2.34
   3   6  -6    2.84    0.27
  -3  -6   6    1.76    0.67
   2   6  -6    2.91    0.96
   1   6  -6    0.35    0.74
  -1  -6   6   -0.15    0.25
   0   6  -6    0.69    0.70
   0  -6   6    0.70    0.30
  -1   6  -6    4.10    0.87
   1  -6   6    4.28    0.74
  -2   6  -6    2.56    0.88
   2  -6   6    1.60    0.46
  -3   6  -6   11.27    1.44
  -4   6  -6   39.60    2.82
  -5   6  -6    1.23    0.16
  -6   6  -6    2.15    1.33
  -6   6  -6    1.07    0.17
  -7   6  -6    1.45    1.43
  -7   6  -6    1.25    0.20
  -7   6  -6    1.72    0.40
  -8   6  -6    1.78    0.23
  -8   6  -6    1.87    0.48
  -8   6  -6    2.11    1.64
  -9   6  -6    9.93    0.86
  -9   6  -6    7.89    0.65
  -9   6  -6    6.54    2.44
 -10   6  -6   20.23    1.40
 -10   6  -6   14.75    1.23
 -11   6  -6    0.52    0.16
 -12   6  -6    1.93    0.24
 -13   6  -6    1.35    0.19
  14   5  -6    0.22    0.07
  13   5  -6    1.64    0.23
  12   5  -6    1.20    0.33
  12   5  -6    1.95    0.24
  11   5  -6    3.51    0.32
  11   5  -6    3.02    0.42
  10   5  -6    7.29    0.66
  10   5  -6    8.20    0.60
   9   5  -6   -0.63    0.62
   9   5  -6    0.04    0.06
   8   5  -6   10.24    0.73
   8   5  -6    8.89    1.10
  -8  -5   6   10.64    1.52
   7   5  -6    4.27    0.77
  -7  -5   6    3.34    1.01
  -6  -5   6    0.40    0.42
  -5  -5   6   19.43    2.19
   2   5  -6    7.12    1.28
   1   5  -6    1.26    0.67
   0  -5   6    1.33    0.48
  -1   5  -6    3.16    0.74
   1  -5   6    2.97    0.65
  -2   5  -6    8.03    1.08
   2  -5   6    7.00    0.98
  -4   5  -6   38.18    2.72
  -5   5  -6    0.79    1.15
  -5   5  -6    0.25    0.10
  -6   5  -6    8.06    1.81
  -6   5  -6    5.52    0.44
  -6   5  -6    5.88    0.44
  -7   5  -6   11.57    0.87
  -7   5  -6   15.83    2.40
  -7   5  -6   11.62    0.88
  -8   5  -6    0.03    1.62
  -8   5  -6    0.68    0.37
  -8   5  -6    0.56    0.15
  -9   5  -6    9.80    0.87
  -9   5  -6    7.57    0.63
  -9   5  -6    6.85    2.53
 -10   5  -6    3.86    0.36
 -11   5  -6    0.59    0.17
 -12   5  -6    3.72    0.34
 -13   5  -6    0.52    0.13
  14   4  -6    0.05    0.06
  13   4  -6    4.26    0.34
  13   4  -6    3.28    0.41
  12   4  -6    1.76    0.36
  12   4  -6    1.97    0.24
  11   4  -6    3.52    0.47
  11   4  -6    4.97    0.38
  10   4  -6    3.10    0.29
  10   4  -6    2.27    0.75
   9   4  -6    0.70    0.60
   9   4  -6    0.42    0.08
   8   4  -6    6.67    0.88
   8   4  -6    6.47    0.49
  -8  -4   6    7.48    1.24
   7   4  -6    0.02    0.49
  -7  -4   6    0.23    0.42
  -6  -4   6    0.45    0.41
  -5  -4   6   27.25    2.25
   2   4  -6    9.67    1.31
   1   4  -6    7.43    1.09
   1  -4   6   39.42    3.04
  -2   4  -6    8.53    1.30
   2  -4   6    8.59    1.08
  -3   4  -6   19.66    2.10
  -4   4  -6   15.46    1.15
  -4   4  -6   17.98    2.12
  -5   4  -6   50.29    3.57
  -6   4  -6   24.99    1.71
  -6   4  -6   23.04    1.72
  -7   4  -6    1.23    0.19
  -7   4  -6    0.90    0.13
  -7   4  -6    1.89    1.64
  -8   4  -6    0.29    0.11
  -8   4  -6    0.09    0.47
  -8   4  -6    0.66    1.67
  -8   4  -6    0.11    0.15
  -9   4  -6    1.79    0.26
  -9   4  -6    1.69    0.22
  -9   4  -6    2.17    1.92
 -10   4  -6   -0.01    0.11
 -10   4  -6    0.05    0.16
 -11   4  -6   -0.39    0.15
 -12   4  -6    4.44    0.38
 -13   4  -6    0.44    0.13
  15   3  -6    0.19    0.06
  14   3  -6    0.07    0.06
  14   3  -6    0.01    0.09
  13   3  -6    1.23    0.31
  13   3  -6    1.02    0.20
  12   3  -6    0.79    0.69
  11   3  -6    0.34    0.62
  11   3  -6    0.18    0.06
  10   3  -6    6.80    0.49
  10   3  -6    5.65    0.92
  10   3  -6    6.59    0.51
   9   3  -6    0.13    0.08
   9   3  -6    0.10    0.05
   9   3  -6    0.24    0.50
   8   3  -6    3.75    0.69
   8   3  -6    3.05    0.25
  -8  -3   6    3.84    0.99
   7   3  -6    5.58    0.73
  -7  -3   6    5.50    0.97
  -6  -3   6   18.98    1.72
   3   3  -6    0.60    0.62
   2   3  -6    1.04    0.60
  -1   3  -6   61.90    4.73
   1  -3   6   63.94    4.70
  -2   3  -6    0.16    0.76
   2  -3   6    0.56    0.38
  -3   3  -6    1.77    1.06
  -4   3  -6   36.43    2.59
  -5   3  -6   16.83    2.20
  -5   3  -6   11.25    0.86
  -6   3  -6    0.40    1.39
  -7   3  -6    2.01    1.62
  -7   3  -6    0.72    0.15
  -8   3  -6    3.78    2.13
  -8   3  -6    1.46    0.24
  -9   3  -6   -0.21    0.12
  -9   3  -6    0.04    0.16
 -10   3  -6    1.59    0.26
 -10   3  -6    1.75    0.22
 -11   3  -6    1.36    0.20
 -11   3  -6    1.42    0.19
 -12   3  -6    0.86    0.16
 -12   3  -6    1.10    0.18
  15   2  -6    0.11    0.05
  14   2  -6    1.37    0.22
  14   2  -6    2.15    0.30
  13   2  -6    0.12    0.06
  12   2  -6    0.91    0.62
  12   2  -6    0.02    0.06
  12   2  -6    0.18    0.09
  11   2  -6    5.40    0.44
  11   2  -6    5.09    0.88
  11   2  -6    5.46    0.42
  10   2  -6    9.75    0.75
  10   2  -6   10.40    1.13
  10   2  -6   10.51    0.74
   9   2  -6    0.40    0.51
   9   2  -6    0.07    0.07
  -9  -2   6    0.07    0.46
   8   2  -6    0.94    0.50
  -8  -2   6    0.48    0.42
  -7  -2   6    0.02    0.35
  -6  -2   6    2.24    0.68
   3   2  -6    0.81    0.57
   2   2  -6    9.30    1.12
  -1   2  -6   21.29    1.90
   1  -2   6   20.63    1.76
  -2   2  -6   18.79    1.88
   2  -2   6   17.46    1.66
  -3   2  -6    2.78    1.20
  -4   2  -6   18.97    1.36
  -5   2  -6    3.75    0.32
  -5   2  -6    5.79    1.68
  -6   2  -6    6.57    0.52
  -6   2  -6    8.97    2.02
  -7   2  -6    3.19    1.89
  -7   2  -6    1.44    0.18
  -8   2  -6    1.98    0.26
  -8   2  -6    2.00    1.96
  -9   2  -6    1.43    0.22
  -9   2  -6    1.80    0.26
 -10   2  -6    3.11    0.33
 -10   2  -6    3.44    0.30
 -11   2  -6    0.37    0.16
 -11   2  -6    0.00    0.11
 -12   2  -6    0.46    0.10
 -12   2  -6    0.47    0.15
  15   1  -6    0.79    0.17
  14   1  -6    6.15    0.49
  13   1  -6   -0.02    0.09
  13   1  -6    0.06    0.06
  12   1  -6    0.73    0.12
  12   1  -6    2.05    0.73
  12   1  -6    0.88    0.20
  11   1  -6    0.09    0.09
  11   1  -6    0.50    0.56
  11   1  -6    0.01    0.05
  10   1  -6    1.10    0.18
  10   1  -6    1.22    0.15
  10   1  -6    1.00    0.51
   9   1  -6    0.60    0.47
   9   1  -6    0.61    0.12
  -9  -1   6    0.30    0.43
   8   1  -6   25.59    2.04
  -8  -1   6   24.71    2.23
  -7  -1   6    3.06    0.78
  -6  -1   6    1.99    0.63
   3   1  -6    4.61    0.85
   0   1  -6    6.53    1.10
  -1   1  -6    0.26    0.76
  -2   1  -6    0.17    0.96
  -3   1  -6   11.68    1.84
  -4   1  -6    1.58    0.16
  -4   1  -6    1.99    1.37
  -5   1  -6   23.28    1.73
  -5   1  -6   27.07    2.88
  -6   1  -6    0.10    0.12
  -6   1  -6    0.88    1.53
  -7   1  -6    3.09    0.29
  -7   1  -6    1.94    1.79
  -8   1  -6   -0.26    0.15
  -8   1  -6    0.38    1.82
  -9   1  -6    1.60    0.26
 -10   1  -6    1.87    0.24
 -10   1  -6    1.97    0.27
 -11   1  -6    0.84    0.13
 -11   1  -6    0.95    0.18
 -12   1  -6    2.30    0.21
 -12   1  -6    1.62    0.24
  15   0  -6    3.32    0.30
  14   0  -6    0.06    0.06
  13   0  -6    0.11    0.06
  13   0  -6    0.22    0.10
  12   0  -6    4.02    0.36
  12   0  -6    4.54    0.86
  12   0  -6    4.11    0.33
  11   0  -6    0.89    0.54
  11   0  -6    0.61    0.18
  11   0  -6    0.76    0.14
  10   0  -6    0.28    0.09
  10   0  -6    0.28    0.48
   9   0  -6    5.32    0.41
   9   0  -6    5.59    0.85
  -9   0   6    5.44    1.02
   8   0  -6    3.51    0.75
  -8   0   6    3.65    0.84
   7   0  -6    3.10    0.64
  -7   0   6    4.27    0.81
  -6   0   6    4.86    0.79
   3   0  -6   23.09    1.88
  -1   0   6    2.01    0.66
   0   0  -6    0.76    0.82
  -1   0  -6   14.00    1.81
  -2   0  -6    0.68    1.04
  -3   0  -6    0.15    0.10
  -3   0  -6    0.00    1.14
  -4   0  -6   17.11    2.25
  -4   0  -6   15.82    1.15
  -5   0  -6    0.40    1.28
  -5   0  -6   -0.08    0.11
  -6   0  -6    0.43    0.13
  -6   0  -6   -0.40    1.41
  -7   0  -6    0.67    2.16
  -7   0  -6    1.25    0.17
  -8   0  -6   -0.13    0.16
  -9   0  -6    1.92    0.27
  -9   0  -6    2.19    0.25
 -10   0  -6    1.63    0.21
 -10   0  -6    0.79    0.19
 -11   0  -6    0.03    0.15
 -11   0  -6    0.20    0.11
 -12   0  -6   -0.15    0.10
 -12   0  -6    0.04    0.15
  16  -1  -6    0.90    0.17
  15  -1  -6    3.09    0.29
  14  -1  -6    0.97    0.17
  14  -1  -6    1.46    0.21
  12  -1  -6    0.67    0.52
  12  -1  -6    0.23    0.10
  12  -1  -6    0.08    0.06
  11  -1  -6   -0.01    0.06
  11  -1  -6   -0.04    0.08
  11  -1  -6    0.17    0.54
  10  -1  -6    5.70    0.95
  10  -1  -6    6.12    0.46
   9  -1  -6   20.50    1.81
   9  -1  -6   21.55    1.49
  -9   1   6   19.36    1.95
   8  -1  -6    6.70    0.89
  -8   1   6    6.88    1.00
   7  -1  -6    0.88    0.47
  -7   1   6    1.03    0.42
   6  -1  -6   17.77    1.55
  -6   1   6   19.76    1.67
  -5   1   6    0.38    0.30
   3  -1  -6    0.95    0.37
  -2   1   6    0.65    0.45
   1  -1  -6   14.77    1.30
  -1   1   6   11.08    1.29
   0  -1  -6   -0.32    0.77
   0   1   6    0.25    0.36
  -1  -1  -6   11.36    1.88
  -2  -1  -6   10.87    2.11
  -3  -1  -6    3.03    1.67
  -3  -1  -6    1.46    0.17
  -4  -1  -6    1.56    1.65
  -4  -1  -6    1.74    0.18
  -5  -1  -6    0.89    1.74
  -5  -1  -6    0.73    0.13
  -6  -1  -6    5.91    2.31
  -6  -1  -6    5.32    0.42
  -7  -1  -6    0.47    0.15
  -7  -1  -6   -0.92    2.23
  -8  -1  -6    2.51    0.29
  -9  -1  -6    0.73    0.17
  -9  -1  -6    0.58    0.15
 -10  -1  -6    0.79    0.18
 -10  -1  -6    1.61    0.22
 -11  -1  -6   -0.22    0.14
 -11  -1  -6    0.09    0.11
  16  -2  -6    0.14    0.05
  15  -2  -6    2.53    0.25
  15  -2  -6    1.96    0.22
  14  -2  -6    7.00    0.54
  14  -2  -6    7.23    0.56
  12  -2  -6    6.39    1.02
  12  -2  -6    5.60    0.43
  12  -2  -6    5.23    0.45
  11  -2  -6    0.31    0.13
  11  -2  -6    0.44    0.62
  11  -2  -6    0.31    0.10
  10  -2  -6    4.69    0.86
  10  -2  -6    4.72    0.38
   9  -2  -6    5.37    0.40
   9  -2  -6    4.76    0.87
  -9   2   6    4.64    0.98
   8  -2  -6    0.86    0.52
  -8   2   6    0.33    0.39
   7  -2  -6    0.44    0.44
  -7   2   6    0.54    0.40
   6  -2  -6    6.78    0.90
  -6   2   6    8.33    1.00
   5  -2  -6    0.06    0.39
  -5   2   6    0.48    0.34
   4  -2  -6   53.24    4.27
  -4   2   6   62.16    4.24
   3  -2  -6    0.75    0.39
  -3   2   6    0.47    0.39
   2  -2  -6    0.13    0.42
  -2   2   6    0.09    0.52
   1  -2  -6    4.09    0.96
  -1   2   6    2.82    0.97
   0  -2  -6    0.34    0.95
   0   2   6    0.24    0.44
  -1  -2  -6    1.13    1.23
  -2  -2  -6    0.44    1.51
  -3  -2  -6    0.53    1.60
  -3  -2  -6    1.14    0.15
  -4  -2  -6    8.45    0.62
  -4  -2  -6    9.22    2.38
  -5  -2  -6   23.95    1.68
  -5  -2  -6   21.50    3.29
  -6  -2  -6    9.80    0.71
  -6  -2  -6    6.66    2.51
  -7  -2  -6    3.31    0.32
  -8  -2  -6    0.52    0.17
  -9  -2  -6    1.07    0.16
  -9  -2  -6    0.87    0.18
 -10  -2  -6    1.50    0.23
 -10  -2  -6    0.92    0.15
 -11  -2  -6    0.40    0.11
 -11  -2  -6    0.15    0.15
  16  -3  -6    0.66    0.16
  15  -3  -6    1.37    0.18
  15  -3  -6    1.70    0.21
  14  -3  -6    0.01    0.05
  14  -3  -6    0.08    0.09
  13  -3  -6    1.96    0.26
  13  -3  -6    2.55    0.23
  13  -3  -6    3.75    0.84
  12  -3  -6    0.15    0.10
  12  -3  -6    0.37    0.65
  12  -3  -6    0.20    0.13
  11  -3  -6    8.52    0.65
  11  -3  -6    7.78    1.14
  11  -3  -6    8.64    0.64
  10  -3  -6    1.11    0.23
  10  -3  -6    1.90    0.70
  10  -3  -6    1.37    0.18
   9  -3  -6   15.02    1.50
   9  -3  -6   15.02    1.04
  -9   3   6   10.86    1.67
   8  -3  -6   24.30    2.05
  -8   3   6   22.00    2.06
   7  -3  -6    0.68    0.52
  -7   3   6    0.37    0.42
   6  -3  -6  120.56    9.35
  -6   3   6  135.94    9.33
   5  -3  -6  196.73   15.26
  -5   3   6  227.37   15.22
   4  -3  -6    0.18    0.49
  -4   3   6    0.03    0.42
   3  -3  -6    9.12    0.99
  -3   3   6    7.72    1.25
   2  -3  -6    6.34    0.92
  -2   3   6    3.96    1.27
   1  -3  -6   18.20    1.84
   0  -3  -6    3.92    1.42
   0   3   6    1.52    0.60
  -1  -3  -6    8.12    1.84
  -2  -3  -6    7.72    1.92
  -2  -3  -6    8.70    0.63
  -3  -3  -6   10.32    2.28
  -3  -3  -6   12.03    0.85
  -4  -3  -6    0.15    1.72
  -5  -3  -6   -0.39    1.91
  -6  -3  -6    0.57    2.18
  -7  -3  -6    0.47    0.16
  -8  -3  -6    0.26    0.16
  -8  -3  -6    0.18    0.14
  -9  -3  -6   -0.11    0.16
  -9  -3  -6    0.17    0.14
 -10  -3  -6   -0.05    0.11
 -10  -3  -6   -0.32    0.14
  16  -4  -6    0.62    0.16
  15  -4  -6    1.53    0.21
  15  -4  -6    1.38    0.18
  14  -4  -6    4.96    0.42
  14  -4  -6    5.06    0.40
  13  -4  -6    0.50    0.11
  13  -4  -6    0.56    0.15
  13  -4  -6    1.12    0.71
  12  -4  -6   -0.01    0.14
  12  -4  -6    0.17    0.54
  12  -4  -6   -0.01    0.10
  11  -4  -6    3.03    0.97
  11  -4  -6    3.17    0.29
  11  -4  -6    2.74    0.32
  10  -4  -6    0.08    0.10
  10  -4  -6    0.07    0.13
  10  -4  -6    0.32    0.60
   9  -4  -6   11.57    0.83
   9  -4  -6   10.80    1.32
  -8   4   6    1.87    0.58
   7  -4  -6   27.08    2.31
  -7   4   6   25.18    2.22
   6  -4  -6    2.05    0.66
  -6   4   6    1.62    0.51
   5  -4  -6    5.04    0.95
  -5   4   6    4.46    0.89
   4  -4  -6    4.63    0.86
  -4   4   6    3.66    1.07
   3  -4  -6   17.39    1.58
   3  -4  -6   17.72    1.27
  -3   4   6   13.23    1.87
   2  -4  -6    3.65    0.90
  -2   4   6    1.50    0.82
   1  -4  -6    1.71    0.87
  -1   4   6    1.04    0.72
   0  -4  -6    9.43    1.68
  -1  -4  -6    3.88    1.43
  -1  -4  -6    3.32    0.27
  -2  -4  -6    0.95    0.14
  -2  -4  -6    0.13    1.40
  -3  -4  -6    1.41    1.60
  -4  -4  -6    1.49    1.79
  -5  -4  -6    0.15    0.13
  -5  -4  -6    0.08    0.15
  -5  -4  -6    0.45    1.92
  -6  -4  -6    0.29    0.15
  -7  -4  -6    3.52    0.33
  -7  -4  -6    3.48    0.33
  -8  -4  -6    2.86    0.28
  -8  -4  -6    2.45    0.29
  -9  -4  -6    0.12    0.12
 -10  -4  -6   -0.04    0.11
  16  -5  -6    1.43    0.19
  15  -5  -6    0.08    0.12
  15  -5  -6   -0.02    0.05
  14  -5  -6    0.98    0.23
  14  -5  -6    1.26    0.17
  13  -5  -6    3.12    0.31
  13  -5  -6    2.51    0.27
  13  -5  -6    3.82    1.08
  12  -5  -6    0.46    0.68
  12  -5  -6    0.12    0.15
  12  -5  -6   -0.02    0.12
  11  -5  -6    0.97    0.71
  11  -5  -6    1.08    0.19
  11  -5  -6    1.38    0.21
  10  -5  -6    4.19    0.39
  10  -5  -6    3.35    1.01
  10  -5  -6    4.29    0.36
   9  -5  -6    3.12    0.90
   9  -5  -6    3.72    0.32
   8  -5  -6    0.10    0.60
   8  -5  -6    0.39    0.12
   7  -5  -6    5.12    1.00
  -7   5   6    3.57    0.93
   6  -5  -6   18.18    1.75
  -6   5   6   16.43    1.71
   5  -5  -6   47.39    3.59
   5  -5  -6   42.14    3.29
  -5   5   6   45.14    3.59
   4  -5  -6   73.42    5.29
   4  -5  -6   74.84    5.04
  -4   5   6   60.58    5.38
   3  -5  -6    5.92    1.04
   3  -5  -6    6.19    0.58
   2  -5  -6    1.05    0.68
  -2   5   6    0.82    0.82
   1  -5  -6    0.33    0.91
   0  -5  -6   16.02    2.05
  -1  -5  -6   29.87    2.29
  -1  -5  -6   37.77    3.31
  -2  -5  -6    2.11    0.20
  -2  -5  -6    2.62    1.51
  -3  -5  -6    0.22    0.10
  -3  -5  -6   -0.44    1.41
  -4  -5  -6    0.18    1.63
  -5  -5  -6    1.42    0.21
  -6  -5  -6    4.48    0.39
  -6  -5  -6    3.58    0.35
  -7  -5  -6    1.22    0.17
  -8  -5  -6    0.16    0.12
  -9  -5  -6    0.51    0.12
  16  -6  -6    0.12    0.05
  15  -6  -6    0.02    0.05
  14  -6  -6    0.06    0.13
  14  -6  -6    0.22    0.10
  13  -6  -6    0.30    0.11
  13  -6  -6    0.25    0.15
  12  -6  -6    8.38    0.62
  12  -6  -6    5.95    1.23
  12  -6  -6    8.51    0.64
  11  -6  -6    0.16    0.68
  11  -6  -6   -0.06    0.15
  11  -6  -6    0.10    0.13
  10  -6  -6    0.07    0.15
  10  -6  -6    0.12    0.64
  10  -6  -6   -0.01    0.12
   9  -6  -6    6.55    0.52
   9  -6  -6    6.75    0.54
   9  -6  -6    6.12    1.21
   8  -6  -6    3.57    0.33
   8  -6  -6    4.54    1.03
   7  -6  -6    0.09    0.14
   7  -6  -6   -0.15    0.66
   6  -6  -6   14.32    1.61
   6  -6  -6   13.38    1.14
   5  -6  -6  111.11    7.84
   5  -6  -6   98.17    7.52
   4  -6  -6    0.12    0.22
   4  -6  -6   -0.51    0.57
   3  -6  -6   10.53    1.33
   2  -6  -6    0.22    0.67
   1  -6  -6    7.52    1.45
   0  -6  -6    2.00    1.27
  -1  -6  -6   -0.23    1.29
  -2  -6  -6    0.55    0.11
  -2  -6  -6   -0.41    1.40
  -3  -6  -6    2.22    0.22
  -3  -6  -6    1.33    1.66
  -4  -6  -6    0.26    1.78
  -5  -6  -6    0.49    0.18
  -5  -6  -6    0.36    0.14
  -6  -6  -6    0.07    0.17
  -6  -6  -6   -0.25    0.14
  -7  -6  -6   -0.17    0.12
  -8  -6  -6    0.18    0.12
  -9  -6  -6   -0.08    0.10
  16  -7  -6    0.00    0.04
  15  -7  -6    0.18    0.06
  14  -7  -6    0.87    0.17
  13  -7  -6    4.62    0.39
  13  -7  -6    3.62    0.34
  12  -7  -6   14.82    1.10
  12  -7  -6   15.90    1.09
  12  -7  -6   12.03    1.73
  11  -7  -6    2.03    0.31
  11  -7  -6    2.48    0.93
  11  -7  -6    2.40    0.26
  10  -7  -6    0.38    0.66
  10  -7  -6    0.27    0.14
  10  -7  -6    0.29    0.16
  10  -7  -6    0.27    0.07
   9  -7  -6    5.69    1.25
   9  -7  -6    6.27    0.49
   9  -7  -6    5.99    0.51
   9  -7  -6    6.05    0.45
   8  -7  -6   13.34    0.99
   8  -7  -6   13.32    1.01
   8  -7  -6   14.51    1.69
   7  -7  -6    5.77    1.12
   7  -7  -6    4.01    0.37
   6  -7  -6    4.09    0.55
   6  -7  -6    3.94    1.07
   5  -7  -6    4.04    0.52
   5  -7  -6    3.32    1.04
   4  -7  -6   -0.26    0.59
   3  -7  -6   46.48    3.77
   2  -7  -6   -0.17    0.68
   1  -7  -6    1.46    0.96
   0  -7  -6    1.60    1.27
  -1  -7  -6   -1.32    1.38
  -2  -7  -6   -0.18    1.51
  -3  -7  -6   -1.41    1.62
  -3  -7  -6    0.05    0.10
  -4  -7  -6    0.36    0.11
  -5  -7  -6   -0.11    0.17
  -5  -7  -6    0.07    0.12
  -6  -7  -6    0.05    0.17
  -6  -7  -6   -0.13    0.12
  -7  -7  -6    3.48    0.31
  -8  -7  -6    2.15    0.22
  15  -8  -6    0.05    0.12
  14  -8  -6    0.25    0.15
  13  -8  -6    8.77    0.69
  12  -8  -6    0.35    0.14
  12  -8  -6    0.21    0.76
  12  -8  -6    0.18    0.17
  11  -8  -6    8.79    1.47
  11  -8  -6    8.34    0.65
  11  -8  -6    8.41    0.67
  10  -8  -6    1.09    0.14
  10  -8  -6    1.24    0.20
  10  -8  -6    0.93    0.84
  10  -8  -6    1.08    0.22
   9  -8  -6    0.47    0.85
   9  -8  -6    0.41    0.15
   9  -8  -6    0.54    0.08
   9  -8  -6    0.42    0.17
   8  -8  -6    1.12    0.19
   8  -8  -6    1.01    0.22
   8  -8  -6    1.09    0.78
   8  -8  -6    1.00    0.13
   7  -8  -6    1.32    0.77
   7  -8  -6    1.49    0.24
   7  -8  -6    1.63    0.16
   7  -8  -6    1.65    0.41
   7  -8  -6    1.75    0.26
   6  -8  -6    2.29    0.91
   6  -8  -6    3.06    0.50
   6  -8  -6    1.86    0.27
   5  -8  -6    3.65    1.07
   5  -8  -6    2.99    0.67
   4  -8  -6    1.95    0.25
   4  -8  -6    2.08    0.81
   3  -8  -6    2.38    0.26
   3  -8  -6    2.16    0.88
   2  -8  -6    1.02    0.81
   1  -8  -6    2.00    1.03
   0  -8  -6    0.51    1.19
  -1  -8  -6    3.44    1.60
  -2  -8  -6    1.86    1.76
  -4  -8  -6    2.42    0.32
  -4  -8  -6    1.93    0.24
  -5  -8  -6   -0.06    0.17
  -5  -8  -6   -0.11    0.12
  -6  -8  -6   -0.15    0.12
  -6  -8  -6    0.15    0.16
  -7  -8  -6    1.60    0.20
  15  -9  -6    0.36    0.13
  14  -9  -6    1.21    0.23
  13  -9  -6    0.57    0.17
  12  -9  -6    1.04    0.20
  11  -9  -6   -0.08    0.08
  11  -9  -6    0.44    0.72
  11  -9  -6    0.17    0.17
  10  -9  -6    0.49    0.18
  10  -9  -6   -0.07    0.77
  10  -9  -6    0.49    0.09
   9  -9  -6    0.15    0.17
   9  -9  -6    0.13    0.08
   9  -9  -6   -0.04    0.15
   9  -9  -6    0.40    0.77
   8  -9  -6    0.34    0.17
   8  -9  -6   -0.03    0.16
   8  -9  -6    0.43    0.78
   8  -9  -6    0.15    0.08
   7  -9  -6    1.33    0.27
   7  -9  -6    1.38    0.39
   7  -9  -6    1.15    0.15
   7  -9  -6    1.67    0.87
   7  -9  -6    1.57    0.27
   6  -9  -6    0.26    0.16
   6  -9  -6    0.12    0.75
   6  -9  -6    0.18    0.09
   5  -9  -6    0.96    0.12
   5  -9  -6    0.47    0.83
   4  -9  -6    1.75    0.18
   4  -9  -6    1.80    0.25
   4  -9  -6    1.50    0.86
   3  -9  -6    0.36    0.13
   3  -9  -6    0.10    0.77
   2  -9  -6   13.57    1.91
   1  -9  -6   -0.40    0.92
   0  -9  -6    0.41    1.14
  -1  -9  -6    1.19    1.40
  -3  -9  -6    3.58    0.39
  -4  -9  -6    0.31    0.19
  -5  -9  -6    2.16    0.30
  -6  -9  -6   -0.03    0.14
  15 -10  -6    0.66    0.14
  14 -10  -6    0.00    0.14
  13 -10  -6    0.81    0.18
  12 -10  -6    1.10    0.20
  11 -10  -6    0.28    0.17
  11 -10  -6    0.08    0.07
  10 -10  -6    2.10    0.19
  10 -10  -6    2.18    0.31
  10 -10  -6    1.35    0.87
   9 -10  -6    0.21    0.17
   9 -10  -6    0.93    0.86
   9 -10  -6    0.27    0.08
   8 -10  -6    0.07    0.17
   8 -10  -6   -0.28    0.79
   8 -10  -6    0.13    0.08
   7 -10  -6   -0.09    0.71
   7 -10  -6    0.20    0.09
   7 -10  -6    0.37    0.17
   6 -10  -6    1.33    0.17
   6 -10  -6    1.32    0.23
   6 -10  -6    1.23    0.93
   5 -10  -6   -0.10    0.11
   5 -10  -6   -0.29    0.82
   4 -10  -6    1.24    0.17
   4 -10  -6    0.92    0.89
   4 -10  -6    0.98    0.17
   3 -10  -6    3.05    0.25
   3 -10  -6    2.51    0.30
   3 -10  -6    1.30    0.94
   2 -10  -6    7.46    1.69
   1 -10  -6    1.98    1.23
   0 -10  -6    1.74    1.24
  -2 -10  -6    2.05    0.32
  -3 -10  -6    0.22    0.18
  -4 -10  -6    0.03    0.17
  -5 -10  -6    1.39    0.26
  14 -11  -6    0.01    0.14
  13 -11  -6    0.42    0.16
  12 -11  -6    0.09    0.16
  11 -11  -6    1.31    0.15
  11 -11  -6    1.61    0.28
  10 -11  -6   -0.16    0.07
  10 -11  -6    0.19    0.17
   9 -11  -6    3.71    0.29
   9 -11  -6    1.81    0.99
   9 -11  -6    4.08    0.39
   8 -11  -6    0.36    0.18
   8 -11  -6    0.10    0.08
   8 -11  -6    0.17    0.86
   7 -11  -6   -0.17    0.74
   7 -11  -6   -0.06    0.09
   7 -11  -6   -0.07    0.17
   6 -11  -6    0.87    0.12
   6 -11  -6    0.58    0.92
   5 -11  -6    0.08    0.11
   5 -11  -6    0.26    0.94
   4 -11  -6    0.14    0.15
   4 -11  -6   -0.49    0.91
   4 -11  -6    0.09    0.12
   3 -11  -6   15.59    1.10
   3 -11  -6   14.70    1.12
   2 -11  -6    0.38    1.05
   2 -11  -6    1.62    0.26
   1 -11  -6    2.75    0.33
   1 -11  -6    5.19    1.59
   0 -11  -6    4.89    0.45
  -1 -11  -6    0.18    0.18
  -2 -11  -6    0.59    0.20
  -3 -11  -6    0.65    0.19
  -4 -11  -6    0.67    0.17
  14 -12  -6    0.06    0.13
  13 -12  -6    0.44    0.16
  12 -12  -6    0.82    0.18
  11 -12  -6    0.06    0.17
  11 -12  -6    0.02    0.07
  10 -12  -6   -0.05    0.07
  10 -12  -6   -0.06    0.16
   9 -12  -6    4.11    0.33
   9 -12  -6    4.51    0.42
   8 -12  -6    0.96    0.20
   8 -12  -6    0.93    0.15
   7 -12  -6    0.25    0.18
   7 -12  -6    0.03    0.81
   7 -12  -6   -0.06    0.09
   6 -12  -6    2.19    1.14
   6 -12  -6    4.04    0.31
   5 -12  -6    0.71    1.04
   5 -12  -6    1.56    0.20
   4 -12  -6    1.11    0.15
   4 -12  -6    1.07    0.18
   4 -12  -6    0.45    1.14
   3 -12  -6    1.54    0.27
   3 -12  -6    1.77    0.22
   2 -12  -6    6.46    0.57
   2 -12  -6    7.43    0.54
   1 -12  -6    0.10    0.17
   0 -12  -6    2.86    0.34
  -1 -12  -6    0.06    0.18
  -2 -12  -6    0.43    0.17
  -3 -12  -6    1.70    0.27
  13 -13  -6    0.51    0.15
  12 -13  -6    0.50    0.16
  11 -13  -6    0.50    0.17
  10 -13  -6    0.07    0.07
  10 -13  -6    0.25    0.16
   9 -13  -6    0.05    0.08
   9 -13  -6   -0.09    0.15
   8 -13  -6    1.49    0.28
   8 -13  -6    1.41    0.17
   7 -13  -6   -0.08    0.09
   6 -13  -6    0.84    0.12
   5 -13  -6    3.41    0.30
   4 -13  -6    0.20    0.19
   4 -13  -6    0.38    0.13
   3 -13  -6    0.14    0.15
   3 -13  -6   -0.02    0.13
   2 -13  -6    9.10    0.72
   2 -13  -6    9.37    0.69
   1 -13  -6    1.05    0.15
   1 -13  -6    0.99    0.19
   0 -13  -6    0.06    0.12
   0 -13  -6    0.11    0.16
  -1 -13  -6    0.08    0.16
  -2 -13  -6    0.36    0.16
  12 -14  -6    0.00    0.14
  11 -14  -6    0.08    0.14
  10 -14  -6   -0.01    0.08
  10 -14  -6    0.21    0.15
   9 -14  -6    1.56    0.15
   9 -14  -6    1.24    0.26
   8 -14  -6    0.57    0.10
   7 -14  -6    0.41    0.09
   6 -14  -6    0.01    0.09
   5 -14  -6    5.36    0.42
   4 -14  -6    2.04    0.23
   3 -14  -6    7.46    0.56
   3 -14  -6    7.25    0.58
   2 -14  -6    0.20    0.15
   2 -14  -6    0.34    0.12
   1 -14  -6    1.94    0.26
   1 -14  -6    1.31    0.19
   0 -14  -6   -0.13    0.14
   0 -14  -6    0.11    0.10
  10 -15  -6    0.19    0.14
   9 -15  -6    0.22    0.08
   8 -15  -6    0.22    0.07
   7 -15  -6    1.18    0.15
   6 -15  -6    1.17    0.14
   5 -15  -6    1.90    0.19
   4 -15  -6    0.27    0.10
   3 -15  -6    1.92    0.21
   3 -15  -6    2.16    0.24
   2 -15  -6    0.00    0.10
   2 -15  -6   -0.10    0.12
  -2  19  -7    0.12    0.14
  -3  19  -7    0.14    0.12
  -4  19  -7    0.11    0.12
  -5  19  -7    0.51    0.13
   1  18  -7    0.20    0.10
   0  18  -7    0.12    0.11
  -1  18  -7    0.98    0.23
  -2  18  -7    1.87    0.27
  -3  18  -7    0.35    0.14
  -4  18  -7    0.71    0.16
  -5  18  -7    0.53    0.15
  -6  18  -7    1.04    0.25
   8 -18   7    2.03    0.19
   4  17  -7    0.03    0.07
   4  17  -7    0.18    0.09
   3  17  -7    0.01    0.06
   3  17  -7    0.17    0.10
   2  17  -7    1.38    0.21
   1  17  -7    0.08    0.12
   0  17  -7    0.09    0.12
  -1  17  -7    1.44    0.24
  -2  17  -7    1.60    0.27
  -3  17  -7    0.09    0.14
  -4  17  -7    3.12    0.35
  -5  17  -7    0.56    0.17
  -6  17  -7    1.10    0.29
  -8  17  -7    2.24    0.58
   8 -17   7    1.95    0.19
  -9  17  -7    0.35    0.33
   9 -17   7    0.39    0.09
   5  16  -7    0.30    0.10
   5  16  -7    0.10    0.08
   4  16  -7    0.07    0.08
   4  16  -7    0.26    0.11
   3  16  -7    3.64    0.31
   3  16  -7    2.74    0.39
   2  16  -7   -0.01    0.08
   2  16  -7    0.16    0.12
   1  16  -7    0.08    0.07
   1  16  -7    0.19    0.13
   0  16  -7   -0.09    0.12
  -1  16  -7    0.10    0.13
  -2  16  -7    0.41    0.14
  -3  16  -7    0.04    0.15
  -4  16  -7    1.52    0.28
  -5  16  -7    0.24    0.16
  -6  16  -7   -0.22    0.16
  -7  16  -7    1.13    0.30
  -7  16  -7    1.15    0.38
  -8  16  -7   -0.23    0.33
   8 -16   7   -0.15    0.09
  -9  16  -7   -0.13    0.34
   9 -16   7    0.01    0.09
 -10  16  -7    0.18    0.33
  10 -16   7    0.52    0.09
   7  15  -7   -0.06    0.08
   7  15  -7   -0.06    0.10
   6  15  -7    1.19    0.20
   6  15  -7    0.47    0.11
   5  15  -7    0.31    0.13
   5  15  -7    0.13    0.10
   4  15  -7    1.06    0.22
   4  15  -7    0.38    0.11
   3  15  -7    1.09    0.23
   2  15  -7    0.30    0.13
   2  15  -7    0.20    0.09
   1  15  -7    0.05    0.08
   1  15  -7   -0.02    0.12
   1  15  -7   -0.01    0.91
   0  15  -7    0.36    0.13
   0  15  -7    0.06    0.79
   0  15  -7    0.08    0.07
  -1  15  -7    0.24    0.76
  -1  15  -7    0.10    0.13
  -2  15  -7    4.05    0.38
  -2  15  -7    3.24    1.16
  -3  15  -7    0.69    0.89
  -3  15  -7    0.33    0.15
  -4  15  -7   -0.17    0.15
  -4  15  -7   -0.54    0.81
  -5  15  -7    0.31    0.17
  -5  15  -7    0.48    0.87
  -6  15  -7    0.89    0.20
  -6  15  -7    0.83    0.36
  -7  15  -7   -0.64    0.33
  -7  15  -7   -0.04    0.18
  -8  15  -7   -0.06    0.35
  -9  15  -7   -0.61    0.35
   9 -15   7   -0.01    0.09
 -10  15  -7   -0.04    0.33
  10 -15   7    0.35    0.10
 -11  15  -7   -0.30    0.32
   8  14  -7    0.00    0.07
   8  14  -7   -0.01    0.11
   7  14  -7    0.08    0.08
   6  14  -7   -0.08    0.09
   5  14  -7   -0.15    0.09
   5  14  -7    0.02    0.13
   4  14  -7    1.10    0.24
   3  14  -7    0.22    0.67
   3  14  -7    0.91    0.23
   3  14  -7    0.29    0.09
   2  14  -7    0.01    0.09
   2  14  -7   -0.07    0.13
   2  14  -7   -0.14    0.68
   1  14  -7    1.57    0.23
   1  14  -7    1.23    0.28
   1  14  -7   -0.08    0.66
   0  14  -7    3.17    0.29
   0  14  -7    2.43    0.29
   0  14  -7    2.98    1.12
  -1  14  -7    0.61    0.77
  -1  14  -7    1.11    0.22
  -2  14  -7    0.60    0.15
  -2  14  -7    0.12    0.72
  -3  14  -7   -0.16    0.14
  -3  14  -7    0.07    0.84
  -4  14  -7    0.42    0.90
  -4  14  -7   -0.13    0.16
  -5  14  -7    0.22    0.48
  -5  14  -7   -0.13    0.17
  -5  14  -7    0.00    0.83
  -6  14  -7    2.50    1.17
  -6  14  -7    3.03    0.51
  -6  14  -7    2.02    0.37
  -7  14  -7    0.11    1.01
  -7  14  -7    0.02    0.20
  -7  14  -7    0.27    0.34
  -8  14  -7    0.15    0.35
  -9  14  -7   -0.23    0.34
   9 -14   7   -0.09    0.09
 -10  14  -7    0.68    0.36
  10 -14   7    0.84    0.12
 -11  14  -7    0.86    0.35
   9  13  -7    1.03    0.22
   8  13  -7   -0.08    0.07
   7  13  -7   -0.12    0.08
   6  13  -7   -0.10    0.08
   5  13  -7   -0.13    0.08
   4  13  -7   -0.05    0.09
   4  13  -7   -0.06    0.57
   3  13  -7    0.12    0.08
   3  13  -7    0.36    0.64
   2  13  -7    0.46    0.09
   2  13  -7    0.40    0.63
   1  13  -7    0.26    0.08
   1  13  -7    0.48    0.12
   1  13  -7   -0.08    0.60
   0  13  -7    4.75    0.37
   0  13  -7    3.08    1.06
   0  13  -7    3.86    0.39
  -1  13  -7    0.14    0.71
  -1  13  -7    0.21    0.12
  -2  13  -7    0.35    0.13
  -2  13  -7    0.18    0.70
  -3  13  -7   -0.06    0.13
  -3  13  -7    0.44    0.83
  -4  13  -7    4.04    1.30
  -4  13  -7    2.97    0.37
  -5  13  -7    0.27    0.88
  -5  13  -7   -0.07    0.17
  -5  13  -7   -0.11    0.30
  -6  13  -7    1.24    0.33
  -6  13  -7    0.98    0.22
  -6  13  -7    1.62    1.08
  -7  13  -7    0.87    0.34
  -7  13  -7    0.61    0.23
  -7  13  -7    0.75    1.15
  -8  13  -7    0.15    0.34
  -9  13  -7    0.37    0.35
   9 -13   7    0.59    0.11
 -10  13  -7    1.26    0.39
  10 -13   7    1.60    0.20
 -11  13  -7   -0.08    0.34
 -12  13  -7   -0.09    0.35
  10  12  -7    0.86    0.20
   9  12  -7   -0.06    0.07
   8  12  -7   -0.11    0.08
   7  12  -7   -0.08    0.09
   6  12  -7    0.33    0.10
   5  12  -7   -0.03    0.08
   4  12  -7    1.80    0.27
   4  12  -7    0.18    0.59
   3  12  -7    0.58    0.57
   2  12  -7    0.56    0.60
   2  12  -7    1.40    0.24
   1  12  -7    0.44    0.65
   1  12  -7    1.13    0.21
   1  12  -7    1.90    0.26
   0  12  -7    0.13    0.11
   0  12  -7    0.45    0.67
  -1  12  -7   -0.04    0.65
  -1  12  -7   -0.03    0.11
  -2  12  -7    0.01    0.11
  -2  12  -7    0.16    0.66
  -3  12  -7    6.29    1.28
  -3  12  -7    3.87    0.39
  -4  12  -7    9.15    0.73
  -5  12  -7    0.34    0.18
  -5  12  -7    0.19    0.89
  -5  12  -7    0.20    0.27
  -6  12  -7    0.21    0.21
  -6  12  -7    0.24    0.97
  -6  12  -7    0.58    0.29
  -7  12  -7    0.37    0.31
  -7  12  -7   -0.01    1.16
  -7  12  -7    0.12    0.23
  -8  12  -7    0.95    0.34
  -9  12  -7    3.91    0.59
   9 -12   7    4.10    0.34
 -10  12  -7   -0.20    0.36
 -11  12  -7    1.18    0.38
 -12  12  -7    0.79    0.38
  10  11  -7    0.17    0.08
   9  11  -7   -0.03    0.11
   9  11  -7    0.21    0.09
   8  11  -7    0.05    0.09
   8  11  -7   -0.05    0.11
   7  11  -7    2.59    0.33
   7  11  -7    2.13    0.37
   6  11  -7    1.68    0.34
   6  11  -7    1.53    0.30
   5  11  -7    0.16    0.58
   5  11  -7    1.13    0.27
   5  11  -7    1.56    0.32
   4  11  -7    2.22    0.32
   4  11  -7    0.66    0.59
   4  11  -7    2.14    0.27
   3  11  -7    8.73    0.66
   2  11  -7    3.09    0.29
   2  11  -7    2.25    0.79
   1  11  -7   24.98    1.79
   1  11  -7   24.79    2.20
   0  11  -7    1.24    0.65
  -1  11  -7    5.84    1.09
  -2  11  -7    9.36    1.83
  -2  11  -7    8.30    1.25
  -3  11  -7    1.29    0.82
  -3  11  -7    0.97    0.97
  -3  11  -7    0.96    0.17
  -4  11  -7    3.54    0.44
  -4  11  -7    6.65    1.53
  -4  11  -7    2.69    0.38
  -4  11  -7    4.22    1.18
  -5  11  -7    7.68    1.48
  -5  11  -7    6.22    0.61
  -5  11  -7    7.80    0.64
  -6  11  -7    0.41    0.21
  -6  11  -7    0.58    0.27
  -6  11  -7    0.12    0.90
   6 -11   7    0.00    0.36
  -7  11  -7    0.38    0.24
  -7  11  -7    0.04    0.30
  -8  11  -7   -0.57    1.35
  -8  11  -7    0.26    0.32
  -9  11  -7    0.26    1.48
  -9  11  -7    0.10    0.34
   9 -11   7    0.01    0.11
 -10  11  -7    1.54    0.40
 -11  11  -7    0.28    0.37
 -12  11  -7    2.80    0.62
  11  10  -7    0.76    0.23
  10  10  -7    1.51    0.29
   9  10  -7    0.20    0.12
   9  10  -7    0.21    0.09
   8  10  -7    0.15    0.09
   8  10  -7    0.13    0.12
   7  10  -7    0.08    0.09
   7  10  -7    0.09    0.11
   6  10  -7    0.11    0.11
   6  10  -7    0.01    0.09
   5  10  -7   13.77    1.01
   5  10  -7   13.07    0.99
   4  10  -7   -0.05    0.07
   4  10  -7    0.14    0.09
   4  10  -7   -0.07    0.49
   3  10  -7    3.06    0.32
   3  10  -7    2.26    0.72
   2  10  -7    2.43    0.70
   2  10  -7    3.04    0.31
   1  10  -7    3.26    0.82
   0  10  -7    4.01    0.92
  -1  10  -7    3.48    1.14
  -1  10  -7    3.32    0.91
  -2  10  -7    0.22    0.65
  -2  10  -7    0.66    0.91
  -3  10  -7    1.24    0.79
  -3  10  -7    2.42    1.04
  -4  10  -7    6.53    1.29
  -4  10  -7    6.88    1.47
  -5  10  -7    5.80    1.35
  -5  10  -7    5.85    0.55
  -5  10  -7    5.71    0.54
  -6  10  -7    0.31    0.24
  -6  10  -7    0.08    1.06
  -6  10  -7    0.28    0.21
  -7  10  -7   -0.37    0.27
  -8  10  -7    7.73    0.74
  -8  10  -7    8.16    2.11
  -9  10  -7    3.54    1.71
  -9  10  -7    2.35    0.53
   9 -10   7    2.77    0.26
 -10  10  -7    2.25    0.44
 -11  10  -7    5.14    0.70
 -12  10  -7    0.12    0.41
 -13  10  -7    1.94    0.47
  12   9  -7    0.08    0.07
  11   9  -7    0.05    0.08
  10   9  -7    0.05    0.09
  10   9  -7   -0.09    0.12
   9   9  -7    1.47    0.35
   9   9  -7    1.79    0.29
   8   9  -7    0.23    0.12
   8   9  -7    0.14    0.09
   7   9  -7   -0.01    0.08
   7   9  -7    0.04    0.11
   6   9  -7    0.04    0.10
   6   9  -7   -0.12    0.07
   5   9  -7    2.41    0.28
   4   9  -7   18.86    1.37
   3   9  -7   22.01    1.59
   2   9  -7    1.54    0.23
   2   9  -7    1.11    0.51
   1   9  -7   17.01    1.23
   0   9  -7   -0.19    0.51
   0   9  -7   -0.38    0.85
  -1   9  -7    0.94    0.88
  -1   9  -7    0.32    0.53
  -2   9  -7    1.39    0.73
  -2   9  -7    1.75    0.93
  -3   9  -7    4.47    1.28
  -3   9  -7    3.31    1.04
  -4   9  -7   11.74    1.58
  -5   9  -7   13.49    1.79
  -6   9  -7    0.24    0.24
  -6   9  -7    0.29    0.21
  -6   9  -7    0.21    0.11
  -7   9  -7    1.96    1.45
  -7   9  -7    3.42    0.47
  -7   9  -7    3.26    0.28
  -8   9  -7    0.52    0.13
  -8   9  -7    1.86    1.50
  -8   9  -7    0.70    0.32
  -9   9  -7    1.21    0.16
  -9   9  -7    1.06    0.37
  -9   9  -7    1.53    1.59
 -10   9  -7    1.09    0.20
 -10   9  -7    1.01    0.40
 -11   9  -7    0.78    0.43
 -12   9  -7    6.62    0.82
 -13   9  -7    0.57    0.44
  12   8  -7    0.28    0.08
  12   8  -7   -0.13    0.10
  11   8  -7    3.81    0.35
  11   8  -7    2.61    0.40
  10   8  -7    0.92    0.27
   9   8  -7    0.06    0.08
   9   8  -7    0.06    0.11
   8   8  -7    0.21    0.08
   8   8  -7    0.20    0.11
   7   8  -7    2.88    0.32
   7   8  -7    3.58    0.37
   6   8  -7   11.84    0.81
   6   8  -7    9.14    0.78
  -6  -8   7   12.64    2.37
   5   8  -7    0.62    0.22
   4   8  -7    8.86    0.67
   3   8  -7    3.26    0.32
   2   8  -7    4.14    0.36
   1   8  -7    0.95    0.21
   1   8  -7    0.42    0.91
   0   8  -7    3.70    1.08
   0   8  -7    3.01    0.75
  -1   8  -7    0.10    0.55
  -1   8  -7    0.44    0.87
  -2   8  -7    0.69    0.77
  -2   8  -7    0.10    0.61
  -3   8  -7    7.06    1.20
  -4   8  -7    3.77    1.11
  -5   8  -7    0.42    0.08
  -6   8  -7   11.80    0.95
  -6   8  -7   10.26    0.95
  -6   8  -7   13.22    2.16
  -6   8  -7   13.70    0.88
  -7   8  -7    1.05    0.17
  -7   8  -7    0.58    0.28
  -7   8  -7    0.51    1.29
  -8   8  -7    0.24    0.32
  -8   8  -7    0.85    1.50
  -8   8  -7    0.29    0.13
  -9   8  -7    2.22    0.25
  -9   8  -7    2.22    0.43
  -9   8  -7    1.24    1.66
 -10   8  -7    5.48    0.73
 -10   8  -7    5.03    0.42
 -11   8  -7    1.09    0.47
 -11   8  -7    0.71    0.15
 -12   8  -7    1.57    0.20
 -12   8  -7    2.73    0.70
  13   7  -7    1.07    0.23
  12   7  -7    2.07    0.29
  11   7  -7    1.31    0.26
  10   7  -7    3.46    0.41
  10   7  -7    3.72    0.35
   9   7  -7    4.54    0.48
   9   7  -7    5.34    0.42
   8   7  -7    0.01    0.10
   8   7  -7   -0.03    0.06
   7   7  -7    0.11    0.06
   7   7  -7    0.28    0.09
   6   7  -7    0.40    0.09
  -6  -7   7    0.62    0.58
   5   7  -7    4.21    0.38
   4   7  -7   16.08    1.17
   3   7  -7    1.33    0.21
  -3  -7   7    0.66    0.54
   2   7  -7    0.36    0.88
   2   7  -7    0.01    0.06
  -2  -7   7   -0.56    0.32
   1   7  -7    1.35    0.92
  -1  -7   7    0.46    0.33
   0   7  -7    0.19    0.81
   0  -7   7   -0.03    0.33
  -1   7  -7    0.92    0.58
  -1   7  -7    0.74    0.84
  -2   7  -7    0.16    0.63
  -3   7  -7    5.34    1.10
  -4   7  -7    4.62    0.35
  -5   7  -7   59.68    4.41
  -5   7  -7   66.01    5.30
  -6   7  -7    5.10    0.38
  -6   7  -7    5.92    1.75
  -6   7  -7    4.24    0.63
  -7   7  -7    0.99    1.42
  -7   7  -7    1.02    0.30
  -7   7  -7    0.94    0.14
  -8   7  -7    3.96    1.88
  -8   7  -7    3.56    0.62
  -8   7  -7    3.99    0.34
  -9   7  -7    1.57    1.73
  -9   7  -7    0.84    0.17
  -9   7  -7    1.00    0.40
 -10   7  -7    5.17    0.43
 -10   7  -7    5.18    0.76
 -10   7  -7    4.13    2.47
 -11   7  -7   10.11    1.03
 -11   7  -7   10.56    0.77
 -12   7  -7    2.29    0.24
  13   6  -7    2.93    0.31
  12   6  -7    0.69    0.21
  11   6  -7    1.01    0.33
  11   6  -7    1.49    0.23
  10   6  -7    6.45    0.61
  10   6  -7    7.17    0.54
   9   6  -7    8.23    0.62
   9   6  -7    7.89    0.67
   8   6  -7   -0.08    0.10
   8   6  -7   -0.07    0.06
  -7  -6   7    0.39    0.49
  -6  -6   7    2.21    0.63
   5   6  -7   16.94    1.24
   4   6  -7    8.48    0.65
   3   6  -7    7.57    0.58
   2   6  -7   10.44    1.63
   1   6  -7    2.97    0.98
   0   6  -7    5.47    1.27
   0  -6   7    4.44    0.76
  -1   6  -7   10.53    1.19
   1  -6   7   11.68    1.23
  -3   6  -7    8.81    0.64
  -4   6  -7    9.54    0.68
  -4   6  -7    8.82    1.71
  -5   6  -7   31.00    2.91
  -5   6  -7   24.74    1.88
  -6   6  -7    7.58    0.56
  -6   6  -7    6.45    1.80
  -7   6  -7    3.63    0.56
  -7   6  -7    4.81    1.77
  -7   6  -7    3.89    0.33
  -8   6  -7   14.10    2.75
  -8   6  -7   18.87    1.40
  -8   6  -7   17.43    1.27
  -9   6  -7    1.31    0.19
  -9   6  -7    1.84    0.46
  -9   6  -7    2.68    1.99
 -10   6  -7    3.35    0.72
 -10   6  -7    2.75    0.30
 -10   6  -7    1.96    2.95
 -11   6  -7    5.24    0.43
 -12   6  -7    4.42    0.37
  14   5  -7    0.15    0.07
  13   5  -7    0.02    0.09
  13   5  -7    0.13    0.06
  12   5  -7    0.10    0.06
  12   5  -7    0.02    0.11
  11   5  -7    0.15    0.12
  11   5  -7    0.69    0.19
  10   5  -7    1.32    0.21
   9   5  -7    0.71    0.18
   8   5  -7    0.18    0.06
  -8  -5   7    0.47    0.56
   7   5  -7   -0.02    0.06
  -7  -5   7    0.16    0.41
  -6  -5   7    0.62    0.43
   3   5  -7    4.37    1.43
   2   5  -7   26.69    2.46
   1   5  -7    2.16    0.79
   1  -5   7    3.43    0.76
  -2   5  -7  155.28   11.14
   2  -5   7  147.76   11.31
  -3   5  -7   32.65    2.58
  -3   5  -7   42.82    3.27
  -4   5  -7    3.85    1.30
  -4   5  -7    2.74    0.24
  -5   5  -7    0.56    1.23
  -5   5  -7    1.44    0.15
  -5   5  -7    1.77    0.17
  -6   5  -7   18.22    1.33
  -6   5  -7   18.54    1.32
  -6   5  -7   19.18    2.62
  -7   5  -7    1.82    0.19
  -7   5  -7    2.56    0.53
  -7   5  -7    2.24    1.70
  -7   5  -7    1.54    0.22
  -8   5  -7   12.16    0.93
  -8   5  -7   12.37    0.94
  -8   5  -7   12.55    2.73
  -8   5  -7   14.74    1.13
  -9   5  -7    0.72    1.81
  -9   5  -7   -0.12    0.16
  -9   5  -7    0.10    0.46
 -10   5  -7    0.29    0.16
 -11   5  -7    0.29    0.15
 -12   5  -7    1.85    0.22
  14   4  -7    1.61    0.21
  13   4  -7    0.90    0.31
  13   4  -7    0.81    0.19
  12   4  -7   10.36    0.82
  12   4  -7   10.12    0.76
  11   4  -7    9.23    0.69
  10   4  -7    1.67    0.22
   9   4  -7   11.59    0.84
   9   4  -7   11.57    0.85
   8   4  -7    0.10    0.07
  -8  -4   7    0.32    0.46
  -7  -4   7    5.54    0.99
   3   4  -7    7.29    1.30
   2   4  -7    0.72    0.68
  -1   4  -7    0.62    0.65
   1  -4   7    0.62    0.38
  -2   4  -7   20.73    2.03
   2  -4   7   20.95    1.96
  -3   4  -7    5.10    1.40
  -3   4  -7    5.78    0.43
  -4   4  -7    2.27    1.27
  -4   4  -7    1.94    0.20
  -5   4  -7    1.26    0.16
  -5   4  -7    0.85    0.13
  -5   4  -7    0.69    1.27
  -6   4  -7   15.38    2.41
  -6   4  -7   12.38    0.88
  -6   4  -7   11.60    0.89
  -7   4  -7    0.46    0.39
  -7   4  -7    0.13    0.13
  -7   4  -7    0.10    0.09
  -7   4  -7    0.64    1.57
  -8   4  -7    0.68    0.12
  -8   4  -7    0.72    0.16
  -8   4  -7    1.96    2.08
  -8   4  -7    0.55    0.57
  -9   4  -7    4.50    0.36
  -9   4  -7    2.22    2.12
  -9   4  -7    4.58    0.39
 -10   4  -7    0.22    0.16
 -10   4  -7   -0.02    0.10
 -11   4  -7    0.57    0.16
 -12   4  -7    1.76    0.22
  15   3  -7    0.58    0.16
  14   3  -7    1.47    0.20
  14   3  -7    1.40    0.30
  13   3  -7    0.01    0.06
  13   3  -7    0.04    0.10
  12   3  -7    1.84    0.24
  11   3  -7    0.76    0.15
  10   3  -7    0.23    0.06
  10   3  -7    0.59    0.13
   9   3  -7    0.18    0.07
   9   3  -7    0.03    0.05
  -9  -3   7   -0.22    0.81
   8   3  -7    1.16    0.13
  -8  -3   7    1.02    0.49
  -7  -3   7    6.11    0.95
   3   3  -7    0.26    0.64
   2   3  -7   12.10    1.38
  -1   3  -7    1.15    0.75
   1  -3   7    2.20    0.70
  -2   3  -7   22.31    2.20
  -3   3  -7    0.91    1.11
  -3   3  -7    0.75    0.10
  -4   3  -7   14.02    1.02
  -4   3  -7   13.75    1.03
  -4   3  -7   17.84    2.16
  -5   3  -7   16.67    2.33
  -5   3  -7   14.83    1.12
  -5   3  -7   15.95    1.11
  -6   3  -7    9.10    0.63
  -6   3  -7    8.12    2.15
  -6   3  -7    8.22    0.64
  -7   3  -7   10.69    0.83
  -7   3  -7   11.79    0.82
  -7   3  -7   11.01    2.58
  -8   3  -7    8.08    0.62
  -8   3  -7    8.83    0.61
  -8   3  -7    3.12    2.12
  -9   3  -7   13.52    0.98
  -9   3  -7   13.64    1.00
 -10   3  -7    1.26    0.19
 -10   3  -7    1.08    0.14
 -11   3  -7    0.92    0.12
 -11   3  -7    1.07    0.17
 -12   3  -7    0.46    0.13
  15   2  -7    0.16    0.05
  14   2  -7    3.31    0.33
  14   2  -7    4.35    0.39
  13   2  -7   13.32    0.98
  12   2  -7    0.09    0.09
  12   2  -7    0.05    0.06
  11   2  -7    0.63    0.18
  11   2  -7    0.63    0.14
  10   2  -7    0.80    0.17
  10   2  -7    0.77    0.13
   9   2  -7    1.18    0.14
  -9  -2   7    0.77    0.51
   8   2  -7    0.09    0.07
  -8  -2   7   -0.01    0.36
  -7  -2   7    2.87    0.74
   3   2  -7    2.92    0.92
   0  -2   7   62.36    4.61
  -1   2  -7    0.47    0.84
   1  -2   7    1.23    0.41
  -2   2  -7   15.27    1.91
  -3   2  -7   14.48    1.94
  -3   2  -7   11.55    0.87
  -4   2  -7    1.34    0.16
  -4   2  -7    1.10    0.15
  -4   2  -7    0.97    1.35
  -5   2  -7    4.44    0.35
  -5   2  -7    4.43    0.34
  -5   2  -7    4.42    1.68
  -6   2  -7    2.18    0.22
  -6   2  -7    2.53    0.24
  -6   2  -7    1.61    1.60
  -7   2  -7    1.96    0.24
  -7   2  -7    2.19    0.22
  -7   2  -7    1.08    1.91
  -8   2  -7    0.73    0.16
  -8   2  -7    0.60    0.13
  -8   2  -7    1.27    1.97
  -9   2  -7    5.40    0.42
  -9   2  -7    4.97    0.44
  -9   2  -7   11.26    4.73
 -10   2  -7    0.20    0.11
 -10   2  -7    0.01    0.16
 -11   2  -7    2.37    0.27
 -11   2  -7    2.47    0.23
 -12   2  -7    0.63    0.14
 -12   2  -7    0.88    0.13
  15   1  -7    0.04    0.05
  14   1  -7    7.93    0.60
  13   1  -7    6.98    0.53
  13   1  -7    7.20    0.55
  12   1  -7    0.21    0.10
  12   1  -7    0.15    0.06
  11   1  -7    0.51    0.10
  11   1  -7    0.19    0.06
  10   1  -7    0.57    0.09
  10   1  -7    0.21    0.05
   9   1  -7    0.78    0.12
  -9  -1   7    0.50    0.45
  -8  -1   7   11.92    1.32
  -7  -1   7   -0.04    0.31
   3   1  -7   21.37    1.85
  -1   1  -7    4.05    1.28
  -2   1  -7   -0.74    1.00
  -3   1  -7   14.20    1.02
  -3   1  -7   14.26    1.02
  -3   1  -7   13.80    2.02
  -4   1  -7    7.30    1.82
  -4   1  -7    7.82    0.58
  -4   1  -7    8.24    0.59
  -5   1  -7    9.03    2.16
  -5   1  -7   11.63    0.84
  -5   1  -7   11.83    0.83
  -6   1  -7    8.85    0.65
  -6   1  -7    7.02    2.24
  -6   1  -7    9.06    0.66
  -7   1  -7    0.50    0.12
  -7   1  -7    0.40    0.14
  -7   1  -7    0.61    1.74
  -8   1  -7    0.27    0.12
  -8   1  -7    0.52    2.53
  -8   1  -7    0.09    0.15
  -9   1  -7    3.52    0.35
  -9   1  -7    3.94    0.32
 -10   1  -7   -0.03    0.11
 -10   1  -7    0.02    0.15
 -11   1  -7    1.75    0.19
 -11   1  -7    1.31    0.23
 -12   1  -7    0.17    0.14
  15   0  -7    1.69    0.21
  14   0  -7    2.16    0.23
  14   0  -7    2.77    0.26
  13   0  -7    9.49    0.72
  13   0  -7    9.60    0.70
  12   0  -7    2.79    0.26
  12   0  -7    3.08    0.29
  11   0  -7    0.19    0.09
  11   0  -7    0.12    0.05
  11   0  -7    0.53    0.45
  10   0  -7    0.52    0.16
  10   0  -7    0.35    0.09
  10   0  -7    0.54    0.46
   9   0  -7    0.12    0.08
  -9   0   7    0.09    0.41
  -8   0   7    0.60    0.41
  -7   0   7    9.60    1.12
   4   0  -7   14.62    1.40
   3   0  -7    0.49    0.47
  -1   0   7    8.87    1.00
   0   0  -7    5.61    1.24
  -1   0  -7   10.49    1.93
  -2   0  -7    3.65    1.58
  -2   0  -7    3.23    0.31
  -3   0  -7    0.08    0.08
  -3   0  -7    0.36    1.45
  -3   0  -7    0.05    0.09
  -4   0  -7    1.19    1.63
  -4   0  -7    1.53    0.16
  -4   0  -7    1.15    0.17
  -5   0  -7    0.43    0.11
  -5   0  -7    1.25    1.80
  -6   0  -7    4.82    0.38
  -6   0  -7    4.57    2.34
  -6   0  -7    4.78    0.39
  -7   0  -7   11.16    0.77
  -7   0  -7   10.62    0.78
  -7   0  -7    4.03    2.70
  -8   0  -7   -1.61    2.67
  -8   0  -7    0.18    0.13
  -8   0  -7    0.02    0.15
  -9   0  -7    0.49    0.16
  -9   0  -7    0.49    0.12
 -10   0  -7    2.28    0.21
 -10   0  -7    1.28    0.20
 -11   0  -7   -0.05    0.10
 -11   0  -7    0.07    0.14
  16  -1  -7    1.40    0.18
  15  -1  -7   -0.12    0.09
  15  -1  -7    0.10    0.05
  14  -1  -7    3.49    0.32
  14  -1  -7    3.38    0.29
  13  -1  -7    8.67    0.63
  13  -1  -7    8.40    0.65
  12  -1  -7    3.02    0.68
  12  -1  -7    2.01    0.21
  12  -1  -7    2.07    0.24
  11  -1  -7    1.49    0.19
  11  -1  -7    2.23    0.68
  11  -1  -7    1.55    0.22
  10  -1  -7    6.70    0.51
  10  -1  -7    6.66    0.52
   9  -1  -7    0.96    0.15
   9  -1  -7    0.87    0.45
  -9   1   7    0.17    0.44
  -8   1   7   15.02    1.52
  -7   1   7    3.61    0.81
  -6   1   7    5.78    0.87
   3  -1  -7    1.35    0.46
  -2   1   7    2.69    0.96
   1  -1  -7   16.96    1.49
  -1   1   7   11.98    1.41
   0  -1  -7    3.22    1.12
  -1  -1  -7    0.37    1.33
  -2  -1  -7    1.59    1.54
  -2  -1  -7    0.97    0.13
  -2  -1  -7    1.46    0.15
  -3  -1  -7    0.26    0.09
  -3  -1  -7    0.20    0.08
  -3  -1  -7    0.27    1.57
  -4  -1  -7    4.04    0.32
  -4  -1  -7    3.98    0.32
  -4  -1  -7    3.57    1.91
  -5  -1  -7    0.19    0.11
  -5  -1  -7   -0.47    1.84
  -6  -1  -7    0.18    2.22
  -6  -1  -7    0.17    0.11
  -6  -1  -7    0.04    0.13
  -7  -1  -7   10.13    0.75
  -7  -1  -7   10.16    0.76
  -8  -1  -7    2.78    0.28
  -8  -1  -7    2.60    0.29
  -9  -1  -7   -0.06    0.12
  -9  -1  -7   -0.19    0.15
 -10  -1  -7    0.20    0.11
 -10  -1  -7   -0.07    0.15
 -11  -1  -7    0.07    0.10
  16  -2  -7    1.45    0.19
  15  -2  -7    4.88    0.40
  15  -2  -7    5.39    0.42
  14  -2  -7    0.05    0.05
  14  -2  -7   -0.05    0.09
  13  -2  -7    0.00    0.09
  13  -2  -7   -0.06    0.05
  12  -2  -7    3.89    0.77
  12  -2  -7    2.36    0.28
  12  -2  -7    2.66    0.25
  11  -2  -7    0.20    0.13
  11  -2  -7    0.67    0.58
  11  -2  -7    0.23    0.11
  10  -2  -7    0.13    0.12
  10  -2  -7    0.28    0.44
  10  -2  -7   -0.01    0.09
   9  -2  -7    2.76    0.23
   9  -2  -7    2.33    0.70
  -9   2   7    1.73    0.57
   8  -2  -7   12.09    1.23
  -8   2   7   12.39    1.36
  -7   2   7   33.88    2.73
  -6   2   7   68.28    5.07
  -5   2   7   92.67    6.74
   4  -2  -7    0.94    0.47
  -4   2   7    0.97    0.45
   3  -2  -7   11.88    1.08
  -3   2   7    8.49    1.49
   2  -2  -7    6.00    0.89
  -1   2   7    4.21    1.05
   0  -2  -7   -0.02    1.02
   0   2   7    0.33    0.52
  -1  -2  -7   -0.15    1.32
  -2  -2  -7   48.72    3.38
  -2  -2  -7   46.51    3.38
  -3  -2  -7    0.86    1.65
  -3  -2  -7    1.85    0.20
  -3  -2  -7    2.32    0.19
  -4  -2  -7    0.02    1.78
  -4  -2  -7    1.93    0.18
  -4  -2  -7    1.59    0.23
  -4  -2  -7    1.41    0.19
  -5  -2  -7    0.77    2.06
  -5  -2  -7    2.85    0.26
  -5  -2  -7    3.08    0.27
  -6  -2  -7    0.47    2.38
  -6  -2  -7    5.47    0.41
  -6  -2  -7    5.24    0.42
  -7  -2  -7   17.93    1.30
  -7  -2  -7   17.97    1.29
  -8  -2  -7   -0.07    0.11
  -8  -2  -7    0.17    0.15
  -9  -2  -7   -0.04    0.15
  -9  -2  -7    0.04    0.12
 -10  -2  -7   -0.15    0.10
 -10  -2  -7   -0.03    0.13
  16  -3  -7   -0.15    0.08
  16  -3  -7    0.04    0.05
  15  -3  -7    1.04    0.16
  15  -3  -7    1.24    0.19
  14  -3  -7    0.75    0.19
  14  -3  -7    0.90    0.15
  13  -3  -7    2.40    0.77
  12  -3  -7    0.76    0.13
  12  -3  -7    1.05    0.21
  12  -3  -7    1.34    0.67
  11  -3  -7    2.35    0.27
  11  -3  -7    2.03    0.23
  11  -3  -7    2.40    0.77
  10  -3  -7    0.32    0.14
  10  -3  -7    0.62    0.55
  10  -3  -7    0.41    0.11
   9  -3  -7    3.65    0.81
   9  -3  -7    3.40    0.29
   8  -3  -7    4.47    0.81
   8  -3  -7    4.81    0.36
  -8   3   7    2.73    0.93
   7  -3  -7   69.14    5.89
  -7   3   7   90.05    5.94
   6  -3  -7   -0.04    0.43
  -6   3   7   -0.11    0.39
   5  -3  -7   12.19    1.27
  -5   3   7   12.23    1.27
   4  -3  -7    0.11    0.49
  -4   3   7    0.18    0.58
   3  -3  -7    1.17    0.54
  -3   3   7    0.44    0.72
   2  -3  -7   33.31    2.69
   1  -3  -7    6.73    1.28
  -1   3   7    4.27    1.16
   0  -3  -7    0.07    1.04
   0   3   7    0.58    0.56
  -1  -3  -7    3.97    0.30
  -1  -3  -7    2.91    1.40
  -2  -3  -7    4.11    0.31
  -2  -3  -7    2.78    1.59
  -3  -3  -7   -0.05    0.10
  -3  -3  -7   -0.23    0.13
  -3  -3  -7    0.04    0.09
  -3  -3  -7   -0.44    1.63
  -4  -3  -7    2.33    0.23
  -4  -3  -7    0.16    1.55
  -4  -3  -7    2.14    0.22
  -4  -3  -7    2.83    0.28
  -5  -3  -7    0.14    1.73
  -5  -3  -7    0.19    0.14
  -5  -3  -7    0.52    0.12
  -5  -3  -7    0.33    0.13
  -6  -3  -7    6.56    0.52
  -6  -3  -7    6.90    0.52
  -7  -3  -7    0.21    0.13
  -7  -3  -7   -0.14    0.15
  -8  -3  -7    3.95    0.33
  -8  -3  -7    3.79    0.35
  -9  -3  -7    1.54    0.21
  -9  -3  -7    1.43    0.22
 -10  -3  -7    0.21    0.10
  16  -4  -7   -0.08    0.08
  16  -4  -7    0.03    0.05
  15  -4  -7    0.76    0.18
  15  -4  -7    0.87    0.14
  14  -4  -7    0.38    0.10
  13  -4  -7    1.16    0.67
  13  -4  -7    0.08    0.11
  13  -4  -7    0.07    0.14
  12  -4  -7    2.35    0.29
  12  -4  -7    2.26    0.25
  12  -4  -7    2.69    0.86
  11  -4  -7    0.84    0.61
  11  -4  -7    0.99    0.18
  11  -4  -7    0.98    0.20
  10  -4  -7    0.05    0.56
  10  -4  -7    0.15    0.14
  10  -4  -7    0.14    0.11
   9  -4  -7    0.58    0.13
   9  -4  -7    0.60    0.53
   8  -4  -7   17.23    1.17
   8  -4  -7   16.70    1.62
  -8   4   7   13.15    1.62
   7  -4  -7   67.18    5.35
  -7   4   7   73.81    5.32
   6  -4  -7   13.70    1.43
  -6   4   7   14.65    1.47
   5  -4  -7    2.95    0.83
  -5   4   7    1.78    0.62
   4  -4  -7    9.90    1.13
  -4   4   7    7.27    1.60
   3  -4  -7   30.33    2.28
  -3   4   7   21.15    2.57
   2  -4  -7   17.94    1.72
   1  -4  -7    4.03    1.31
  -1   4   7    4.56    1.17
   0  -4  -7    2.06    0.18
   0  -4  -7    2.09    1.18
  -1  -4  -7    1.17    0.14
  -1  -4  -7    0.95    1.21
  -2  -4  -7    1.26    0.17
  -2  -4  -7    0.25    1.40
  -2  -4  -7    1.11    0.14
  -3  -4  -7    3.32    0.30
  -3  -4  -7    4.20    0.35
  -3  -4  -7    2.91    1.63
  -4  -4  -7    0.29    0.11
  -4  -4  -7    0.25    0.15
  -4  -4  -7    0.14    1.62
  -5  -4  -7    4.58    0.40
  -5  -4  -7    4.23    0.36
  -5  -4  -7    3.48    1.95
  -6  -4  -7    1.55    0.22
  -7  -4  -7    0.58    0.13
  -8  -4  -7    0.45    0.12
  -9  -4  -7    0.15    0.11
  16  -5  -7    0.12    0.08
  16  -5  -7    0.09    0.05
  15  -5  -7   -0.04    0.05
  15  -5  -7    0.01    0.09
  14  -5  -7    0.31    0.07
  14  -5  -7    0.80    0.15
  13  -5  -7    1.65    0.20
  13  -5  -7    1.62    0.25
  12  -5  -7    0.88    0.67
  12  -5  -7    0.60    0.16
  12  -5  -7    0.36    0.13
  11  -5  -7    0.16    0.60
  11  -5  -7    0.60    0.14
  11  -5  -7    0.39    0.16
  10  -5  -7    0.58    0.17
  10  -5  -7    1.04    0.19
  10  -5  -7    0.97    0.66
   9  -5  -7    3.40    0.31
   9  -5  -7    3.32    0.88
   9  -5  -7    3.42    0.34
   8  -5  -7    4.61    1.00
   8  -5  -7    4.17    0.36
   7  -5  -7    6.20    1.07
   7  -5  -7    5.99    0.47
  -7   5   7    4.30    1.14
   6  -5  -7  130.84    9.40
  -6   5   7  123.11    9.37
   5  -5  -7   19.23    1.84
   4  -5  -7    0.20    0.57
  -4   5   7   -0.88    0.78
   3  -5  -7    3.90    0.96
  -3   5   7    4.69    1.43
   2  -5  -7    1.10    0.71
   1  -5  -7    2.95    1.07
   0  -5  -7    0.04    0.11
   0  -5  -7    0.37    1.10
   0  -5  -7    0.15    0.07
  -1  -5  -7    3.72    0.29
  -1  -5  -7    3.16    1.42
  -2  -5  -7    2.13    0.26
  -2  -5  -7    1.18    1.43
  -2  -5  -7    1.91    0.19
  -3  -5  -7    3.41    0.28
  -3  -5  -7    3.46    0.34
  -3  -5  -7    1.84    1.62
  -4  -5  -7    0.62    0.11
  -4  -5  -7    0.87    0.18
  -4  -5  -7   -0.78    1.63
  -5  -5  -7    1.82    0.27
  -5  -5  -7    1.23    1.81
  -5  -5  -7    1.28    0.20
  -6  -5  -7    0.48    0.16
  -6  -5  -7    0.63    0.13
  -7  -5  -7    5.39    0.43
  -8  -5  -7    2.39    0.24
  16  -6  -7    0.87    0.16
  15  -6  -7    0.43    0.10
  15  -6  -7    0.20    0.06
  14  -6  -7    5.28    0.42
  14  -6  -7    4.58    0.39
  13  -6  -7    0.79    0.18
  13  -6  -7    0.74    0.17
  12  -6  -7    0.36    0.16
  12  -6  -7    0.36    0.60
  12  -6  -7    0.41    0.13
  11  -6  -7    2.23    0.26
  11  -6  -7    2.22    0.86
  11  -6  -7    2.14    0.30
  10  -6  -7    1.00    0.71
  10  -6  -7    0.53    0.17
  10  -6  -7    0.74    0.14
   9  -6  -7    2.31    0.83
   9  -6  -7    2.43    0.29
   9  -6  -7    2.43    0.27
   8  -6  -7    2.94    0.33
   8  -6  -7    3.39    1.02
   8  -6  -7    3.23    0.30
   7  -6  -7   15.95    1.16
   6  -6  -7   77.60    5.97
   5  -6  -7    0.69    0.70
   4  -6  -7    5.37    1.04
   3  -6  -7    1.64    0.76
   2  -6  -7    0.40    0.20
   2  -6  -7    0.92    0.76
   1  -6  -7    4.86    1.34
   1  -6  -7    3.27    0.32
   0  -6  -7    0.49    1.22
  -1  -6  -7    0.01    0.08
  -1  -6  -7    0.16    1.37
  -2  -6  -7   11.46    0.84
  -2  -6  -7   12.37    0.88
  -2  -6  -7    8.90    2.34
  -3  -6  -7    0.65    0.12
  -3  -6  -7    1.11    0.18
  -3  -6  -7   -0.50    1.59
  -4  -6  -7   -0.84    1.72
  -4  -6  -7    3.23    0.29
  -4  -6  -7    4.05    0.36
  -5  -6  -7    2.36    0.30
  -5  -6  -7    2.65    0.25
  -6  -6  -7    5.89    0.47
  -6  -6  -7    6.23    0.51
  -7  -6  -7    2.55    0.26
  -8  -6  -7    2.30    0.23
  15  -7  -7    0.14    0.06
  15  -7  -7    0.28    0.09
  14  -7  -7    0.86    0.16
  14  -7  -7    0.51    0.12
  13  -7  -7    0.11    0.12
  13  -7  -7    0.04    0.15
  12  -7  -7    0.31    0.16
  12  -7  -7    0.41    0.14
  12  -7  -7    0.49    0.69
  11  -7  -7    2.01    0.26
  11  -7  -7    1.93    0.82
  11  -7  -7    2.44    0.30
  10  -7  -7    0.38    0.66
  10  -7  -7    0.36    0.14
  10  -7  -7    0.38    0.16
   9  -7  -7    0.31    0.14
   9  -7  -7    0.28    0.15
   9  -7  -7    0.50    0.74
   8  -7  -7    0.54    0.07
   8  -7  -7    0.39    0.14
   8  -7  -7    0.30    0.15
   8  -7  -7    0.24    0.65
   7  -7  -7   18.65    1.86
   7  -7  -7   15.22    1.18
   6  -7  -7    4.54    1.14
   5  -7  -7    4.08    1.09
   4  -7  -7   12.89    1.57
   4  -7  -7   13.73    0.98
   3  -7  -7    1.92    0.83
   3  -7  -7    1.93    0.23
   2  -7  -7    3.12    0.28
   2  -7  -7    1.65    0.86
   1  -7  -7   12.90    1.00
   1  -7  -7   16.29    1.93
   0  -7  -7    0.44    1.17
  -1  -7  -7   -0.17    0.14
  -1  -7  -7   -0.47    1.39
  -2  -7  -7   -1.09    1.62
  -2  -7  -7    0.05    0.15
  -2  -7  -7    0.21    0.11
  -3  -7  -7    0.72    1.78
  -3  -7  -7    5.28    0.44
  -3  -7  -7    4.86    0.38
  -4  -7  -7    0.03    0.17
  -4  -7  -7   -0.04    0.11
  -5  -7  -7    0.53    0.17
  -5  -7  -7    0.33    0.12
  -6  -7  -7    1.86    0.22
  -6  -7  -7    1.81    0.26
  -7  -7  -7   -0.06    0.10
  15  -8  -7    0.12    0.06
  14  -8  -7    0.17    0.09
  14  -8  -7    0.08    0.14
  13  -8  -7    5.08    0.41
  13  -8  -7    4.91    0.45
  12  -8  -7    0.31    0.14
  12  -8  -7    0.21    0.16
  11  -8  -7   12.25    0.89
  11  -8  -7   11.65    0.90
  11  -8  -7   11.67    1.61
  10  -8  -7    0.06    0.14
  10  -8  -7    0.16    0.16
  10  -8  -7    0.72    0.81
   9  -8  -7    4.11    1.28
   9  -8  -7    3.42    0.34
   9  -8  -7    2.51    0.30
   9  -8  -7    3.13    0.24
   8  -8  -7    0.10    0.16
   8  -8  -7    0.08    0.15
   8  -8  -7   -0.01    0.70
   8  -8  -7    0.10    0.07
   7  -8  -7    0.09    0.07
   7  -8  -7   -0.04    0.15
   7  -8  -7   -0.15    0.14
   7  -8  -7   -0.02    0.64
   6  -8  -7    7.36    1.36
   6  -8  -7    7.85    0.57
   6  -8  -7    7.97    0.62
   5  -8  -7    7.10    1.34
   5  -8  -7    7.18    0.53
   4  -8  -7    7.60    1.32
   4  -8  -7    8.26    0.61
   4  -8  -7    7.79    0.58
   3  -8  -7    2.03    0.90
   3  -8  -7    2.20    0.25
   2  -8  -7    0.31    0.13
   2  -8  -7    0.58    0.90
   1  -8  -7   10.94    1.80
   1  -8  -7   10.05    0.77
   0  -8  -7   -0.76    1.11
   0  -8  -7    0.30    0.14
  -1  -8  -7    0.62    1.37
  -2  -8  -7   -1.57    1.43
  -2  -8  -7    0.50    0.17
  -3  -8  -7    0.15    0.17
  -4  -8  -7    0.07    0.17
  -5  -8  -7    1.13    0.18
  -5  -8  -7    0.62    0.14
  -6  -8  -7    0.17    0.14
  -6  -8  -7    0.02    0.12
  15  -9  -7    0.00    0.12
  14  -9  -7    0.50    0.15
  13  -9  -7    0.49    0.17
  12  -9  -7    0.56    0.17
  12  -9  -7    0.34    0.13
  11  -9  -7    5.63    0.49
  11  -9  -7    6.56    0.52
  11  -9  -7    6.50    1.31
  10  -9  -7    2.56    0.99
  10  -9  -7    2.30    0.29
  10  -9  -7    3.06    0.32
   9  -9  -7    1.19    0.25
   9  -9  -7    0.82    0.17
   9  -9  -7    0.69    0.91
   9  -9  -7    1.12    0.13
   8  -9  -7    0.66    0.17
   8  -9  -7    1.26    0.25
   8  -9  -7   -0.05    0.77
   8  -9  -7    0.64    0.10
   7  -9  -7    0.72    0.78
   7  -9  -7    0.99    0.19
   7  -9  -7    0.81    0.10
   7  -9  -7    0.94    0.19
   6  -9  -7    0.35    0.09
   6  -9  -7    0.42    0.19
   6  -9  -7    0.86    0.86
   5  -9  -7    0.16    0.81
   5  -9  -7    0.46    0.11
   4  -9  -7    0.83    0.16
   4  -9  -7    1.03    0.16
   4  -9  -7    0.99    0.85
   3  -9  -7   -0.51    0.78
   3  -9  -7    0.12    0.11
   3  -9  -7    0.09    0.13
   2  -9  -7   -0.26    0.91
   2  -9  -7    0.05    0.14
   1  -9  -7    5.41    0.42
   1  -9  -7    2.39    1.21
   0  -9  -7   -0.57    1.09
   0  -9  -7    0.01    0.15
  -1  -9  -7    0.07    1.24
  -1  -9  -7    0.89    0.19
  -2  -9  -7    0.00    0.17
  -3  -9  -7    0.13    0.17
  -4  -9  -7    2.07    0.29
  -5  -9  -7    0.24    0.15
  14 -10  -7    0.51    0.15
  13 -10  -7    0.29    0.16
  12 -10  -7    0.91    0.19
  11 -10  -7   -0.05    0.15
  10 -10  -7   -0.02    0.16
  10 -10  -7    0.15    0.78
   9 -10  -7    0.39    0.79
   9 -10  -7    0.59    0.17
   9 -10  -7    0.61    0.09
   8 -10  -7    1.07    0.19
   8 -10  -7    1.03    0.14
   8 -10  -7    0.72    0.90
   7 -10  -7    0.66    0.81
   7 -10  -7    1.76    0.27
   7 -10  -7    1.44    0.16
   6 -10  -7   -0.15    0.84
   6 -10  -7   -0.17    0.09
   5 -10  -7    3.41    0.27
   5 -10  -7    1.97    1.04
   4 -10  -7    2.54    1.13
   4 -10  -7    3.10    0.30
   4 -10  -7    2.92    0.27
   3 -10  -7    0.91    1.00
   3 -10  -7    1.74    0.25
   3 -10  -7    1.53    0.20
   2 -10  -7    0.87    1.09
   1 -10  -7    1.36    1.26
   1 -10  -7    3.35    0.33
   0 -10  -7    1.56    1.76
  -1 -10  -7    0.10    0.17
  -2 -10  -7    0.17    0.17
  -3 -10  -7    1.23    0.20
  -4 -10  -7   -0.13    0.15
  14 -11  -7    0.20    0.13
  13 -11  -7    0.22    0.15
  12 -11  -7   -0.04    0.15
  11 -11  -7    0.37    0.16
  10 -11  -7    0.62    0.17
   9 -11  -7    2.41    0.32
   9 -11  -7    2.95    0.23
   8 -11  -7    1.23    0.26
   8 -11  -7    1.52    0.16
   8 -11  -7    1.23    0.96
   7 -11  -7    1.47    0.16
   7 -11  -7    1.04    0.88
   6 -11  -7    0.92    0.12
   6 -11  -7    0.95    0.97
   5 -11  -7   12.40    0.84
   5 -11  -7    8.35    1.79
   4 -11  -7    0.01    1.01
   4 -11  -7    0.25    0.15
   4 -11  -7    0.19    0.12
   3 -11  -7    0.44    1.04
   3 -11  -7    1.54    0.19
   3 -11  -7    1.32    0.19
   2 -11  -7    0.50    0.13
   2 -11  -7    0.27    0.16
   1 -11  -7    1.17    0.19
   0 -11  -7    4.28    0.40
  -1 -11  -7    0.12    0.17
  -2 -11  -7    0.06    0.16
  -3 -11  -7    0.18    0.16
  13 -12  -7   -0.05    0.14
  12 -12  -7    0.01    0.14
  11 -12  -7    0.31    0.16
  10 -12  -7    0.07    0.15
   9 -12  -7    2.52    0.21
   9 -12  -7    2.40    0.30
   8 -12  -7    0.38    0.09
   8 -12  -7    0.33    0.16
   7 -12  -7    0.16    0.08
   6 -12  -7    2.63    0.24
   5 -12  -7   -0.01    0.11
   4 -12  -7    0.34    0.15
   4 -12  -7    0.34    0.12
   3 -12  -7    0.20    0.15
   3 -12  -7   -0.11    0.12
   2 -12  -7    5.05    0.39
   2 -12  -7    4.74    0.43
   1 -12  -7    5.43    0.46
   1 -12  -7    6.50    0.50
   0 -12  -7    0.34    0.16
  -1 -12  -7    0.07    0.16
  -2 -12  -7    0.01    0.15
  12 -13  -7    0.56    0.15
  11 -13  -7    1.00    0.17
  10 -13  -7    0.15    0.15
   9 -13  -7    0.87    0.18
   9 -13  -7    1.28    0.19
   8 -13  -7    0.98    0.14
   7 -13  -7    0.11    0.08
   6 -13  -7    0.23    0.10
   5 -13  -7    0.30    0.10
   4 -13  -7    5.08    0.37
   4 -13  -7    4.22    0.40
   3 -13  -7    8.14    0.60
   3 -13  -7    8.07    0.63
   2 -13  -7   -0.25    0.14
   2 -13  -7    0.16    0.11
   1 -13  -7    0.01    0.11
   1 -13  -7    0.30    0.15
   0 -13  -7    0.09    0.15
   0 -13  -7    0.28    0.10
  -1 -13  -7    0.18    0.14
  11 -14  -7    0.25    0.13
  10 -14  -7    0.16    0.14
   8 -14  -7    0.88    0.15
   7 -14  -7    1.11    0.14
   6 -14  -7    0.07    0.07
   5 -14  -7    3.33    0.27
   4 -14  -7    1.61    0.18
   3 -14  -7    1.15    0.17
   3 -14  -7    1.47    0.22
   2 -14  -7    1.07    0.16
   2 -14  -7    1.28    0.22
   1 -14  -7    1.35    0.22
   6 -15  -7    1.73    0.18
   5 -15  -7    1.23    0.13
   0  19  -8    0.16    0.10
  -1  19  -8    0.17    0.11
  -2  19  -8    0.21    0.12
  -3  19  -8    0.09    0.12
  -4  19  -8    0.12    0.12
  -5  19  -8    0.48    0.13
   2  18  -8    0.22    0.11
   1  18  -8    0.06    0.11
   0  18  -8    0.09    0.11
  -1  18  -8    0.15    0.13
  -2  18  -8    0.13    0.13
  -3  18  -8   -0.05    0.13
  -4  18  -8    0.65    0.15
  -5  18  -8    0.14    0.13
  -6  18  -8    0.08    0.13
   4  17  -8    0.32    0.10
   4  17  -8    0.18    0.07
   3  17  -8    0.03    0.10
   2  17  -8    1.47    0.22
   1  17  -8    0.06    0.12
   0  17  -8    0.06    0.13
  -1  17  -8   -0.03    0.12
  -2  17  -8    0.68    0.15
  -3  17  -8    0.10    0.14
  -4  17  -8    0.09    0.14
  -5  17  -8    0.35    0.16
  -6  17  -8    0.76    0.17
  -8  17  -8    1.34    0.37
  -9  17  -8    0.96    0.35
   9 -17   8    0.89    0.11
   6  16  -8    0.11    0.07
   6  16  -8   -0.09    0.09
   5  16  -8    0.80    0.19
   5  16  -8    1.14    0.27
   4  16  -8    0.05    0.11
   4  16  -8    0.12    0.09
   3  16  -8    0.03    0.09
   3  16  -8   -0.14    0.12
   2  16  -8    0.00    0.12
   2  16  -8    0.07    0.07
   1  16  -8    0.25    0.13
   0  16  -8    2.25    0.28
  -1  16  -8    0.33    0.14
  -2  16  -8   -0.09    0.13
  -3  16  -8    1.19    0.27
  -4  16  -8    0.11    0.15
  -5  16  -8    5.71    0.51
  -6  16  -8    0.07    0.16
  -7  16  -8   -0.08    0.36
  -8  16  -8   -0.08    0.36
  -9  16  -8    0.61    0.36
   9 -16   8    1.04    0.15
 -10  16  -8   -0.19    0.33
  10 -16   8   -0.14    0.09
   7  15  -8    0.19    0.09
   7  15  -8    0.07    0.11
   6  15  -8    0.05    0.09
   6  15  -8    0.11    0.12
   5  15  -8    0.36    0.11
   5  15  -8    0.63    0.14
   4  15  -8    0.03    0.13
   4  15  -8    0.04    0.10
   3  15  -8    0.33    0.10
   3  15  -8    0.57    0.14
   2  15  -8    0.15    0.09
   2  15  -8    0.15    0.13
   1  15  -8   -0.07    0.77
   1  15  -8    1.78    0.24
   1  15  -8    1.18    0.26
   0  15  -8   -0.29    0.66
   0  15  -8    1.19    0.22
  -1  15  -8    0.21    0.68
  -2  15  -8    9.34    1.53
  -2  15  -8   10.95    0.81
  -3  15  -8    0.30    0.15
  -3  15  -8    0.20    0.80
  -4  15  -8    0.00    0.79
  -4  15  -8   -0.08    0.16
  -5  15  -8    2.43    1.17
  -5  15  -8    1.83    0.32
  -6  15  -8    1.23    0.32
  -6  15  -8    2.09    0.51
  -7  15  -8   -0.09    0.36
  -7  15  -8   -0.09    0.18
  -8  15  -8   -0.41    0.36
  -9  15  -8   -0.06    0.36
 -10  15  -8    0.10    0.36
  10 -15   8   -0.10    0.10
 -11  15  -8   -0.03    0.33
   8  14  -8    0.06    0.11
   8  14  -8    0.05    0.07
   7  14  -8    0.05    0.08
   6  14  -8    0.08    0.09
   5  14  -8    0.06    0.09
   5  14  -8    0.28    0.14
   4  14  -8    0.10    0.09
   4  14  -8    0.11    0.14
   3  14  -8    1.51    0.26
   3  14  -8    1.37    0.33
   2  14  -8    0.23    0.09
   2  14  -8    0.63    0.14
   1  14  -8    3.48    0.41
   1  14  -8    4.91    0.38
   0  14  -8    2.25    0.26
   0  14  -8    0.59    0.71
   0  14  -8    1.94    0.27
  -1  14  -8    0.35    0.66
  -2  14  -8   -0.16    0.13
  -2  14  -8    0.06    0.81
  -3  14  -8    0.09    0.79
  -3  14  -8   -0.02    0.15
  -4  14  -8    1.39    0.30
  -4  14  -8    2.50    0.99
  -5  14  -8    2.99    0.39
  -5  14  -8    3.43    1.27
  -5  14  -8    3.96    0.53
  -6  14  -8    0.83    0.98
  -6  14  -8    0.78    0.34
  -6  14  -8    0.40    0.20
  -7  14  -8    1.61    0.38
  -7  14  -8    0.85    0.23
  -8  14  -8    0.87    0.37
  -9  14  -8    0.74    0.37
 -10  14  -8    2.22    0.42
 -11  14  -8   -0.01    0.35
   9  13  -8   -0.02    0.06
   8  13  -8   -0.04    0.07
   7  13  -8   -0.01    0.08
   6  13  -8   -0.04    0.08
   5  13  -8    0.00    0.08
   4  13  -8    7.25    0.61
   3  13  -8    5.82    0.58
   3  13  -8    8.27    0.56
   2  13  -8    1.75    0.31
   2  13  -8    1.47    0.24
   1  13  -8    1.57    0.24
   1  13  -8    0.63    0.68
   1  13  -8    2.15    0.28
   0  13  -8    0.48    0.64
   0  13  -8    1.08    0.21
   0  13  -8    1.68    0.38
  -1  13  -8    4.56    1.05
  -1  13  -8    4.56    0.39
  -2  13  -8    0.12    0.74
  -2  13  -8    0.33    0.14
  -3  13  -8    1.22    0.84
  -4  13  -8    0.21    0.80
  -4  13  -8    0.19    0.17
  -4  13  -8    0.36    0.31
  -5  13  -8    1.37    0.33
  -5  13  -8    1.51    0.97
  -5  13  -8    0.73    0.21
  -6  13  -8    1.42    0.25
  -6  13  -8    0.96    1.06
  -6  13  -8    2.43    0.49
  -7  13  -8    0.68    0.35
  -7  13  -8    0.11    0.22
  -8  13  -8    1.84    0.40
  -9  13  -8    0.17    0.35
 -10  13  -8    0.72    0.38
 -11  13  -8    0.17    0.37
  10  12  -8    0.07    0.07
   9  12  -8    0.19    0.08
   8  12  -8   -0.03    0.08
   7  12  -8    0.06    0.09
   6  12  -8    0.06    0.08
   5  12  -8    0.20    0.09
   4  12  -8    0.10    0.07
   3  12  -8    3.25    0.34
   2  12  -8    1.62    0.23
   2  12  -8    1.72    0.26
   1  12  -8    8.25    0.63
   0  12  -8    2.43    0.25
   0  12  -8    1.14    0.65
  -1  12  -8   -0.20    0.11
  -1  12  -8   -0.21    0.53
  -2  12  -8    4.27    0.39
  -2  12  -8    3.22    1.47
  -2  12  -8    5.85    1.13
  -3  12  -8    2.34    0.88
  -3  12  -8    1.99    1.24
  -3  12  -8    1.87    0.29
  -4  12  -8    0.30    0.17
  -4  12  -8    0.30    0.28
  -4  12  -8    0.62    0.79
  -5  12  -8    2.58    0.45
  -5  12  -8    2.35    1.02
  -5  12  -8    1.84    0.37
  -6  12  -8    0.33    0.31
  -6  12  -8    0.45    1.11
  -6  12  -8    0.10    0.22
  -7  12  -8    0.33    0.32
  -7  12  -8    0.14    0.24
  -8  12  -8    0.87    1.33
  -8  12  -8    0.20    0.35
  -9  12  -8    0.81    0.37
 -10  12  -8    0.32    0.38
 -11  12  -8   -0.38    0.38
 -12  12  -8    0.20    0.38
  11  11  -8    0.09    0.06
  10  11  -8   -0.01    0.08
   9  11  -8    0.23    0.11
   9  11  -8    0.29    0.09
   8  11  -8    0.03    0.11
   8  11  -8    0.04    0.09
   7  11  -8    0.21    0.12
   7  11  -8    0.05    0.09
   6  11  -8    0.98    0.32
   5  11  -8    0.07    0.11
   5  11  -8   -0.02    0.08
   4  11  -8    1.38    0.24
   4  11  -8    1.49    0.30
   3  11  -8    1.17    0.20
   1  11  -8   18.06    1.30
   0  11  -8    0.12    0.11
   0  11  -8    0.24    0.54
  -1  11  -8    4.29    1.40
  -1  11  -8    3.77    0.35
  -1  11  -8    5.87    1.00
  -2  11  -8    4.08    1.25
  -2  11  -8    3.86    0.99
  -2  11  -8    3.31    0.34
  -3  11  -8   11.20    1.38
  -3  11  -8   11.47    1.83
  -3  11  -8    8.08    0.70
  -4  11  -8    0.67    0.19
  -4  11  -8    0.83    0.26
  -4  11  -8    1.47    1.00
  -4  11  -8    0.63    0.81
  -5  11  -8    0.21    0.84
  -5  11  -8   -0.09    0.19
  -5  11  -8    0.82    0.97
  -5  11  -8    0.46    0.27
  -6  11  -8    3.50    0.50
  -6  11  -8    3.30    0.46
  -7  11  -8    2.94    0.51
  -7  11  -8    1.83    1.42
  -8  11  -8    1.16    1.45
  -9  11  -8    1.97    0.41
 -10  11  -8   -0.16    0.38
 -11  11  -8    0.32    0.41
 -12  11  -8    0.96    0.42
  11  10  -8   -0.32    0.16
  11  10  -8    0.07    0.07
  10  10  -8    1.61    0.28
   9  10  -8    0.05    0.11
   9  10  -8    0.01    0.09
   8  10  -8    0.02    0.11
   8  10  -8   -0.02    0.09
   7  10  -8    1.85    0.33
   7  10  -8    2.56    0.36
   6  10  -8    0.19    0.11
   6  10  -8    0.02    0.09
   5  10  -8   -0.08    0.07
   5  10  -8    0.11    0.10
   4  10  -8   17.98    1.21
   4  10  -8   14.99    1.20
   3  10  -8    0.85    0.24
   2  10  -8    1.22    0.24
   0  10  -8    4.09    1.25
   0  10  -8    3.01    0.76
  -1  10  -8    4.87    0.95
  -1  10  -8    5.12    1.53
  -2  10  -8    5.91    1.44
  -2  10  -8    4.74    1.00
  -3  10  -8   -0.22    0.80
  -3  10  -8    0.11    0.68
  -4  10  -8    1.66    0.95
  -4  10  -8    1.44    0.33
  -4  10  -8    1.13    0.26
  -4  10  -8    1.11    0.81
  -5  10  -8    0.59    0.26
  -5  10  -8    0.80    0.22
  -6  10  -8   17.08    1.29
  -6  10  -8   16.65    1.30
  -7  10  -8    0.33    0.31
  -7  10  -8    0.21    1.25
  -8  10  -8    5.17    1.86
  -8  10  -8    6.23    0.69
  -9  10  -8    0.90    1.53
  -9  10  -8    0.25    0.36
 -10  10  -8    0.06    0.41
 -11  10  -8   -0.06    0.42
 -12  10  -8    0.32    0.45
  12   9  -8    0.17    0.07
  11   9  -8   -0.14    0.10
  11   9  -8   -0.06    0.08
  10   9  -8    1.23    0.33
  10   9  -8    1.71    0.29
   9   9  -8    1.81    0.31
   9   9  -8    2.07    0.36
   8   9  -8    1.11    0.28
   8   9  -8    1.38    0.34
   7   9  -8    0.13    0.11
   7   9  -8   -0.09    0.08
   6   9  -8    0.87    0.24
   5   9  -8    0.05    0.09
   4   9  -8    1.86    0.28
   3   9  -8    9.26    0.70
   2   9  -8    2.51    0.27
   1   9  -8    1.76    1.08
   0   9  -8    1.75    0.98
  -1   9  -8    0.65    0.56
  -1   9  -8    0.57    0.85
  -2   9  -8    2.40    0.84
  -2   9  -8    2.72    0.99
  -3   9  -8   10.64    1.38
  -4   9  -8   23.42    2.33
  -5   9  -8   13.21    1.04
  -5   9  -8   13.54    1.03
  -6   9  -8    0.34    0.22
  -6   9  -8   -0.10    1.12
  -6   9  -8    0.11    0.08
  -6   9  -8    0.43    0.27
  -7   9  -8    4.95    0.37
  -7   9  -8    4.30    1.67
  -7   9  -8    3.82    0.58
  -8   9  -8   -0.05    0.35
  -8   9  -8    1.08    1.44
  -9   9  -8    0.33    0.13
  -9   9  -8    0.39    0.39
  -9   9  -8    1.41    1.62
 -10   9  -8    7.52    0.87
 -10   9  -8    8.37    0.61
 -11   9  -8    2.32    0.51
 -11   9  -8    2.16    0.25
 -12   9  -8    0.24    0.46
  13   8  -8    0.04    0.06
  12   8  -8   -0.17    0.10
  12   8  -8    0.09    0.08
  11   8  -8    1.47    0.34
  11   8  -8    2.15    0.28
  10   8  -8    0.04    0.08
  10   8  -8    0.02    0.11
   9   8  -8    0.16    0.11
   9   8  -8    0.19    0.08
   8   8  -8    1.10    0.31
   7   8  -8    0.01    0.07
   7   8  -8    0.18    0.09
   6   8  -8    0.87    0.21
   5   8  -8    5.23    0.44
   4   8  -8    1.07    0.22
   3   8  -8    5.13    0.42
   2   8  -8    0.90    0.20
   1   8  -8    0.70    0.90
   1   8  -8    0.34    0.07
   0   8  -8    0.30    0.86
  -1   8  -8    5.27    1.30
  -1   8  -8    4.14    0.83
  -2   8  -8   18.23    1.74
  -5   8  -8    0.63    1.13
  -5   8  -8    1.18    0.26
  -5   8  -8    1.15    0.15
  -6   8  -8    3.94    0.30
  -6   8  -8    3.14    0.49
  -6   8  -8    3.10    1.50
  -7   8  -8   25.92    2.04
  -7   8  -8   23.12    3.11
  -7   8  -8   30.65    1.97
  -8   8  -8    0.80    0.37
  -8   8  -8    1.25    0.20
  -8   8  -8    1.09    1.56
  -9   8  -8    0.66    0.15
  -9   8  -8    0.35    0.42
  -9   8  -8    1.22    1.67
 -10   8  -8    6.20    0.78
 -10   8  -8    5.07    0.42
 -11   8  -8    0.71    0.14
 -11   8  -8    1.31    0.51
 -12   8  -8    0.13    0.52
 -12   8  -8   -0.01    0.10
  13   7  -8    0.20    0.07
  12   7  -8    0.21    0.08
  12   7  -8    0.02    0.11
  11   7  -8    0.17    0.11
  11   7  -8    0.26    0.08
  10   7  -8    3.24    0.33
  10   7  -8    3.49    0.41
   9   7  -8    4.11    0.45
   9   7  -8    4.47    0.38
   8   7  -8    4.60    0.45
   8   7  -8    4.32    0.38
   7   7  -8   -0.06    0.09
   6   7  -8    1.15    0.26
  -6  -7   8    0.87    0.58
   5   7  -8    2.54    0.29
   4   7  -8    9.48    0.71
   3   7  -8    0.24    0.07
   2   7  -8    0.12    0.90
   2   7  -8    0.03    0.07
   1   7  -8    0.70    0.90
   0   7  -8    0.22    0.79
   0  -7   8    0.02    0.34
  -4   7  -8    1.53    1.08
  -4   7  -8    1.27    0.15
  -5   7  -8   37.38    2.62
  -5   7  -8   35.88    3.52
  -6   7  -8   18.82    1.48
  -6   7  -8   16.83    2.52
  -6   7  -8   21.05    1.40
  -7   7  -8    3.86    0.54
  -7   7  -8    3.00    0.29
  -7   7  -8    1.69    1.67
  -8   7  -8    1.78    0.43
  -8   7  -8    1.38    0.22
  -8   7  -8    2.07    1.72
  -9   7  -8    0.29    0.15
  -9   7  -8    1.48    1.72
  -9   7  -8   -0.13    0.44
 -10   7  -8    0.94    0.48
 -10   7  -8    0.78    0.16
 -11   7  -8    0.11    0.13
 -11   7  -8   -0.19    0.48
 -12   7  -8    1.29    0.18
  14   6  -8    1.12    0.19
  13   6  -8   -0.18    0.10
  13   6  -8    0.02    0.07
  12   6  -8    0.14    0.07
  12   6  -8    0.04    0.10
  11   6  -8    0.06    0.07
  11   6  -8    0.11    0.11
  10   6  -8    0.09    0.07
  10   6  -8    0.08    0.11
   9   6  -8    2.25    0.37
   9   6  -8    2.89    0.28
   8   6  -8   10.30    0.75
   8   6  -8   10.03    0.80
  -7  -6   8   13.90    1.65
   4   6  -8   -0.05    0.07
   3   6  -8    1.42    0.94
   3   6  -8    1.54    0.21
   2   6  -8    0.34    0.86
   1   6  -8   -0.42    0.81
   0   6  -8    1.39    0.87
   1  -6   8   52.26    4.05
  -2   6  -8   97.42    7.31
  -3   6  -8    0.56    0.09
  -3   6  -8    1.07    0.93
  -4   6  -8    6.88    0.49
  -4   6  -8    6.53    0.49
  -4   6  -8    6.69    1.53
  -5   6  -8    4.00    0.31
  -5   6  -8    3.58    0.31
  -5   6  -8    3.04    1.46
  -6   6  -8   13.71    1.04
  -6   6  -8    8.18    2.23
  -6   6  -8   12.99    0.93
  -7   6  -8    2.79    0.60
  -7   6  -8    3.23    1.83
  -7   6  -8    2.72    0.27
  -8   6  -8   12.03    1.11
  -8   6  -8   12.86    0.90
  -8   6  -8    8.84    2.53
  -9   6  -8    8.08    2.72
  -9   6  -8   11.91    0.84
  -9   6  -8   10.85    1.11
 -10   6  -8    4.16    0.37
 -10   6  -8    4.31    0.82
 -11   6  -8    0.32    0.13
 -12   6  -8    4.02    0.33
  14   5  -8    0.09    0.06
  13   5  -8    0.07    0.06
  13   5  -8   -0.01    0.09
  12   5  -8    3.94    0.35
  12   5  -8    4.09    0.45
  11   5  -8    0.50    0.13
  11   5  -8    0.85    0.20
  10   5  -8    0.21    0.06
   9   5  -8    1.06    0.19
   8   5  -8    6.96    0.50
   8   5  -8    6.55    0.52
   7   5  -8    1.62    0.15
  -7  -5   8    3.14    0.92
   3   5  -8   13.71    1.82
   2   5  -8    9.54    1.56
   1   5  -8   54.49    4.35
   1  -5   8   84.63    6.34
  -2   5  -8   98.00    6.31
  -2   5  -8   78.65    6.68
  -3   5  -8    6.12    1.38
  -3   5  -8    7.40    0.53
  -4   5  -8   -0.74    1.06
  -4   5  -8    0.31    0.07
  -4   5  -8    0.49    0.09
  -5   5  -8    3.18    0.25
  -5   5  -8    3.31    0.28
  -5   5  -8    2.63    1.51
  -6   5  -8   18.75    1.36
  -6   5  -8   18.19    2.71
  -6   5  -8   18.45    1.37
  -6   5  -8   20.33    1.47
  -7   5  -8    8.93    0.63
  -7   5  -8    8.51    0.87
  -7   5  -8    7.05    2.31
  -7   5  -8    8.46    0.65
  -8   5  -8    7.14    0.52
  -8   5  -8    6.87    0.88
  -8   5  -8    6.85    0.54
  -8   5  -8    3.70    2.27
  -9   5  -8    0.50    0.16
  -9   5  -8    1.66    1.99
  -9   5  -8    0.18    0.60
  -9   5  -8    0.27    0.12
 -10   5  -8    4.24    0.37
 -11   5  -8    0.10    0.14
 -12   5  -8    7.57    0.56
  14   4  -8    0.04    0.09
  14   4  -8    0.06    0.06
  13   4  -8    4.78    0.48
  13   4  -8    4.92    0.40
  12   4  -8    1.56    0.21
  12   4  -8    1.44    0.34
  11   4  -8    0.06    0.06
  10   4  -8    0.07    0.08
  10   4  -8   -0.02    0.06
   9   4  -8    1.15    0.14
   9   4  -8    1.02    0.19
   8   4  -8    4.85    0.37
  -8  -4   8    5.89    1.09
   7   4  -8   11.35    0.81
   3   4  -8    2.39    0.96
   2   4  -8   -0.29    0.71
   1  -4   8    1.81    0.51
  -2   4  -8   20.70    2.27
  -2   4  -8   26.15    1.73
  -3   4  -8    3.33    0.27
  -3   4  -8    3.14    1.22
  -4   4  -8   49.69    3.50
  -4   4  -8   49.24    4.28
  -4   4  -8   48.86    3.50
  -5   4  -8   11.77    2.13
  -5   4  -8   13.85    0.95
  -5   4  -8   12.81    0.95
  -6   4  -8    0.34    0.39
  -6   4  -8    0.47    0.09
  -6   4  -8    0.53    0.12
  -6   4  -8    0.35    1.46
  -7   4  -8    9.92    0.79
  -7   4  -8   10.81    1.07
  -7   4  -8    8.54    2.66
  -7   4  -8   11.74    0.78
  -8   4  -8    0.22    0.15
  -8   4  -8    0.24    0.10
  -8   4  -8    0.78    1.89
  -8   4  -8    0.13    0.76
  -9   4  -8    3.29    0.31
  -9   4  -8    3.23    0.28
  -9   4  -8    0.73    2.10
 -10   4  -8    0.11    0.09
 -10   4  -8    0.02    0.15
 -11   4  -8    0.24    0.14
 -12   4  -8    0.44    0.12
  15   3  -8    0.06    0.05
  14   3  -8    0.90    0.29
  13   3  -8    0.71    0.18
  12   3  -8   22.44    1.62
  11   3  -8    2.85    0.25
  11   3  -8    2.68    0.28
  10   3  -8    0.18    0.08
  10   3  -8    0.05    0.05
   9   3  -8    2.14    0.24
   9   3  -8    2.46    0.20
   8   3  -8    9.84    0.74
  -8  -3   8   12.34    1.33
   4   3  -8    0.55    0.80
   3   3  -8   15.71    1.76
   2   3  -8   14.35    1.60
  -1   3  -8    0.58    0.84
   1  -3   8    0.45    0.41
  -2   3  -8    3.76    1.42
  -2   3  -8    5.67    0.41
  -3   3  -8    1.08    1.26
  -3   3  -8    1.66    0.17
  -3   3  -8    1.49    0.15
  -4   3  -8    2.04    0.19
  -4   3  -8    2.18    0.20
  -4   3  -8    2.09    1.40
  -5   3  -8    1.51    0.16
  -5   3  -8    1.51    0.19
  -5   3  -8    0.88    1.48
  -6   3  -8    4.88    0.36
  -6   3  -8    3.20    1.79
  -6   3  -8    4.41    0.37
  -6   3  -8    5.07    0.76
  -7   3  -8    1.32    1.95
  -7   3  -8    1.32    0.17
  -7   3  -8    0.97    0.16
  -8   3  -8    6.88    0.56
  -8   3  -8    7.57    0.55
  -9   3  -8    0.04    0.15
  -9   3  -8    0.31    0.11
 -10   3  -8    0.67    0.12
 -10   3  -8    0.83    0.17
 -11   3  -8    0.12    0.09
 -11   3  -8   -0.05    0.13
  15   2  -8    1.02    0.17
  14   2  -8    3.61    0.32
  13   2  -8    3.37    0.31
  12   2  -8   21.95    1.54
  12   2  -8   21.02    1.55
  11   2  -8    0.26    0.09
  11   2  -8    0.13    0.05
  10   2  -8    0.10    0.05
  10   2  -8    0.18    0.08
   9   2  -8    1.67    0.16
   8   2  -8    0.28    0.07
  -8  -2   8    0.12    0.36
   4   2  -8    8.21    1.35
   3   2  -8    0.84    0.67
  -1   2  -8    0.37    1.14
  -2   2  -8   24.54    1.60
  -2   2  -8   17.86    2.25
  -3   2  -8    3.19    0.25
  -3   2  -8    3.09    0.26
  -3   2  -8    2.65    1.30
  -4   2  -8    0.11    0.07
  -4   2  -8   -0.13    1.30
  -4   2  -8    0.07    0.09
  -5   2  -8    6.05    2.04
  -5   2  -8    8.18    0.60
  -5   2  -8    8.09    0.59
  -6   2  -8    0.08    0.09
  -6   2  -8   -0.02    0.12
  -6   2  -8    0.71    1.60
  -7   2  -8    0.81    0.15
  -7   2  -8   -0.14    1.77
  -7   2  -8    0.55    0.12
  -8   2  -8   33.83    2.53
  -8   2  -8   37.15    2.53
  -9   2  -8    0.33    0.15
  -9   2  -8    0.54    0.12
 -10   2  -8    1.17    0.17
 -10   2  -8    0.71    0.17
 -11   2  -8    1.13    0.15
 -11   2  -8    0.84    0.15
  15   1  -8    0.03    0.05
  14   1  -8    3.95    0.34
  13   1  -8    0.11    0.10
  13   1  -8    0.03    0.06
  12   1  -8    2.98    0.29
  12   1  -8    3.00    0.26
  11   1  -8    4.48    0.37
  11   1  -8    4.51    0.35
  10   1  -8    5.41    0.38
  10   1  -8    4.56    0.40
   9   1  -8    1.36    0.15
  -9  -1   8    0.96    0.50
   8   1  -8   27.79    1.97
  -8  -1   8   27.34    2.35
   4   1  -8    3.50    0.81
   3   1  -8    5.94    1.07
   0   1  -8    1.37    0.93
  -1   1  -8    0.63    0.14
  -1   1  -8    0.79    1.24
  -2   1  -8   -0.67    1.31
  -2   1  -8    0.41    0.09
  -2   1  -8    0.25    0.07
  -3   1  -8    3.66    0.28
  -3   1  -8    3.70    0.29
  -3   1  -8    3.62    1.61
  -4   1  -8    6.83    0.51
  -4   1  -8    5.22    1.91
  -4   1  -8    7.11    0.51
  -5   1  -8    1.28    0.19
  -5   1  -8    0.91    1.86
  -5   1  -8    1.38    0.16
  -6   1  -8    2.76    2.20
  -6   1  -8    2.27    0.22
  -6   1  -8    2.25    0.24
  -7   1  -8   -0.31    2.45
  -7   1  -8    0.00    0.14
  -7   1  -8    0.14    0.11
  -8   1  -8    7.33    0.52
  -8   1  -8    1.40    2.83
  -8   1  -8    6.65    0.53
  -9   1  -8    0.32    0.11
  -9   1  -8    0.00    0.15
 -10   1  -8   -0.22    0.10
 -10   1  -8   -0.19    0.14
 -11   1  -8    0.07    0.12
 -11   1  -8   -0.12    0.08
  15   0  -8    5.30    0.42
  14   0  -8    5.34    0.41
  14   0  -8    5.09    0.42
  13   0  -8    1.08    0.19
  13   0  -8    0.93    0.16
  12   0  -8    7.91    0.56
  12   0  -8    7.15    0.58
  11   0  -8    7.95    0.54
  11   0  -8    6.49    0.55
  10   0  -8    1.43    0.19
  10   0  -8    1.24    0.16
   9   0  -8    0.34    0.09
  -9   0   8    0.04    0.44
   8   0  -8    0.11    0.08
  -8   0   8   -0.26    0.37
   4   0  -8    4.55    0.94
   3   0  -8    2.53    0.72
   1   0  -8    0.12    0.62
  -1   0   8    0.26    0.44
   0   0  -8    9.01    1.52
  -1   0  -8   12.45    0.86
  -1   0  -8    9.56    1.93
  -2   0  -8    2.11    1.54
  -2   0  -8    2.18    0.19
  -2   0  -8    2.33    0.20
  -3   0  -8    0.03    0.07
  -3   0  -8    0.03    0.09
  -3   0  -8   -0.16    1.54
  -4   0  -8    0.61    0.09
  -4   0  -8    0.62    0.11
  -4   0  -8    0.70    1.71
  -5   0  -8    0.99    0.14
  -5   0  -8   -0.05    1.85
  -5   0  -8    1.26    0.15
  -6   0  -8    0.27    0.13
  -6   0  -8   -1.66    2.13
  -6   0  -8    0.00    0.10
  -7   0  -8   -0.92    2.51
  -7   0  -8    0.09    0.11
  -7   0  -8   -0.09    0.14
  -8   0  -8    0.27    0.15
  -8   0  -8    0.39    0.12
  -9   0  -8    5.53    0.42
  -9   0  -8    5.24    0.44
 -10   0  -8    0.57    0.14
 -10   0  -8    0.68    0.11
 -11   0  -8    0.10    0.09
  16  -1  -8    0.57    0.15
  15  -1  -8    1.20    0.16
  15  -1  -8    1.18    0.19
  14  -1  -8    0.02    0.05
  14  -1  -8    0.02    0.09
  13  -1  -8    2.40    0.25
  13  -1  -8    2.39    0.23
  12  -1  -8    2.64    0.23
  12  -1  -8    2.19    0.25
  11  -1  -8    4.77    0.43
  11  -1  -8    5.88    0.41
  10  -1  -8    2.19    0.22
   9  -1  -8    6.84    0.49
  -9   1   8    5.01    1.05
   8  -1  -8   15.54    1.10
  -8   1   8   14.62    1.53
  -7   1   8   13.71    1.37
   3  -1  -8    2.33    0.76
  -2   1   8    3.99    1.15
   1  -1  -8    1.65    0.80
  -1   1   8    0.60    0.51
   0  -1  -8    2.62    1.09
  -1  -1  -8    3.31    0.25
  -1  -1  -8    1.38    1.20
  -1  -1  -8    3.10    0.25
  -2  -1  -8    7.94    2.14
  -2  -1  -8   13.48    0.93
  -2  -1  -8   13.22    0.92
  -3  -1  -8    7.59    0.56
  -3  -1  -8    8.00    0.56
  -3  -1  -8    5.07    1.93
  -4  -1  -8    4.03    0.32
  -4  -1  -8    0.26    1.84
  -4  -1  -8    3.36    0.29
  -4  -1  -8    3.13    0.27
  -5  -1  -8    0.01    0.09
  -5  -1  -8    0.17    0.12
  -5  -1  -8   -1.61    2.02
  -6  -1  -8   -1.06    2.35
  -6  -1  -8    2.18    0.24
  -6  -1  -8    2.01    0.22
  -7  -1  -8   -2.12    2.42
  -8  -1  -8    5.29    0.45
  -8  -1  -8    5.89    0.44
  -9  -1  -8    0.36    0.11
  -9  -1  -8    0.19    0.14
 -10  -1  -8    0.76    0.11
 -10  -1  -8    0.55    0.13
  16  -2  -8    0.05    0.05
  15  -2  -8    0.95    0.18
  15  -2  -8    0.91    0.15
  14  -2  -8    0.70    0.18
  14  -2  -8    0.68    0.14
  13  -2  -8   -0.04    0.05
  13  -2  -8   -0.09    0.09
  12  -2  -8    4.39    0.41
  12  -2  -8    5.56    0.39
  11  -2  -8    0.68    0.13
  11  -2  -8    0.72    0.15
  10  -2  -8    6.00    0.49
  10  -2  -8    6.94    0.51
   9  -2  -8    0.19    0.09
  -9   2   8   -0.43    0.45
   8  -2  -8   23.49    1.69
  -8   2   8   23.66    2.09
  -7   2   8    5.19    0.90
  -6   2   8   13.62    1.29
  -5   2   8   29.15    2.36
   4  -2  -8   40.72    2.88
  -4   2   8   33.13    3.02
   3  -2  -8    0.99    0.48
  -3   2   8    0.36    0.68
   2  -2  -8    5.39    0.88
   1  -2  -8    0.37    0.82
  -1   2   8    0.55    0.56
   0  -2  -8    0.26    0.97
   0  -2  -8    0.14    0.06
  -1  -2  -8   19.18    1.30
  -1  -2  -8   14.90    2.26
  -2  -2  -8   -0.13    1.46
  -2  -2  -8   -0.03    0.09
  -2  -2  -8    0.03    0.07
  -3  -2  -8    1.40    0.17
  -3  -2  -8    1.63    0.23
  -3  -2  -8    1.21    0.15
  -3  -2  -8    0.43    1.46
  -4  -2  -8    0.10    1.62
  -4  -2  -8    3.04    0.29
  -4  -2  -8    2.84    0.26
  -4  -2  -8    2.84    0.24
  -5  -2  -8    4.24    0.34
  -5  -2  -8    0.63    1.81
  -5  -2  -8    4.07    0.33
  -6  -2  -8   -0.23    1.89
  -6  -2  -8    0.21    0.14
  -6  -2  -8   -0.08    0.11
  -7  -2  -8    1.97    0.24
  -7  -2  -8    1.85    0.22
  -8  -2  -8    0.61    0.15
  -8  -2  -8    0.55    0.12
  -9  -2  -8    3.33    0.26
  -9  -2  -8    2.45    0.27
 -10  -2  -8    0.33    0.09
  16  -3  -8    2.22    0.22
  16  -3  -8    1.95    0.20
  15  -3  -8    0.47    0.10
  15  -3  -8    0.21    0.06
  14  -3  -8    0.23    0.06
  14  -3  -8    0.48    0.10
  13  -3  -8    0.52    0.12
  12  -3  -8   -0.05    0.10
  11  -3  -8   21.43    1.57
  11  -3  -8   21.76    1.56
  10  -3  -8   18.33    1.33
  10  -3  -8   18.20    1.32
   9  -3  -8    5.52    0.47
   9  -3  -8    5.69    0.44
  -8   3   8    0.22    0.49
   7  -3  -8   12.35    1.02
  -7   3   8   16.62    1.43
  -6   3   8   27.48    2.30
   5  -3  -8    0.87    0.51
  -5   3   8   -0.14    0.55
   4  -3  -8    8.30    1.00
  -4   3   8    6.23    1.48
   3  -3  -8    3.23    0.77
  -3   3   8    1.98    0.83
   2  -3  -8    0.23    0.58
  -2   3   8    0.92    0.68
   1  -3  -8    1.66    0.94
  -1   3   8    0.90    0.57
   0  -3  -8   -0.42    1.00
   0  -3  -8    0.05    0.07
  -1  -3  -8    2.03    1.29
  -1  -3  -8    1.63    0.16
  -2  -3  -8    3.46    0.32
  -2  -3  -8    3.43    0.27
  -2  -3  -8    2.16    1.50
  -3  -3  -8    7.24    0.53
  -3  -3  -8    4.04    1.81
  -3  -3  -8    6.45    0.51
  -3  -3  -8    6.70    0.49
  -4  -3  -8    0.59    1.75
  -4  -3  -8    0.02    0.13
  -4  -3  -8   -0.20    0.11
  -4  -3  -8   -0.13    0.09
  -5  -3  -8    7.96    0.57
  -5  -3  -8    7.71    0.57
  -5  -3  -8    7.48    0.59
  -5  -3  -8    3.16    2.09
  -6  -3  -8    2.27    2.01
  -6  -3  -8    2.26    0.24
  -6  -3  -8    2.12    0.23
  -7  -3  -8   -0.11    0.14
  -7  -3  -8    0.17    0.12
  -8  -3  -8   -0.04    0.11
  -8  -3  -8   -0.10    0.13
  -9  -3  -8    0.21    0.10
  16  -4  -8    0.73    0.13
  16  -4  -8    0.80    0.16
  15  -4  -8    1.03    0.15
  15  -4  -8    1.05    0.18
  14  -4  -8    0.25    0.06
  14  -4  -8    0.57    0.11
  13  -4  -8    1.15    0.18
  12  -4  -8    1.18    0.23
  12  -4  -8    1.19    0.20
  11  -4  -8    0.03    0.51
  11  -4  -8    0.19    0.13
  11  -4  -8    0.41    0.15
  10  -4  -8    9.40    0.70
  10  -4  -8    8.79    0.68
   9  -4  -8   18.10    1.24
   9  -4  -8   17.58    1.25
   9  -4  -8   14.76    1.60
   8  -4  -8    9.03    1.16
   8  -4  -8   10.09    0.73
  -8   4   8    9.74    1.32
   7  -4  -8    5.20    0.42
   7  -4  -8    5.86    0.91
  -7   4   8    3.91    1.07
   6  -4  -8    2.94    0.77
   5  -4  -8   10.44    1.17
  -5   4   8    6.33    1.46
   4  -4  -8   20.94    1.88
   3  -4  -8   34.43    2.81
   2  -4  -8    2.42    0.93
  -2   4   8    4.63    1.35
   1  -4  -8   -0.05    0.07
   1  -4  -8    0.12    0.90
   0  -4  -8    0.70    0.09
   0  -4  -8    0.22    1.12
   0  -4  -8    0.65    0.13
  -1  -4  -8    4.39    0.33
  -1  -4  -8    3.05    1.43
  -1  -4  -8    4.27    0.37
  -2  -4  -8    0.63    1.39
  -2  -4  -8    0.39    0.09
  -2  -4  -8    0.43    0.14
  -3  -4  -8    2.95    0.26
  -3  -4  -8    3.58    0.32
  -3  -4  -8    0.81    1.58
  -4  -4  -8    1.05    1.71
  -4  -4  -8    4.64    0.40
  -4  -4  -8    4.58    0.35
  -5  -4  -8    7.88    0.61
  -5  -4  -8    7.73    0.58
  -6  -4  -8    0.07    0.11
  -7  -4  -8    0.20    0.11
  -8  -4  -8    2.63    0.25
  -9  -4  -8    0.55    0.10
  16  -5  -8   -0.04    0.07
  16  -5  -8   -0.03    0.04
  15  -5  -8    0.28    0.09
  14  -5  -8    1.21    0.17
  14  -5  -8    1.04    0.21
  13  -5  -8    0.11    0.10
  13  -5  -8    0.08    0.14
  12  -5  -8   13.75    1.04
  12  -5  -8   14.11    1.03
  11  -5  -8    3.22    0.30
  11  -5  -8    2.61    0.87
  11  -5  -8    2.94    0.33
  10  -5  -8   24.72    1.78
  10  -5  -8   22.67    2.22
  10  -5  -8   25.46    1.77
   9  -5  -8    3.48    0.37
   9  -5  -8    4.21    0.35
   9  -5  -8    4.06    0.87
   8  -5  -8    9.93    0.73
   8  -5  -8    9.85    1.26
   8  -5  -8    9.31    0.74
   7  -5  -8    0.87    0.19
   7  -5  -8    1.21    0.63
  -7   5   8   -0.71    0.68
   6  -5  -8   12.55    1.36
  -6   5   8    7.96    1.62
   4  -5  -8   -0.20    0.57
  -4   5   8   -0.49    0.78
   3  -5  -8    9.95    1.28
   2  -5  -8    3.39    1.04
   2  -5  -8    2.31    0.25
   1  -5  -8    0.34    0.90
   1  -5  -8    0.50    0.12
   1  -5  -8    0.40    0.10
   0  -5  -8    0.23    0.12
   0  -5  -8    0.23    1.22
   0  -5  -8    0.24    0.08
  -1  -5  -8   -0.23    1.32
  -1  -5  -8    0.29    0.13
  -1  -5  -8    0.17    0.08
  -2  -5  -8    0.55    0.10
  -2  -5  -8    0.40    1.54
  -2  -5  -8    0.72    0.15
  -3  -5  -8    0.42    0.15
  -3  -5  -8   -1.33    1.56
  -3  -5  -8    0.22    0.10
  -4  -5  -8    0.25    0.11
  -4  -5  -8   -1.63    1.58
  -4  -5  -8    0.39    0.16
  -5  -5  -8    0.41    0.16
  -5  -5  -8    0.48    0.11
  -6  -5  -8    0.03    0.11
  -7  -5  -8   -0.21    0.11
  -8  -5  -8    0.11    0.10
  16  -6  -8    0.82    0.12
  16  -6  -8    0.78    0.15
  15  -6  -8    0.23    0.09
  14  -6  -8    0.74    0.16
  13  -6  -8    0.06    0.12
  13  -6  -8   -0.22    0.14
  12  -6  -8    3.08    0.30
  12  -6  -8    2.90    0.92
  12  -6  -8    2.87    0.32
  11  -6  -8    0.62    0.67
  11  -6  -8    0.21    0.14
  11  -6  -8    0.08    0.15
  10  -6  -8   16.96    1.26
  10  -6  -8   16.07    1.80
  10  -6  -8   17.68    1.25
   9  -6  -8    1.66    0.76
   9  -6  -8    1.76    0.23
   9  -6  -8    1.68    0.26
   8  -6  -8    1.79    0.24
   8  -6  -8    1.77    0.74
   8  -6  -8    1.64    0.26
   7  -6  -8   26.74    2.24
   7  -6  -8   20.53    1.63
   6  -6  -8   41.40    3.44
   5  -6  -8    1.32    0.77
   4  -6  -8    1.65    0.73
   4  -6  -8    1.92    0.21
   3  -6  -8    1.67    0.80
   3  -6  -8    2.13    0.23
   2  -6  -8    0.10    0.73
   2  -6  -8   -0.09    0.11
   1  -6  -8    6.51    0.53
   1  -6  -8    8.61    1.56
   0  -6  -8    1.28    0.17
   0  -6  -8    0.77    1.25
  -1  -6  -8    9.22    0.65
  -1  -6  -8    8.81    0.69
  -1  -6  -8    7.59    2.18
  -2  -6  -8    0.12    0.15
  -2  -6  -8   -0.03    0.09
  -2  -6  -8   -1.05    1.51
  -3  -6  -8    0.14    0.10
  -3  -6  -8    0.48    0.16
  -3  -6  -8   -2.20    1.51
  -4  -6  -8    1.25    0.18
  -4  -6  -8    1.25    0.19
  -5  -6  -8    0.18    0.15
  -5  -6  -8    0.10    0.11
  -6  -6  -8    0.60    0.11
  -6  -6  -8    0.44    0.15
  -7  -6  -8    2.90    0.26
  15  -7  -8    0.02    0.08
  15  -7  -8    0.04    0.05
  14  -7  -8    0.58    0.14
  14  -7  -8    0.49    0.11
  13  -7  -8    0.69    0.17
  13  -7  -8    0.84    0.19
  12  -7  -8    0.27    0.14
  12  -7  -8    0.39    0.16
  11  -7  -8    1.17    0.26
  11  -7  -8    0.93    0.73
  11  -7  -8    1.49    0.22
  10  -7  -8    5.49    0.46
  10  -7  -8    5.52    0.47
  10  -7  -8    5.54    1.11
   9  -7  -8    4.86    1.14
   9  -7  -8    5.07    0.44
   9  -7  -8    5.01    0.42
   8  -7  -8   -0.09    0.14
   8  -7  -8   -0.53    0.58
   8  -7  -8    0.13    0.15
   7  -7  -8    4.98    1.13
   7  -7  -8    5.13    0.44
   7  -7  -8    5.27    0.44
   6  -7  -8   15.17    1.72
   6  -7  -8   13.57    1.09
   5  -7  -8    0.66    0.12
   5  -7  -8    0.61    0.76
   4  -7  -8    3.03    1.04
   4  -7  -8    3.28    0.27
   4  -7  -8    3.59    0.31
   3  -7  -8    1.04    0.81
   3  -7  -8    1.11    0.19
   3  -7  -8    0.86    0.11
   2  -7  -8    0.06    0.12
   2  -7  -8    0.51    0.89
   1  -7  -8    6.72    0.52
   1  -7  -8    5.83    1.56
   0  -7  -8    0.22    1.15
   0  -7  -8    0.84    0.16
  -1  -7  -8    5.21    0.43
  -1  -7  -8    2.68    1.56
  -2  -7  -8   -1.11    1.50
  -2  -7  -8    0.44    0.16
  -2  -7  -8    0.28    0.16
  -3  -7  -8    2.12    0.21
  -3  -7  -8    1.94    0.28
  -4  -7  -8   -0.02    0.10
  -4  -7  -8   -0.07    0.15
  -5  -7  -8   -0.09    0.10
  -5  -7  -8   -0.11    0.14
  -6  -7  -8    5.26    0.41
  -6  -7  -8    5.26    0.44
  15  -8  -8    0.06    0.05
  15  -8  -8    0.12    0.08
  14  -8  -8    0.59    0.15
  14  -8  -8    0.68    0.15
  13  -8  -8    0.69    0.16
  13  -8  -8    0.68    0.14
  12  -8  -8    0.61    0.17
  12  -8  -8    0.28    0.13
  11  -8  -8    0.55    0.14
  11  -8  -8    0.60    0.17
  11  -8  -8    0.74    0.67
  10  -8  -8   -0.08    0.14
  10  -8  -8    0.12    0.15
  10  -8  -8    0.37    0.72
   9  -8  -8    1.83    0.97
   9  -8  -8    1.91    0.27
   9  -8  -8    2.84    0.30
   8  -8  -8    3.66    0.37
   8  -8  -8    4.00    0.36
   8  -8  -8    3.06    1.17
   7  -8  -8    0.78    0.12
   7  -8  -8    0.83    0.17
   7  -8  -8    0.60    0.18
   7  -8  -8    0.31    0.70
   6  -8  -8    4.55    1.23
   6  -8  -8    3.95    0.31
   5  -8  -8    1.00    0.12
   5  -8  -8    1.18    0.20
   5  -8  -8    1.47    0.89
   4  -8  -8    2.05    0.94
   4  -8  -8    1.95    0.20
   4  -8  -8    2.30    0.24
   3  -8  -8    2.22    0.26
   3  -8  -8    2.38    0.21
   3  -8  -8    2.12    1.02
   2  -8  -8    1.13    1.04
   2  -8  -8    1.18    0.22
   1  -8  -8    0.07    0.13
   1  -8  -8   -0.34    0.92
   0  -8  -8   13.30    0.95
   0  -8  -8   10.72    2.06
  -1  -8  -8    0.83    0.17
  -1  -8  -8   -0.90    1.19
  -2  -8  -8   -0.24    0.16
  -3  -8  -8    1.05    0.19
  -4  -8  -8    4.31    0.39
  -5  -8  -8    2.05    0.26
  -6  -8  -8    0.61    0.14
  14  -9  -8    0.03    0.09
  14  -9  -8   -0.12    0.12
  13  -9  -8   -0.01    0.11
  13  -9  -8   -0.18    0.14
  12  -9  -8    0.30    0.16
  12  -9  -8    0.26    0.12
  11  -9  -8    0.52    0.14
  11  -9  -8    1.25    0.24
  10  -9  -8    0.53    0.77
  10  -9  -8    0.38    0.16
  10  -9  -8    0.23    0.14
   9  -9  -8   10.14    0.76
   9  -9  -8    8.64    1.60
   8  -9  -8   22.75    2.56
   8  -9  -8   26.93    1.85
   8  -9  -8   25.66    1.85
   7  -9  -8    1.80    0.27
   7  -9  -8    1.27    0.87
   7  -9  -8    1.79    0.17
   7  -9  -8    2.25    0.29
   6  -9  -8    0.05    0.08
   6  -9  -8   -0.39    0.79
   5  -9  -8    1.11    0.13
   5  -9  -8    1.10    0.16
   5  -9  -8    1.28    0.94
   4  -9  -8    0.14    0.92
   4  -9  -8    0.53    0.14
   4  -9  -8    0.58    0.11
   3  -9  -8    4.09    0.32
   3  -9  -8    2.40    1.09
   3  -9  -8    4.31    0.36
   2  -9  -8    9.68    1.89
   2  -9  -8   13.04    0.92
   1  -9  -8   -0.87    1.07
   1  -9  -8    0.25    0.15
   0  -9  -8    1.60    1.23
   0  -9  -8    3.88    0.35
  -1  -9  -8    0.02    0.16
  -2  -9  -8    1.47    0.26
  -3  -9  -8    0.43    0.16
  -4  -9  -8    0.31    0.14
  -5  -9  -8    0.45    0.13
  14 -10  -8    0.02    0.12
  13 -10  -8    0.57    0.15
  12 -10  -8    2.09    0.27
  12 -10  -8    1.45    0.23
  11 -10  -8    0.11    0.12
  11 -10  -8    0.05    0.15
  10 -10  -8    0.32    0.14
  10 -10  -8    0.63    0.16
   9 -10  -8    0.68    0.16
   9 -10  -8    0.69    1.01
   9 -10  -8    0.93    0.17
   8 -10  -8    4.43    1.36
   8 -10  -8    5.01    0.42
   8 -10  -8    4.35    0.42
   7 -10  -8    2.92    0.24
   7 -10  -8    3.67    0.47
   7 -10  -8    1.99    0.97
   6 -10  -8    5.95    0.43
   6 -10  -8    4.76    1.43
   5 -10  -8    2.02    0.31
   5 -10  -8    1.51    1.08
   5 -10  -8    1.86    0.19
   4 -10  -8    2.07    1.12
   4 -10  -8    3.66    0.29
   4 -10  -8    3.22    0.32
   3 -10  -8   -0.04    0.95
   3 -10  -8    0.18    0.14
   3 -10  -8    0.51    0.11
   2 -10  -8    2.46    0.27
   2 -10  -8    0.86    1.06
   2 -10  -8    1.94    0.22
   1 -10  -8    2.03    0.28
   0 -10  -8    0.00    0.15
  -1 -10  -8    2.56    0.31
  -2 -10  -8    0.03    0.15
  -3 -10  -8    0.11    0.14
  -4 -10  -8    2.34    0.27
  14 -11  -8    0.00    0.12
  13 -11  -8    0.06    0.13
  12 -11  -8    0.33    0.15
  11 -11  -8    0.87    0.17
  10 -11  -8    0.55    0.16
   9 -11  -8    0.04    0.14
   8 -11  -8    0.42    0.16
   7 -11  -8    0.11    0.07
   6 -11  -8   -0.02    0.08
   5 -11  -8    0.74    0.11
   4 -11  -8    2.77    0.30
   4 -11  -8    2.97    0.26
   3 -11  -8    0.21    0.14
   3 -11  -8    0.09    0.11
   2 -11  -8    3.63    0.30
   2 -11  -8    3.40    0.35
   1 -11  -8    0.09    0.15
   1 -11  -8    0.15    0.11
   0 -11  -8    0.38    0.16
  -1 -11  -8    3.66    0.35
  -2 -11  -8    0.19    0.14
  13 -12  -8    0.16    0.13
  12 -12  -8    0.18    0.13
  11 -12  -8    0.37    0.15
  10 -12  -8    1.67    0.25
   9 -12  -8    0.06    0.14
   7 -12  -8    0.47    0.09
   6 -12  -8    0.84    0.13
   5 -12  -8    0.39    0.10
   4 -12  -8    0.30    0.11
   4 -12  -8    0.38    0.14
   3 -12  -8    3.24    0.33
   3 -12  -8    3.87    0.30
   2 -12  -8    1.17    0.22
   2 -12  -8    1.13    0.17
   1 -12  -8    0.12    0.10
   1 -12  -8    0.14    0.14
   0 -12  -8    0.81    0.15
   0 -12  -8    0.54    0.11
  -1 -12  -8    0.31    0.14
  -1 -12  -8    0.21    0.09
  12 -13  -8    0.67    0.14
  11 -13  -8   -0.04    0.12
  10 -13  -8    0.44    0.14
   6 -13  -8    0.16    0.07
   5 -13  -8    0.17    0.08
   4 -13  -8    2.37    0.26
   4 -13  -8    2.04    0.20
   3 -13  -8    6.00    0.47
   3 -13  -8    5.59    0.43
   2 -13  -8    0.42    0.10
   2 -13  -8    0.43    0.14
   1 -13  -8    0.27    0.13
   1 -13  -8    0.14    0.09
   3 -14  -8    2.26    0.24
   0  19  -9    0.03    0.11
  -1  19  -9    0.17    0.12
  -2  19  -9    0.81    0.21
  -3  19  -9    0.07    0.12
  -4  19  -9    0.12    0.12
  -5  19  -9   -0.04    0.12
   2  18  -9   -0.04    0.11
   1  18  -9    0.14    0.12
   0  18  -9    0.07    0.12
  -1  18  -9    0.93    0.23
  -2  18  -9    0.34    0.13
  -3  18  -9   -0.01    0.13
  -4  18  -9    1.73    0.26
  -5  18  -9    0.04    0.13
  -6  18  -9   -0.03    0.12
   4  17  -9    0.35    0.11
   3  17  -9    1.41    0.22
   2  17  -9    1.05    0.21
   1  17  -9    0.24    0.13
   0  17  -9    0.18    0.13
  -1  17  -9    0.14    0.13
  -2  17  -9    1.77    0.28
  -3  17  -9    0.00    0.14
  -4  17  -9   -0.17    0.14
  -5  17  -9    0.08    0.15
  -6  17  -9    0.04    0.15
  -8  17  -9   -0.38    0.38
   6  16  -9    1.27    0.25
   5  16  -9    1.29    0.28
   4  16  -9    0.02    0.12
   4  16  -9    0.14    0.08
   3  16  -9    1.85    0.26
   3  16  -9    2.01    0.30
   2  16  -9    0.51    0.14
   1  16  -9   -0.01    0.12
   0  16  -9    0.00    0.13
  -1  16  -9    0.91    0.24
  -2  16  -9    3.21    0.34
  -3  16  -9    3.43    0.37
  -4  16  -9    1.20    0.29
  -5  16  -9    1.38    0.29
  -6  16  -9    0.49    0.18
  -7  16  -9   -0.44    0.37
  -8  16  -9   -0.07    0.37
  -9  16  -9    1.11    0.39
   7  15  -9    1.35    0.28
   6  15  -9    1.22    0.24
   6  15  -9    1.84    0.31
   5  15  -9    1.04    0.25
   5  15  -9    1.77    0.34
   4  15  -9    1.36    0.31
   4  15  -9    0.67    0.16
   3  15  -9    2.61    0.31
   3  15  -9    2.64    0.36
   2  15  -9    0.27    0.13
   2  15  -9    0.24    0.08
   1  15  -9    2.79    0.30
   0  15  -9    0.12    0.13
  -1  15  -9    7.48    0.60
  -2  15  -9    3.96    1.05
  -2  15  -9    3.01    0.34
  -3  15  -9    6.73    0.56
  -3  15  -9    6.46    1.24
  -4  15  -9    6.28    0.55
  -4  15  -9    7.17    1.45
  -5  15  -9    1.67    0.31
  -6  15  -9    1.73    0.40
  -6  15  -9    1.52    0.34
  -7  15  -9   -0.28    0.37
  -8  15  -9    0.09    0.38
  -9  15  -9    0.16    0.37
 -10  15  -9    0.10    0.37
   8  14  -9    0.93    0.24
   8  14  -9    0.07    0.12
   7  14  -9    0.15    0.08
   6  14  -9    0.20    0.09
   6  14  -9    0.49    0.14
   5  14  -9    3.83    0.37
   5  14  -9    3.37    0.41
   4  14  -9    4.24    0.40
   4  14  -9    4.12    0.46
   3  14  -9   10.03    0.69
   3  14  -9    7.57    0.71
   2  14  -9    1.48    0.40
   1  14  -9    0.42    0.13
   0  14  -9    2.33    0.28
  -1  14  -9    2.12    0.27
  -2  14  -9    0.31    0.68
  -2  14  -9    0.12    0.14
  -3  14  -9   -0.16    0.15
  -3  14  -9    0.03    0.70
  -4  14  -9    1.14    0.31
  -4  14  -9    1.64    0.90
  -5  14  -9   -0.08    0.18
  -5  14  -9   -0.15    0.35
  -5  14  -9    0.24    0.96
  -6  14  -9    0.29    0.20
  -6  14  -9    0.53    0.37
  -7  14  -9   -0.56    0.37
  -8  14  -9   -0.25    0.38
  -9  14  -9    0.01    0.39
 -10  14  -9    1.23    0.39
 -11  14  -9    0.41    0.36
   9  13  -9    0.15    0.07
   8  13  -9    0.18    0.08
   7  13  -9    0.07    0.08
   6  13  -9    3.02    0.35
   5  13  -9    1.62    0.32
   4  13  -9    2.09    0.32
   3  13  -9    0.33    0.14
   2  13  -9    0.27    0.13
   1  13  -9    0.62    0.13
   0  13  -9    0.87    0.21
  -1  13  -9   -0.03    0.12
  -1  13  -9    0.14    0.63
  -2  13  -9    2.45    0.94
  -2  13  -9    1.34    0.27
  -3  13  -9    6.59    0.58
  -3  13  -9    8.05    1.29
  -4  13  -9    1.30    0.22
  -4  13  -9    1.35    0.85
  -4  13  -9    1.48    0.36
  -5  13  -9    6.04    0.61
  -5  13  -9    4.48    0.50
  -6  13  -9    1.53    0.37
  -6  13  -9    0.93    0.24
  -7  13  -9    0.67    0.37
  -7  13  -9    1.07    1.32
  -8  13  -9    1.68    0.41
  -9  13  -9    1.46    0.42
 -10  13  -9    0.62    0.39
 -11  13  -9    0.18    0.38
  10  12  -9    0.11    0.06
   9  12  -9    1.30    0.24
   8  12  -9    0.29    0.09
   7  12  -9    0.23    0.12
   7  12  -9    0.20    0.09
   6  12  -9    0.15    0.12
   6  12  -9    0.21    0.09
   5  12  -9    0.97    0.26
   4  12  -9    1.15    0.29
   2  12  -9    5.13    0.43
   1  12  -9    0.08    0.11
   0  12  -9    2.52    0.27
  -1  12  -9    0.07    0.12
  -1  12  -9    0.20    0.57
  -2  12  -9    4.82    1.46
  -2  12  -9    5.35    0.47
  -2  12  -9    5.93    1.05
  -3  12  -9    4.52    1.39
  -3  12  -9    3.98    1.06
  -3  12  -9    3.50    0.39
  -3  12  -9    3.75    0.52
  -4  12  -9    0.67    0.83
  -4  12  -9    0.65    0.20
  -4  12  -9    1.13    1.44
  -4  12  -9    0.65    0.31
  -5  12  -9    0.62    0.32
  -5  12  -9    0.23    0.21
  -6  12  -9    0.28    0.23
  -6  12  -9    0.22    0.33
  -6  12  -9    0.52    1.19
  -7  12  -9    0.66    0.36
  -7  12  -9    0.65    1.21
  -8  12  -9    0.01    0.37
  -9  12  -9    7.05    0.77
 -10  12  -9    1.51    0.42
 -11  12  -9   -0.19    0.39
  11  11  -9    0.04    0.06
  10  11  -9    0.01    0.07
   9  11  -9    0.35    0.12
   9  11  -9    0.34    0.09
   8  11  -9    0.31    0.12
   8  11  -9    0.28    0.09
   7  11  -9   -0.01    0.09
   7  11  -9    0.02    0.11
   6  11  -9    0.03    0.08
   6  11  -9    0.15    0.11
   5  11  -9    1.27    0.26
   5  11  -9    1.35    0.32
   4  11  -9    1.60    0.31
   3  11  -9    0.91    0.27
   2  11  -9    9.23    0.69
   1  11  -9   12.05    0.89
   0  11  -9    0.07    1.21
  -1  11  -9    2.82    1.23
  -1  11  -9    3.19    0.80
  -1  11  -9    2.58    0.29
  -2  11  -9    1.09    1.03
  -2  11  -9    0.35    0.15
  -2  11  -9    0.45    0.61
  -3  11  -9    1.35    0.99
  -3  11  -9   -0.11    0.28
  -3  11  -9    0.16    0.16
  -3  11  -9   -0.18    0.61
  -4  11  -9    0.38    0.20
  -4  11  -9    0.06    0.28
  -4  11  -9    1.83    1.07
  -5  11  -9    1.01    0.25
  -5  11  -9    2.51    1.23
  -5  11  -9    1.14    0.31
  -6  11  -9    0.14    0.31
  -6  11  -9    0.23    0.25
  -6  11  -9    1.08    1.23
  -7  11  -9    2.47    0.53
  -7  11  -9    2.06    1.37
  -8  11  -9    1.01    1.35
  -8  11  -9    0.28    0.37
  -9  11  -9    0.67    0.41
 -10  11  -9    1.09    0.43
 -11  11  -9   -0.11    0.44
  11  10  -9   -0.10    0.10
  11  10  -9    0.19    0.07
  10  10  -9    0.01    0.11
  10  10  -9    0.17    0.09
   9  10  -9    0.04    0.09
   9  10  -9    0.06    0.12
   8  10  -9    0.35    0.12
   8  10  -9    0.17    0.10
   7  10  -9    1.57    0.34
   6  10  -9    1.90    0.33
   6  10  -9    1.12    0.28
   5  10  -9    0.21    0.10
   4  10  -9    0.32    0.09
   3  10  -9    7.34    0.59
   2  10  -9    0.09    0.08
   0  10  -9   -0.14    0.99
  -1  10  -9    0.92    0.95
  -2  10  -9    0.17    0.56
  -2  10  -9    0.88    0.95
  -3  10  -9    1.29    0.95
  -3  10  -9    1.05    0.78
  -3  10  -9    1.28    0.31
  -3  10  -9    0.83    0.29
  -4  10  -9    4.51    0.49
  -4  10  -9    6.77    1.51
  -4  10  -9    4.61    0.52
  -5  10  -9    5.16    0.57
  -5  10  -9    5.73    0.56
  -6  10  -9    7.29    0.70
  -6  10  -9    7.96    0.70
  -6  10  -9    5.15    1.70
  -7  10  -9    3.36    0.57
  -7  10  -9    2.42    1.48
  -8  10  -9    2.98    0.59
  -8  10  -9    1.59    1.45
  -9  10  -9    4.19    0.70
 -10  10  -9    0.33    0.45
 -11  10  -9    0.13    0.45
 -12  10  -9    0.66    0.44
  12   9  -9    0.16    0.07
  11   9  -9   -0.02    0.08
  11   9  -9   -0.13    0.10
  10   9  -9    0.00    0.11
  10   9  -9    0.00    0.08
   9   9  -9   -0.02    0.09
   9   9  -9    0.04    0.12
   8   9  -9    2.13    0.36
   8   9  -9    1.73    0.31
   7   9  -9    2.46    0.31
   6   9  -9    1.50    0.30
   5   9  -9    8.56    0.68
   4   9  -9    0.01    0.08
   3   9  -9    0.02    0.07
   2   9  -9    4.93    0.41
   1   9  -9    7.79    1.67
   0   9  -9   -0.22    0.84
  -1   9  -9    0.08    0.85
  -2   9  -9    0.01    0.79
  -4   9  -9   11.50    0.93
  -4   9  -9   11.85    0.92
  -5   9  -9    2.02    0.39
  -5   9  -9    1.17    1.10
  -5   9  -9    1.87    0.42
  -6   9  -9   -0.06    0.30
  -6   9  -9   -0.25    1.13
  -7   9  -9    0.97    1.37
  -7   9  -9    1.33    0.17
  -7   9  -9    1.41    0.38
  -8   9  -9    1.81    1.58
  -8   9  -9    1.43    0.43
  -9   9  -9    0.69    0.43
  -9   9  -9    0.48    0.11
 -10   9  -9    2.52    0.51
 -11   9  -9    1.05    0.48
 -12   9  -9   -0.03    0.45
  13   8  -9    0.02    0.06
  12   8  -9    1.16    0.25
  11   8  -9    0.24    0.08
  11   8  -9    0.27    0.11
  10   8  -9    0.00    0.08
  10   8  -9   -0.03    0.10
   9   8  -9    0.22    0.11
   9   8  -9    0.06    0.08
   8   8  -9   -0.05    0.08
   8   8  -9    0.14    0.10
   7   8  -9    3.38    0.34
   6   8  -9    0.08    0.09
   5   8  -9    6.08    0.50
   4   8  -9    0.26    0.07
   3   8  -9    2.77    0.29
   2   8  -9    0.95    1.01
   2   8  -9    0.42    0.07
   1   8  -9    3.18    1.05
   0   8  -9    2.76    1.00
  -1   8  -9    0.46    0.79
  -3   8  -9   28.85    2.69
  -4   8  -9    0.13    0.91
  -4   8  -9    0.13    0.29
  -5   8  -9    2.58    0.45
  -5   8  -9    1.96    0.39
  -5   8  -9    2.49    0.21
  -5   8  -9    2.49    1.25
  -6   8  -9    0.71    0.33
  -6   8  -9    0.08    1.23
  -6   8  -9    0.98    0.16
  -7   8  -9    0.51    0.13
  -7   8  -9    0.31    1.47
  -7   8  -9    0.63    0.38
  -8   8  -9    1.35    1.61
  -8   8  -9    0.11    0.40
  -9   8  -9    0.77    0.47
  -9   8  -9    0.52    0.14
 -10   8  -9    1.05    0.50
 -10   8  -9    0.69    0.14
 -11   8  -9    0.81    0.51
 -11   8  -9    0.43    0.10
  13   7  -9   -0.03    0.07
  12   7  -9    0.08    0.07
  12   7  -9   -0.03    0.10
  11   7  -9    0.00    0.08
  11   7  -9   -0.03    0.10
  10   7  -9    2.11    0.27
  10   7  -9    2.28    0.35
   9   7  -9    0.20    0.11
   9   7  -9    0.11    0.07
   8   7  -9   11.03    0.85
   8   7  -9   11.86    0.89
   7   7  -9    1.94    0.31
   6   7  -9    4.86    0.44
   5   7  -9    0.26    0.08
   4   7  -9    9.29    0.70
   3   7  -9    4.34    0.36
   2   7  -9    2.53    1.01
   2   7  -9    1.68    0.22
   1   7  -9    1.13    0.86
   0   7  -9    3.11    0.98
  -2   7  -9   14.49    1.60
  -3   7  -9   26.16    2.49
  -4   7  -9    7.54    1.53
  -4   7  -9    9.15    0.64
  -5   7  -9    8.52    0.59
  -5   7  -9    6.54    1.67
  -5   7  -9    7.47    0.74
  -6   7  -9    8.29    2.10
  -6   7  -9   12.73    0.87
  -6   7  -9   11.67    1.01
  -7   7  -9    0.45    0.13
  -7   7  -9    0.95    1.59
  -7   7  -9    0.32    0.39
  -8   7  -9    6.91    0.50
  -8   7  -9    3.13    1.85
  -8   7  -9    5.98    0.82
  -9   7  -9    0.02    0.14
  -9   7  -9    0.25    0.50
 -10   7  -9    2.04    0.53
 -10   7  -9    1.87    0.23
 -11   7  -9    0.13    0.11
 -11   7  -9    0.67    0.73
  14   6  -9    2.20    0.24
  13   6  -9   -0.02    0.09
  13   6  -9    0.06    0.07
  12   6  -9    0.26    0.07
  12   6  -9    0.37    0.11
  11   6  -9    2.35    0.27
  11   6  -9    2.65    0.38
  10   6  -9    0.28    0.07
  10   6  -9    0.27    0.12
   9   6  -9    0.79    0.21
   9   6  -9    1.01    0.32
   8   6  -9    5.95    0.48
   6   6  -9   10.31    0.76
   4   6  -9   12.48    0.92
   3   6  -9    4.55    1.48
   3   6  -9    4.49    0.37
   2   6  -9    0.71    0.94
   1   6  -9    2.79    0.98
  -2   6  -9    0.70    0.78
  -3   6  -9    3.71    1.22
  -3   6  -9    4.71    0.38
  -3   6  -9    5.67    0.38
  -4   6  -9   14.65    0.97
  -4   6  -9   11.26    1.86
  -4   6  -9   13.05    0.97
  -5   6  -9    5.02    0.36
  -5   6  -9    2.77    1.47
  -5   6  -9    5.21    0.59
  -5   6  -9    4.16    0.35
  -6   6  -9    0.54    0.12
  -6   6  -9    1.17    0.37
  -6   6  -9    0.38    0.09
  -6   6  -9   -0.20    1.48
  -7   6  -9    2.18    0.23
  -7   6  -9    1.59    0.47
  -7   6  -9    1.93    0.27
  -7   6  -9    0.51    1.57
  -8   6  -9    1.81    2.00
  -8   6  -9    3.46    0.31
  -8   6  -9    3.44    0.77
  -9   6  -9    8.66    1.01
  -9   6  -9    9.09    0.67
 -10   6  -9    6.24    1.09
 -10   6  -9    7.31    0.55
 -11   6  -9    0.23    0.12
  14   5  -9    1.89    0.23
  13   5  -9    0.10    0.06
  13   5  -9    0.11    0.10
  12   5  -9    2.40    0.26
  12   5  -9    2.68    0.37
  11   5  -9   -0.06    0.11
  11   5  -9   -0.02    0.06
  10   5  -9    0.65    0.19
   9   5  -9    3.36    0.31
   8   5  -9   13.69    0.98
   7   5  -9   -0.04    0.06
   3   5  -9   11.48    1.73
   2   5  -9    4.60    1.30
   1   5  -9    7.70    1.41
  -2   5  -9   30.00    1.93
  -2   5  -9   22.59    2.41
  -3   5  -9   12.91    1.87
  -3   5  -9   17.61    1.16
  -3   5  -9   16.11    1.16
  -4   5  -9   -0.66    1.14
  -4   5  -9    0.78    0.12
  -4   5  -9    0.96    0.14
  -5   5  -9    0.42    1.27
  -5   5  -9    0.44    0.09
  -5   5  -9    1.17    0.15
  -5   5  -9    0.63    0.37
  -6   5  -9    2.58    0.26
  -6   5  -9    1.59    1.47
  -6   5  -9    2.83    0.23
  -6   5  -9    2.56    0.68
  -7   5  -9   11.80    0.90
  -7   5  -9   11.82    1.17
  -7   5  -9   12.94    0.89
  -8   5  -9    0.26    0.52
  -8   5  -9   -0.28    1.84
  -8   5  -9    0.75    0.15
  -8   5  -9    0.46    0.11
  -9   5  -9   18.04    1.93
  -9   5  -9   20.12    1.43
  -9   5  -9   20.58    1.44
 -10   5  -9    0.43    0.14
 -11   5  -9   -0.06    0.12
  14   4  -9    0.07    0.06
  14   4  -9    0.13    0.09
  13   4  -9    2.66    0.36
  13   4  -9    2.29    0.25
  12   4  -9    1.75    0.22
  11   4  -9    0.06    0.06
  10   4  -9   29.96    2.12
  10   4  -9   29.39    2.13
   9   4  -9    0.58    0.11
   8   4  -9    0.68    0.10
   7   4  -9    0.91    0.10
   4   4  -9    0.35    0.83
   3   4  -9   26.43    2.51
   2   4  -9   10.74    1.57
  -2   4  -9   20.42    1.37
  -2   4  -9   18.07    1.37
  -3   4  -9    9.78    1.91
  -3   4  -9   14.31    1.01
  -3   4  -9   15.14    1.01
  -4   4  -9    0.71    0.11
  -4   4  -9    0.44    1.27
  -4   4  -9    0.57    0.08
  -5   4  -9    8.39    2.13
  -5   4  -9   11.63    1.02
  -5   4  -9   10.84    0.82
  -5   4  -9   12.06    0.82
  -6   4  -9    1.86    0.21
  -6   4  -9    1.67    0.17
  -6   4  -9    2.17    1.76
  -6   4  -9    1.48    0.48
  -7   4  -9   23.95    1.63
  -7   4  -9   22.51    1.64
  -7   4  -9   21.72    1.85
  -8   4  -9    0.05    0.14
  -8   4  -9    0.46    1.78
  -8   4  -9    0.00    0.09
  -9   4  -9    8.26    0.61
  -9   4  -9    7.71    0.59
 -10   4  -9    0.07    0.13
 -10   4  -9    0.15    0.09
 -11   4  -9    0.04    0.12
  15   3  -9    0.27    0.06
  14   3  -9    1.04    0.29
  13   3  -9    3.33    0.30
  12   3  -9    2.90    0.24
  12   3  -9    2.55    0.27
  11   3  -9    2.15    0.19
  11   3  -9    1.65    0.23
  10   3  -9   11.93    0.89
  10   3  -9   12.32    0.88
   9   3  -9    8.68    0.63
   8   3  -9    2.53    0.21
   4   3  -9    2.39    0.87
   3   3  -9    9.27    1.46
   2   3  -9   -0.02    0.70
  -2   3  -9    3.56    1.29
  -2   3  -9    5.53    0.40
  -2   3  -9    5.32    0.39
  -3   3  -9    2.02    0.17
  -3   3  -9    1.07    1.18
  -3   3  -9    1.82    0.18
  -4   3  -9    4.50    1.68
  -4   3  -9    5.44    0.39
  -4   3  -9    5.02    0.40
  -5   3  -9    2.41    0.49
  -5   3  -9    2.18    0.20
  -5   3  -9    1.52    1.47
  -5   3  -9    2.14    0.22
  -6   3  -9    0.13    1.56
  -6   3  -9    0.06    0.09
  -6   3  -9    0.14    0.13
  -6   3  -9   -0.56    0.51
  -7   3  -9   20.17    1.48
  -7   3  -9   20.86    1.47
  -8   3  -9    1.12    0.17
  -8   3  -9    0.76    2.41
  -8   3  -9    1.02    0.13
  -9   3  -9    3.20    0.28
  -9   3  -9    3.39    0.31
 -10   3  -9    0.47    0.13
 -10   3  -9    0.47    0.10
 -11   3  -9    0.00    0.11
 -11   3  -9    0.22    0.08
  15   2  -9    0.25    0.05
  14   2  -9    0.03    0.05
  13   2  -9    7.00    0.56
  13   2  -9    7.58    0.54
  12   2  -9    0.24    0.06
  12   2  -9    0.52    0.10
  11   2  -9    0.12    0.06
  11   2  -9    0.26    0.09
  10   2  -9   19.05    1.33
  10   2  -9   18.04    1.34
   9   2  -9    0.12    0.07
   8   2  -9    0.52    0.11
   4   2  -9    3.67    1.14
   3   2  -9    4.34    1.12
  -1   2  -9    4.03    1.53
  -1   2  -9    5.95    0.43
  -1   2  -9    5.91    0.43
  -2   2  -9    3.20    0.26
  -2   2  -9    3.28    0.25
  -2   2  -9    2.81    1.39
  -3   2  -9   17.57    1.22
  -3   2  -9   12.30    2.28
  -3   2  -9   17.98    1.23
  -4   2  -9    0.77    0.12
  -4   2  -9    0.75    0.10
  -4   2  -9    0.53    1.61
  -5   2  -9    8.92    0.64
  -5   2  -9    9.35    1.26
  -5   2  -9    5.50    2.20
  -5   2  -9    8.81    0.65
  -6   2  -9    2.97    0.27
  -6   2  -9   -0.20    2.14
  -6   2  -9    2.69    0.25
  -7   2  -9    0.23    0.11
  -7   2  -9    0.26    0.14
  -7   2  -9    0.15    2.35
  -8   2  -9    0.88    0.16
  -8   2  -9    0.93    0.13
  -9   2  -9    0.16    0.14
  -9   2  -9    0.22    0.10
 -10   2  -9    1.62    0.18
 -10   2  -9    1.42    0.20
 -11   2  -9    0.11    0.08
  15   1  -9   -0.03    0.05
  14   1  -9   -0.02    0.05
  14   1  -9    0.08    0.08
  13   1  -9    2.49    0.22
  13   1  -9    2.12    0.25
  12   1  -9    1.02    0.19
  12   1  -9    1.01    0.15
  11   1  -9    1.67    0.22
  11   1  -9    2.10    0.19
  10   1  -9   17.82    1.28
   9   1  -9    3.02    0.25
   8   1  -9   43.11    3.07
   4   1  -9    4.23    1.05
   3   1  -9   -0.31    0.61
   0   1  -9    3.97    0.33
  -1   1  -9    3.05    0.24
  -1   1  -9    2.33    1.28
  -1   1  -9    2.77    0.23
  -2   1  -9    0.78    0.12
  -2   1  -9   -0.34    1.39
  -2   1  -9    1.07    0.11
  -3   1  -9    5.03    0.37
  -3   1  -9    3.39    1.70
  -3   1  -9    4.84    0.37
  -4   1  -9    0.53    0.11
  -4   1  -9    0.34    0.09
  -4   1  -9    0.05    1.70
  -5   1  -9   13.32    0.97
  -5   1  -9   13.39    0.96
  -6   1  -9    0.32    0.14
  -6   1  -9    0.61    0.11
  -6   1  -9   -0.46    2.25
  -7   1  -9    0.24    0.15
  -7   1  -9   -2.68    2.37
  -7   1  -9    0.43    0.11
  -8   1  -9    2.98    0.29
  -8   1  -9    2.89    0.27
  -9   1  -9    0.43    0.14
  -9   1  -9    0.38    0.10
 -10   1  -9    1.62    0.18
 -10   1  -9    1.57    0.20
  15   0  -9    0.19    0.05
  14   0  -9    1.93    0.19
  14   0  -9    1.72    0.22
  13   0  -9    3.94    0.31
  13   0  -9    3.67    0.33
  12   0  -9    0.30    0.09
  11   0  -9    0.20    0.09
  11   0  -9    0.07    0.05
  10   0  -9   24.21    1.73
   9   0  -9    5.73    0.44
   8   0  -9    0.05    0.08
   4   0  -9    1.48    0.97
   3   0  -9   36.84    2.97
   0   0  -9    7.18    0.51
   0   0  -9    6.02    1.35
  -1   0  -9    6.85    0.48
  -1   0  -9    6.26    0.48
  -2   0  -9    7.84    0.55
  -2   0  -9    7.24    0.55
  -3   0  -9   -0.05    1.58
  -3   0  -9   -0.06    0.07
  -3   0  -9    0.18    0.09
  -3   0  -9    0.21    0.12
  -4   0  -9   -0.39    1.82
  -5   0  -9    0.27    0.10
  -5   0  -9   -1.40    2.08
  -5   0  -9    0.18    0.12
  -6   0  -9   -2.31    2.24
  -6   0  -9    0.70    0.14
  -7   0  -9    0.20    0.11
  -7   0  -9    0.21    0.14
  -7   0  -9   -3.47    2.56
  -8   0  -9   -0.07    0.10
  -8   0  -9    0.02    0.13
  -9   0  -9   -0.07    0.12
  -9   0  -9    0.03    0.09
 -10   0  -9    1.47    0.17
 -10   0  -9    1.20    0.18
  16  -1  -9   -0.08    0.04
  15  -1  -9    0.12    0.05
  15  -1  -9    0.16    0.09
  14  -1  -9    0.77    0.17
  14  -1  -9    0.74    0.14
  13  -1  -9    1.06    0.15
  13  -1  -9    0.95    0.19
  12  -1  -9    2.88    0.28
  12  -1  -9    3.17    0.27
  11  -1  -9    0.02    0.10
  11  -1  -9    0.06    0.05
  10  -1  -9   10.40    0.76
   9  -1  -9   13.43    0.97
   8  -1  -9    2.97    0.26
   7  -1  -9   29.69    2.14
  -3   1   9    0.52    0.71
  -2   1   9    0.50    0.54
   1  -1  -9    7.57    1.15
   1  -1  -9    6.43    0.48
   0  -1  -9   -0.03    0.06
   0  -1  -9    0.19    0.90
  -1  -1  -9    3.46    0.27
  -1  -1  -9    2.05    1.29
  -1  -1  -9    3.35    0.26
  -2  -1  -9    2.12    0.20
  -2  -1  -9    2.64    0.25
  -2  -1  -9    0.71    1.49
  -2  -1  -9    2.38    0.21
  -3  -1  -9    7.03    0.53
  -3  -1  -9    6.85    0.50
  -3  -1  -9    6.53    0.50
  -4  -1  -9    0.92    0.11
  -4  -1  -9    0.76    0.13
  -4  -1  -9    0.95    0.15
  -4  -1  -9   -0.01    1.66
  -5  -1  -9    5.09    0.39
  -5  -1  -9    5.01    0.40
  -6  -1  -9   -0.06    0.10
  -6  -1  -9   -0.12    0.13
  -6  -1  -9    0.34    1.94
  -7  -1  -9    0.39    0.14
  -7  -1  -9    0.52    0.12
  -8  -1  -9    0.18    0.13
  -8  -1  -9    0.07    0.10
  -9  -1  -9    0.24    0.10
  -9  -1  -9    0.18    0.12
  16  -2  -9    0.39    0.08
  16  -2  -9    0.18    0.05
  15  -2  -9    0.99    0.17
  15  -2  -9    0.97    0.15
  14  -2  -9    1.31    0.20
  14  -2  -9    1.47    0.17
  13  -2  -9    0.37    0.10
  13  -2  -9    0.16    0.06
  12  -2  -9    0.09    0.05
  12  -2  -9    0.11    0.10
  11  -2  -9    0.04    0.11
  10  -2  -9    0.57    0.11
  10  -2  -9    0.73    0.15
   9  -2  -9    0.27    0.13
   9  -2  -9    0.22    0.10
   8  -2  -9    1.80    0.19
  -8   2   9    0.82    0.52
   7  -2  -9    0.45    0.12
  -7   2   9   -0.30    0.41
  -6   2   9   -0.68    0.42
  -5   2   9   14.66    1.60
  -4   2   9   33.02    2.88
  -3   2   9    8.44    1.44
   2  -2  -9    0.84    0.54
   2  -2  -9    1.10    0.13
  -2   2   9    1.33    0.60
   1  -2  -9    0.49    0.84
   0  -2  -9    0.00    0.07
   0  -2  -9    0.27    0.97
  -1  -2  -9    1.77    1.27
  -1  -2  -9    3.49    0.27
  -1  -2  -9    3.83    0.32
  -2  -2  -9    1.26    0.21
  -2  -2  -9    0.68    1.37
  -2  -2  -9    1.19    0.15
  -2  -2  -9    1.03    0.14
  -3  -2  -9    0.25    0.13
  -3  -2  -9    0.45    0.09
  -3  -2  -9    0.17    0.10
  -3  -2  -9    0.26    1.56
  -4  -2  -9    1.52    1.82
  -4  -2  -9    2.29    0.21
  -4  -2  -9    1.84    0.22
  -4  -2  -9    2.20    0.26
  -5  -2  -9    0.78    0.12
  -5  -2  -9    0.98    0.14
  -5  -2  -9    0.37    1.90
  -6  -2  -9    1.64    0.21
  -6  -2  -9    1.51    0.20
  -6  -2  -9    1.57    2.28
  -7  -2  -9    0.42    0.11
  -7  -2  -9    0.26    0.13
  -8  -2  -9    2.15    0.21
  -8  -2  -9    1.96    0.23
  -9  -2  -9    0.30    0.10
  16  -3  -9    1.12    0.14
  16  -3  -9    0.98    0.16
  15  -3  -9    0.99    0.14
  15  -3  -9    0.93    0.17
  14  -3  -9    0.45    0.10
  13  -3  -9    0.83    0.19
  13  -3  -9    0.90    0.17
  12  -3  -9    1.47    0.20
  11  -3  -9    8.59    0.65
  11  -3  -9    8.47    0.66
  10  -3  -9    7.37    0.56
  10  -3  -9    7.46    0.59
   9  -3  -9    0.14    0.11
   9  -3  -9    0.02    0.13
  -8   3   9   -0.31    0.50
  -7   3   9    1.99    0.61
  -6   3   9   30.32    2.64
  -5   3   9   10.39    1.63
  -4   3   9    1.70    0.80
   3  -3  -9   16.90    1.27
   3  -3  -9   19.49    1.65
  -3   3   9   17.69    2.01
   2  -3  -9    0.17    0.07
   2  -3  -9    0.23    0.57
  -2   3   9    0.59    0.58
   1  -3  -9    2.19    0.19
   1  -3  -9    2.36    0.96
   0  -3  -9    1.92    0.18
   0  -3  -9    1.38    1.12
   0  -3  -9    2.00    0.23
  -1  -3  -9    3.72    0.29
  -1  -3  -9    3.67    0.33
  -1  -3  -9    2.53    1.39
  -2  -3  -9    4.16    1.66
  -2  -3  -9    7.59    0.57
  -2  -3  -9    7.45    0.53
  -3  -3  -9    0.18    1.56
  -3  -3  -9    1.50    0.23
  -3  -3  -9    1.41    0.17
  -4  -3  -9    1.10    0.17
  -4  -3  -9    0.92    1.68
  -4  -3  -9    1.01    0.13
  -5  -3  -9    2.97    0.27
  -5  -3  -9    3.09    0.31
  -5  -3  -9    1.29    1.79
  -6  -3  -9   11.69    0.85
  -7  -3  -9    0.17    0.10
  -8  -3  -9    0.60    0.11
  16  -4  -9   -0.07    0.04
  16  -4  -9    0.14    0.08
  15  -4  -9    1.17    0.18
  15  -4  -9    1.20    0.15
  14  -4  -9    0.76    0.15
  14  -4  -9    0.60    0.17
  13  -4  -9    2.67    0.30
  13  -4  -9    3.52    0.28
  12  -4  -9    1.27    0.20
  12  -4  -9    1.00    0.17
  11  -4  -9    1.79    0.26
  11  -4  -9    1.54    0.21
  10  -4  -9    0.03    0.11
  10  -4  -9   -0.06    0.14
   9  -4  -9    2.26    0.29
   9  -4  -9    2.67    0.25
   8  -4  -9   22.69    1.61
   8  -4  -9   21.87    1.62
  -7   4   9   16.42    1.91
   6  -4  -9    0.18    0.48
  -6   4   9   -0.80    0.72
   5  -4  -9    5.09    0.90
  -5   4   9    1.33    0.95
   4  -4  -9   12.40    1.32
  -4   4   9   11.26    1.81
   3  -4  -9    6.67    1.07
  -3   4   9    8.77    1.57
   2  -4  -9    0.64    0.08
   2  -4  -9    0.59    0.12
   2  -4  -9    0.41    0.63
   1  -4  -9    7.57    0.56
   1  -4  -9    9.97    1.48
   1  -4  -9    7.44    0.59
   0  -4  -9   -0.01    0.11
   0  -4  -9    0.03    0.08
   0  -4  -9   -0.19    1.17
  -1  -4  -9    0.21    0.13
  -1  -4  -9    0.18    1.31
  -1  -4  -9    0.04    0.08
  -2  -4  -9    1.72    0.18
  -2  -4  -9    1.68    0.25
  -2  -4  -9    0.28    1.48
  -3  -4  -9    0.52    0.10
  -3  -4  -9    0.68    0.16
  -3  -4  -9   -0.75    1.55
  -4  -4  -9    8.85    0.68
  -4  -4  -9    8.96    0.66
  -5  -4  -9    1.83    0.21
  -5  -4  -9    2.29    0.27
  -7  -4  -9    1.34    0.18
  -8  -4  -9    1.96    0.20
  16  -5  -9    0.08    0.04
  15  -5  -9    0.21    0.05
  15  -5  -9    0.55    0.12
  14  -5  -9    1.61    0.21
  14  -5  -9    1.81    0.20
  13  -5  -9    2.99    0.29
  12  -5  -9    7.51    0.59
  12  -5  -9    7.74    0.60
  11  -5  -9    0.04    0.13
  11  -5  -9   -0.05    0.14
  10  -5  -9   -0.02    0.13
  10  -5  -9    0.10    0.15
   9  -5  -9    3.51    0.31
   9  -5  -9    3.16    0.34
   8  -5  -9    0.21    0.14
   8  -5  -9    0.29    0.52
   8  -5  -9    0.33    0.14
   7  -5  -9   -0.06    0.51
   6  -5  -9    0.38    0.55
   5  -5  -9   12.96    1.41
   5  -5  -9   11.95    0.87
  -5   5   9    7.44    2.47
   4  -5  -9   14.56    1.07
   4  -5  -9   14.99    1.57
   3  -5  -9   -0.11    0.64
   3  -5  -9   -0.05    0.10
   2  -5  -9    9.44    0.72
   2  -5  -9   10.39    1.41
   1  -5  -9    0.02    0.12
   1  -5  -9    0.09    0.08
   1  -5  -9   -0.54    0.83
   0  -5  -9    0.27    0.12
   0  -5  -9    0.21    0.09
   0  -5  -9   -0.09    1.14
  -1  -5  -9    2.20    0.21
  -1  -5  -9    2.22    0.27
  -1  -5  -9    1.60    1.56
  -2  -5  -9   -0.47    1.50
  -3  -5  -9    8.47    0.60
  -3  -5  -9    7.80    0.64
  -4  -5  -9    0.13    0.10
  -4  -5  -9   -0.07    0.14
  -5  -5  -9    0.76    0.12
  -5  -5  -9    1.23    0.17
  -6  -5  -9    7.26    0.54
  -7  -5  -9    0.03    0.10
  15  -6  -9    0.52    0.15
  15  -6  -9    0.37    0.09
  14  -6  -9    0.74    0.19
  14  -6  -9    0.38    0.10
  13  -6  -9    0.15    0.11
  13  -6  -9    0.03    0.14
  12  -6  -9    2.74    0.28
  12  -6  -9    2.43    0.30
  11  -6  -9    0.56    0.16
  11  -6  -9    0.52    0.14
  10  -6  -9    0.21    0.14
  10  -6  -9    0.19    0.53
  10  -6  -9    0.18    0.15
   9  -6  -9    1.01    0.22
   9  -6  -9    1.10    0.24
   9  -6  -9    0.75    0.62
   8  -6  -9    3.75    0.36
   8  -6  -9    3.66    0.35
   8  -6  -9    4.83    1.08
   7  -6  -9    5.57    0.46
   7  -6  -9    4.87    1.11
   6  -6  -9   33.34    2.89
   5  -6  -9   -0.01    0.10
   5  -6  -9   -0.43    0.65
   4  -6  -9    1.78    0.21
   4  -6  -9    1.30    0.74
   3  -6  -9    4.25    1.14
   3  -6  -9    5.37    0.42
   2  -6  -9    1.21    0.21
   2  -6  -9    0.83    0.88
   1  -6  -9    3.96    1.42
   1  -6  -9    4.02    0.35
   0  -6  -9    1.16    1.23
   0  -6  -9    1.36    0.22
  -1  -6  -9    0.16    0.10
  -1  -6  -9    0.02    0.14
  -1  -6  -9   -1.26    1.28
  -2  -6  -9    8.58    0.67
  -2  -6  -9    4.67    1.87
  -2  -6  -9    9.19    0.63
  -3  -6  -9    2.71    0.25
  -3  -6  -9    2.75    0.30
  -4  -6  -9    2.36    0.30
  -4  -6  -9    3.02    0.25
  -5  -6  -9    2.06    0.26
  -5  -6  -9    1.77    0.21
  -6  -6  -9    0.09    0.10
  15  -7  -9    0.30    0.08
  15  -7  -9    0.16    0.05
  14  -7  -9    0.77    0.15
  13  -7  -9    0.11    0.14
  13  -7  -9   -0.15    0.11
  12  -7  -9    0.00    0.12
  12  -7  -9   -0.17    0.14
  11  -7  -9    0.42    0.16
  11  -7  -9    0.49    0.13
  10  -7  -9    3.45    0.33
  10  -7  -9    3.54    0.35
  10  -7  -9    3.52    0.97
   9  -7  -9    0.34    0.15
   9  -7  -9    0.43    0.62
   9  -7  -9    0.18    0.15
   8  -7  -9   10.03    0.77
   8  -7  -9   10.18    0.77
   8  -7  -9   10.71    1.47
   7  -7  -9    1.93    0.27
   7  -7  -9    1.25    0.77
   7  -7  -9    2.26    0.28
   6  -7  -9    0.19    0.73
   5  -7  -9    0.95    0.14
   5  -7  -9    0.59    0.78
   4  -7  -9    0.03    0.08
   4  -7  -9    0.21    0.75
   4  -7  -9    0.33    0.12
   3  -7  -9    6.17    0.48
   3  -7  -9    7.09    0.51
   3  -7  -9    5.85    1.34
   2  -7  -9    0.26    0.13
   2  -7  -9   -0.33    0.89
   1  -7  -9    0.06    0.91
   1  -7  -9    0.03    0.13
   0  -7  -9   -0.45    1.04
   0  -7  -9   -0.12    0.14
  -1  -7  -9   -0.54    1.20
  -1  -7  -9    1.39    0.24
  -2  -7  -9   13.16    0.98
  -3  -7  -9   -0.02    0.10
  -3  -7  -9   -0.01    0.15
  -4  -7  -9   -0.05    0.13
  -4  -7  -9    0.22    0.10
  -5  -7  -9    3.15    0.26
  -5  -7  -9    2.75    0.31
  15  -8  -9    0.06    0.04
  15  -8  -9    0.10    0.08
  14  -8  -9   -0.03    0.09
  13  -8  -9   -0.03    0.14
  13  -8  -9   -0.09    0.11
  12  -8  -9    0.09    0.11
  12  -8  -9    0.04    0.14
  11  -8  -9   -0.14    0.14
  11  -8  -9    0.05    0.13
  10  -8  -9    0.51    0.16
  10  -8  -9    0.57    0.64
  10  -8  -9    0.37    0.14
   9  -8  -9    0.45    0.17
   9  -8  -9    0.56    0.71
   9  -8  -9    0.72    0.16
   8  -8  -9   18.62    2.20
   8  -8  -9   23.70    1.60
   8  -8  -9   22.25    1.60
   7  -8  -9   18.32    1.30
   7  -8  -9   16.38    1.95
   6  -8  -9    3.95    1.23
   5  -8  -9    2.09    0.27
   5  -8  -9    3.63    1.25
   5  -8  -9    3.17    0.28
   4  -8  -9   11.07    0.80
   4  -8  -9   10.55    1.66
   4  -8  -9   10.39    0.77
   3  -8  -9    0.81    0.87
   3  -8  -9    1.28    0.16
   3  -8  -9    1.41    0.22
   2  -8  -9    2.40    0.26
   2  -8  -9    1.94    0.20
   2  -8  -9    0.87    1.03
   1  -8  -9    0.11    0.14
   1  -8  -9   -0.22    1.01
   0  -8  -9    0.36    1.05
   0  -8  -9    1.37    0.24
  -1  -8  -9    9.09    0.70
  -2  -8  -9    0.58    0.16
  -3  -8  -9    0.95    0.17
  -4  -8  -9    1.35    0.24
  -5  -8  -9    3.99    0.35
  14  -9  -9    0.03    0.09
  14  -9  -9    0.02    0.12
  13  -9  -9    0.06    0.11
  13  -9  -9    0.15    0.14
  12  -9  -9   -0.08    0.14
  12  -9  -9   -0.01    0.10
  11  -9  -9    0.62    0.14
  11  -9  -9    1.35    0.24
  10  -9  -9    0.23    0.13
  10  -9  -9    0.28    0.15
   9  -9  -9   11.21    0.82
   9  -9  -9   11.25    0.82
   9  -9  -9    8.23    1.54
   8  -9  -9   24.21    1.69
   8  -9  -9   24.05    1.69
   8  -9  -9   20.19    2.35
   7  -9  -9    2.74    0.34
   6  -9  -9   -0.13    0.80
   5  -9  -9    0.22    0.12
   5  -9  -9   -0.23    0.84
   5  -9  -9   -0.05    0.09
   4  -9  -9    0.68    0.94
   4  -9  -9    0.30    0.13
   4  -9  -9    0.22    0.09
   3  -9  -9    0.51    0.94
   3  -9  -9    0.94    0.12
   3  -9  -9    0.89    0.15
   2  -9  -9    1.18    0.16
   2  -9  -9    0.25    0.99
   2  -9  -9    1.09    0.17
   1  -9  -9    0.77    0.16
   0  -9  -9   -0.07    0.14
  -1  -9  -9    1.57    0.25
  -2  -9  -9    1.57    0.25
  -3  -9  -9    6.31    0.51
  -4  -9  -9    4.17    0.37
  14 -10  -9    0.27    0.08
  13 -10  -9    0.31    0.11
  13 -10  -9    0.54    0.14
  12 -10  -9    1.59    0.23
  12 -10  -9    1.03    0.18
  11 -10  -9    0.03    0.11
  11 -10  -9    0.26    0.14
  10 -10  -9    0.04    0.13
  10 -10  -9    0.23    0.14
   9 -10  -9    1.68    0.26
   9 -10  -9    1.92    0.25
   8 -10  -9    1.16    0.24
   8 -10  -9    1.16    0.26
   7 -10  -9    0.06    0.19
   6 -10  -9   -0.12    0.89
   6 -10  -9   -0.01    0.28
   5 -10  -9    1.71    1.27
   5 -10  -9    1.52    0.18
   5 -10  -9    2.03    0.24
   4 -10  -9    3.51    0.29
   4 -10  -9    3.66    0.34
   3 -10  -9    1.18    0.16
   3 -10  -9    1.07    0.17
   2 -10  -9    5.57    0.44
   2 -10  -9    5.01    0.40
   1 -10  -9   -0.01    0.10
   1 -10  -9    0.10    0.14
   0 -10  -9    1.22    0.22
   0 -10  -9    0.47    0.11
  -1 -10  -9    3.94    0.36
  -2 -10  -9    5.04    0.42
  13 -11  -9    0.01    0.11
  12 -11  -9    0.17    0.13
  11 -11  -9   -0.04    0.13
  10 -11  -9    0.73    0.16
   9 -11  -9   -0.03    0.14
   5 -11  -9    1.30    0.19
   4 -11  -9    0.31    0.13
   4 -11  -9    0.38    0.09
   3 -11  -9   10.70    0.77
   3 -11  -9    9.91    0.74
   2 -11  -9    0.14    0.13
   2 -11  -9   -0.03    0.09
   1 -11  -9    0.85    0.15
   1 -11  -9    0.59    0.11
   0 -11  -9    0.24    0.13
   0 -11  -9    0.06    0.09
  -1 -11  -9    0.22    0.13
  -1 -11  -9    0.00    0.08
  12 -12  -9    0.09    0.11
  11 -12  -9    0.29    0.13
  10 -12  -9    0.23    0.13
   4 -12  -9    3.10    0.30
   3 -12  -9    1.26    0.22
   3 -12  -9    2.00    0.24
   2 -12  -9    0.35    0.13
   2 -12  -9    0.05    0.10
   1 -12  -9    0.10    0.13
   0 -12  -9    0.09    0.12
  11 -13  -9    0.21    0.11
   4 -13  -9    1.01    0.19
   3 -13  -9    0.52    0.13
  -1  19 -10    0.16    0.12
  -2  19 -10    0.09    0.12
  -3  19 -10   -0.03    0.12
  -4  19 -10    0.02    0.12
   2  18 -10    0.38    0.12
   1  18 -10    0.01    0.12
   0  18 -10    0.14    0.12
  -1  18 -10    0.15    0.13
  -2  18 -10    1.69    0.26
  -3  18 -10   -0.11    0.12
  -4  18 -10    0.01    0.13
  -5  18 -10    0.09    0.14
   4  17 -10    0.21    0.11
   3  17 -10    0.04    0.11
   2  17 -10    1.28    0.23
   1  17 -10    0.36    0.13
   0  17 -10    0.29    0.13
  -1  17 -10    0.01    0.13
  -2  17 -10    0.05    0.14
  -3  17 -10    1.12    0.25
  -4  17 -10   -0.11    0.14
  -5  17 -10    0.60    0.16
  -6  17 -10    0.24    0.14
  -8  17 -10   -0.48    0.37
   5  16 -10    0.10    0.12
   4  16 -10    0.09    0.13
   3  16 -10   -0.03    0.13
   2  16 -10    0.44    0.14
   1  16 -10    3.92    0.36
   0  16 -10   -0.08    0.14
  -1  16 -10    0.49    0.15
  -2  16 -10    0.56    0.15
  -3  16 -10    0.13    0.15
  -4  16 -10    0.47    0.16
  -5  16 -10    1.82    0.31
  -6  16 -10   -0.03    0.16
  -6  16 -10   -0.02    0.45
  -7  16 -10    0.10    0.41
  -8  16 -10    0.24    0.41
  -9  16 -10   -0.27    0.38
   7  15 -10    0.03    0.12
   6  15 -10    1.23    0.24
   5  15 -10    0.01    0.14
   4  15 -10    0.98    0.25
   3  15 -10    1.27    0.25
   2  15 -10    2.24    0.28
   1  15 -10    0.05    0.13
   0  15 -10   -0.04    0.13
  -1  15 -10    1.10    0.25
  -2  15 -10    4.08    0.39
  -3  15 -10    0.88    0.18
  -4  15 -10   -0.01    0.16
  -5  15 -10    1.34    0.43
  -5  15 -10    1.25    0.32
  -6  15 -10    0.11    0.18
  -6  15 -10    0.13    0.40
  -7  15 -10    1.43    0.44
  -8  15 -10    0.65    0.41
  -9  15 -10    1.95    0.45
   8  14 -10    0.17    0.12
   7  14 -10    2.14    0.29
   6  14 -10    1.06    0.25
   5  14 -10    7.21    0.73
   5  14 -10    6.96    0.57
   4  14 -10    0.55    0.16
   3  14 -10    0.18    0.14
   2  14 -10    0.64    0.15
   1  14 -10   12.34    0.92
   0  14 -10   -0.01    0.13
  -1  14 -10   20.12    1.47
  -2  14 -10    3.71    0.38
  -3  14 -10    8.09    0.62
  -3  14 -10    5.29    1.22
  -4  14 -10    4.21    0.68
  -4  14 -10    3.59    0.42
  -5  14 -10    9.31    0.85
  -5  14 -10   12.94    0.97
  -6  14 -10    0.73    0.23
  -6  14 -10    1.03    0.40
  -7  14 -10    0.43    0.39
  -8  14 -10    0.11    0.40
  -9  14 -10    0.08    0.40
 -10  14 -10    1.61    0.43
   9  13 -10    2.02    0.27
   8  13 -10    2.17    0.28
   7  13 -10    1.93    0.32
   6  13 -10    5.04    0.50
   4  13 -10    0.20    0.15
   3  13 -10    2.17    0.28
   2  13 -10    0.66    0.15
   1  13 -10    1.20    0.23
   0  13 -10    1.69    0.25
  -1  13 -10   10.80    0.82
  -2  13 -10    1.86    0.30
  -3  13 -10   -0.46    0.66
  -3  13 -10   -0.06    0.17
  -4  13 -10   -0.17    0.36
  -4  13 -10   -0.08    0.19
  -5  13 -10    0.01    0.21
  -5  13 -10    0.13    0.96
  -5  13 -10    0.16    0.37
  -6  13 -10   -0.06    1.04
  -6  13 -10    0.54    0.23
  -6  13 -10    0.66    0.38
  -7  13 -10    1.06    0.41
  -8  13 -10    2.42    0.62
  -9  13 -10    0.61    0.42
 -10  13 -10    0.49    0.43
  10  12 -10    0.62    0.19
  10  12 -10    0.04    0.11
   9  12 -10    0.12    0.07
   9  12 -10    0.04    0.13
   8  12 -10    2.60    0.32
   7  12 -10    0.18    0.16
   7  12 -10    1.25    0.26
   6  12 -10    0.33    0.12
   5  12 -10    0.21    0.12
   3  12 -10    0.21    0.13
   2  12 -10    0.92    0.22
   1  12 -10   17.62    1.28
   0  12 -10   -0.12    0.12
  -1  12 -10   -1.76    1.27
  -2  12 -10    1.80    0.31
  -2  12 -10    1.80    1.67
  -3  12 -10    1.58    0.34
  -3  12 -10    2.17    0.54
  -4  12 -10    0.76    0.22
  -4  12 -10    1.49    0.36
  -5  12 -10   -0.05    0.22
  -5  12 -10   -0.22    0.35
  -5  12 -10    0.32    0.98
  -6  12 -10    0.35    0.25
  -6  12 -10    0.17    1.06
  -6  12 -10    0.79    0.38
  -7  12 -10    0.50    0.39
  -8  12 -10    0.87    0.41
  -9  12 -10    2.77    0.65
 -10  12 -10    0.66    0.44
 -11  12 -10    1.17    0.41
  11  11 -10    0.65    0.18
  11  11 -10    0.27    0.11
  10  11 -10    0.00    0.07
   9  11 -10   -0.18    0.11
   9  11 -10    0.05    0.08
   8  11 -10    0.02    0.08
   8  11 -10    0.04    0.11
   7  11 -10    0.08    0.12
   7  11 -10    0.19    0.10
   6  11 -10    0.14    0.11
   5  11 -10    0.22    0.15
   5  11 -10    0.12    0.11
   4  11 -10    0.18    0.10
   2  11 -10    2.32    0.26
   1  11 -10   11.04    0.82
   0  11 -10   -0.08    0.12
   0  11 -10   -1.28    1.13
  -1  11 -10    1.44    1.13
  -1  11 -10    2.01    0.27
  -2  11 -10   10.50    0.90
  -2  11 -10    9.78    0.80
  -2  11 -10   12.31    1.94
  -3  11 -10    7.15    0.65
  -3  11 -10    7.64    0.72
  -3  11 -10    8.76    1.83
  -4  11 -10    1.87    0.49
  -4  11 -10    1.17    0.94
  -4  11 -10    2.07    0.40
  -5  11 -10   10.88    0.90
  -5  11 -10   10.37    0.86
  -5  11 -10    8.10    1.68
  -6  11 -10    3.00    0.56
  -6  11 -10    2.57    0.48
  -6  11 -10    1.90    1.26
  -7  11 -10    0.24    0.38
  -7  11 -10    0.83    1.19
  -8  11 -10    0.38    0.41
  -9  11 -10    0.10    0.42
 -10  11 -10    0.64    0.45
 -11  11 -10    1.68    0.47
  11  10 -10    0.04    0.10
  11  10 -10    0.31    0.07
  10  10 -10    0.10    0.08
  10  10 -10    0.05    0.11
   9  10 -10    0.05    0.08
   9  10 -10    0.07    0.11
   8  10 -10   -0.04    0.09
   8  10 -10    0.05    0.12
   7  10 -10    1.38    0.34
   6  10 -10    2.99    0.39
   5  10 -10   15.41    1.15
   4  10 -10    0.02    0.09
   4  10 -10    0.03    0.13
   3  10 -10    0.12    0.08
   2  10 -10    0.14    0.11
   1  10 -10   -0.06    0.11
   1  10 -10   -1.05    1.02
   0  10 -10   10.04    1.79
   0  10 -10    7.24    0.57
   0  10 -10    7.21    0.54
  -1  10 -10    0.18    0.94
  -1  10 -10    0.13    0.09
  -1  10 -10    0.26    0.14
  -2  10 -10    0.46    0.17
  -2  10 -10    0.91    0.99
  -2  10 -10    0.09    0.32
  -3  10 -10    0.65    0.91
  -3  10 -10    0.25    0.30
  -3  10 -10    0.55    0.20
  -4  10 -10    5.35    1.34
  -4  10 -10    6.44    0.61
  -4  10 -10    7.00    0.67
  -4  10 -10    8.21    1.74
  -5  10 -10    1.15    1.11
  -5  10 -10    1.80    0.44
  -5  10 -10    2.46    0.51
  -6  10 -10    0.11    0.36
  -6  10 -10    0.63    1.16
  -7  10 -10    0.22    0.39
  -7  10 -10    0.50    1.24
  -8  10 -10   -0.39    0.41
  -9  10 -10    0.02    0.44
 -10  10 -10    0.11    0.45
 -11  10 -10    0.49    0.46
  12   9 -10   -0.06    0.06
  11   9 -10   -0.03    0.08
  11   9 -10   -0.12    0.10
  10   9 -10    2.40    0.32
  10   9 -10    2.50    0.36
   9   9 -10   -0.12    0.08
   9   9 -10    0.01    0.11
   8   9 -10    1.24    0.33
   7   9 -10    0.33    0.11
   6   9 -10    0.08    0.10
   5   9 -10    0.23    0.10
   4   9 -10    0.50    0.14
   3   9 -10    1.20    0.16
   3   9 -10    0.79    0.20
   2   9 -10    4.97    0.48
   2   9 -10    6.64    0.44
   2   9 -10    5.28    1.70
   1   9 -10   -0.59    0.91
   1   9 -10   -0.04    0.07
   0   9 -10    6.86    1.60
  -1   9 -10    0.26    0.90
  -2   9 -10    0.67    0.87
  -3   9 -10    8.97    0.76
  -3   9 -10    7.85    0.69
  -4   9 -10   18.96    1.37
  -4   9 -10   16.90    1.34
  -5   9 -10    6.89    0.68
  -5   9 -10    4.67    1.48
  -5   9 -10    6.95    0.64
  -6   9 -10    2.03    0.40
  -6   9 -10    1.59    1.34
  -7   9 -10    3.70    0.64
  -7   9 -10    3.58    1.61
  -8   9 -10    3.69    0.70
  -9   9 -10    1.05    0.50
 -10   9 -10    0.83    0.48
 -11   9 -10    0.97    0.49
  13   8 -10    0.05    0.06
  12   8 -10   -0.01    0.07
  12   8 -10   -0.12    0.10
  11   8 -10   -0.09    0.08
  11   8 -10   -0.08    0.10
  10   8 -10   -0.09    0.08
  10   8 -10   -0.01    0.10
   9   8 -10    1.87    0.34
   8   8 -10    1.58    0.33
   7   8 -10    2.78    0.36
   6   8 -10    9.13    0.71
   5   8 -10    1.63    0.27
   4   8 -10    1.54    0.24
   4   8 -10    1.81    0.23
   4   8 -10    1.78    0.19
   3   8 -10    0.14    0.08
   3   8 -10   -0.03    0.07
   2   8 -10   -0.02    0.89
   0   8 -10   -0.07    0.82
  -1   8 -10    7.02    1.45
  -3   8 -10    2.49    0.96
  -3   8 -10    3.00    0.51
  -4   8 -10    0.06    0.30
  -4   8 -10    0.19    0.19
  -4   8 -10    0.13    0.93
  -5   8 -10    5.44    1.64
  -5   8 -10    8.72    0.77
  -6   8 -10    1.97    0.42
  -6   8 -10    1.71    1.40
  -7   8 -10   -0.01    1.36
  -7   8 -10    0.08    0.10
  -7   8 -10   -0.21    0.42
  -8   8 -10    1.47    0.50
  -8   8 -10    1.28    1.86
  -8   8 -10    1.27    0.18
  -9   8 -10    0.42    0.49
  -9   8 -10    0.29    0.11
 -10   8 -10    0.04    0.52
 -11   8 -10    0.96    0.53
  13   7 -10   -0.04    0.06
  12   7 -10    0.17    0.07
  12   7 -10    0.20    0.10
  11   7 -10    0.10    0.10
  11   7 -10   -0.04    0.08
  10   7 -10   -0.13    0.08
  10   7 -10   -0.09    0.10
   9   7 -10    7.72    0.66
   8   7 -10    4.00    0.44
   7   7 -10    0.34    0.10
   6   7 -10    6.55    0.55
   5   7 -10    1.56    0.25
   5   7 -10    1.36    0.17
   4   7 -10    1.57    0.23
   3   7 -10    2.06    0.24
   3   7 -10    1.69    1.02
   2   7 -10    9.00    1.66
   1   7 -10    1.95    0.93
   0   7 -10    1.07    0.83
  -3   7 -10    3.70    1.16
  -3   7 -10    5.08    0.37
  -4   7 -10    0.92    0.11
  -4   7 -10    1.35    0.35
  -4   7 -10    1.15    1.04
  -5   7 -10   14.60    0.99
  -5   7 -10   12.38    1.14
  -6   7 -10    1.21    1.39
  -6   7 -10    0.39    0.41
  -6   7 -10    0.56    0.12
  -7   7 -10    0.82    0.48
  -7   7 -10    0.81    0.14
  -7   7 -10    0.95    1.63
  -8   7 -10    2.00    0.52
  -8   7 -10    2.08    0.24
  -9   7 -10    1.92    0.57
  -9   7 -10    2.32    0.24
 -10   7 -10    2.56    0.59
 -10   7 -10    3.21    0.27
  14   6 -10    1.31    0.21
  13   6 -10    0.16    0.07
  13   6 -10    0.20    0.09
  12   6 -10    0.07    0.07
  12   6 -10    0.13    0.10
  11   6 -10   -0.11    0.07
  11   6 -10    0.04    0.11
  10   6 -10    1.22    0.33
  10   6 -10    0.96    0.22
   9   6 -10   -0.11    0.11
   6   6 -10   -0.02    0.08
   5   6 -10    0.23    0.08
   4   6 -10    2.07    0.25
   3   6 -10   -0.31    0.85
   2   6 -10   11.89    1.75
   1   6 -10    2.16    0.92
  -1   6 -10    1.43    0.14
  -2   6 -10   21.90    1.56
  -3   6 -10   47.08    3.34
  -4   6 -10    0.70    1.03
  -4   6 -10    0.30    0.08
  -4   6 -10    0.26    0.07
  -4   6 -10   -0.03    0.38
  -5   6 -10   27.23    2.10
  -5   6 -10   27.05    1.98
  -5   6 -10   29.10    1.99
  -6   6 -10    6.05    0.44
  -6   6 -10    2.34    1.73
  -6   6 -10    5.38    0.77
  -6   6 -10    6.01    0.45
  -7   6 -10    1.53    0.21
  -7   6 -10    1.24    1.63
  -7   6 -10    1.15    0.17
  -7   6 -10    1.29    0.50
  -8   6 -10    0.40    0.14
  -8   6 -10    0.58    0.54
  -9   6 -10    1.27    0.58
  -9   6 -10    1.68    0.22
 -10   6 -10    1.11    0.18
 -11   6 -10    0.07    0.08
  14   5 -10    0.85    0.20
  13   5 -10    3.40    0.31
  13   5 -10    3.46    0.39
  12   5 -10    0.21    0.11
  12   5 -10    0.09    0.06
  11   5 -10   -0.08    0.06
   8   5 -10    0.10    0.07
   7   5 -10    8.66    0.62
   7   5 -10    8.47    0.63
   6   5 -10    6.92    0.50
   4   5 -10    9.23    1.66
   3   5 -10    4.40    1.36
   2   5 -10    6.29    1.38
   1   5 -10    7.56    1.39
  -1   5 -10    1.68    0.16
  -2   5 -10    0.67    0.91
  -3   5 -10   23.96    1.72
  -3   5 -10   24.39    1.72
  -4   5 -10   10.52    0.99
  -4   5 -10   11.14    0.81
  -4   5 -10   11.54    0.81
  -5   5 -10    0.28    1.35
  -5   5 -10    1.41    0.17
  -5   5 -10    1.88    0.19
  -6   5 -10   19.12    1.36
  -6   5 -10   18.19    1.55
  -6   5 -10   19.32    1.36
  -7   5 -10   15.45    1.12
  -7   5 -10   13.88    1.39
  -7   5 -10   16.39    1.12
  -8   5 -10    0.29    0.14
  -8   5 -10    0.36    0.10
  -8   5 -10   -0.34    0.58
  -9   5 -10    0.19    0.09
  -9   5 -10    0.02    0.13
 -10   5 -10    0.05    0.12
 -11   5 -10    1.20    0.15
  14   4 -10    0.28    0.09
  14   4 -10    0.14    0.06
  13   4 -10    4.63    0.39
  13   4 -10    4.94    0.47
  12   4 -10   -0.01    0.06
  11   4 -10    0.99    0.20
  10   4 -10    0.39    0.09
   9   4 -10   15.79    1.13
   8   4 -10    2.22    0.18
   8   4 -10    2.04    0.21
   7   4 -10    3.17    0.26
   7   4 -10    2.89    0.23
   4   4 -10    0.56    0.89
   3   4 -10    7.21    1.43
   2   4 -10    0.51    0.78
   0   4 -10    2.05    0.18
  -1   4 -10    2.66    0.21
  -2   4 -10    6.97    0.51
  -3   4 -10    2.01    0.18
  -3   4 -10    1.41    1.03
  -3   4 -10    2.04    0.19
  -4   4 -10    1.65    0.47
  -4   4 -10    0.91    1.22
  -4   4 -10    1.89    0.18
  -4   4 -10    2.31    0.20
  -5   4 -10   17.21    1.47
  -5   4 -10   17.38    1.27
  -5   4 -10   18.40    1.27
  -6   4 -10    5.28    0.42
  -6   4 -10    4.45    0.88
  -6   4 -10    5.47    0.41
  -7   4 -10    1.09    0.64
  -7   4 -10    1.94    0.22
  -7   4 -10    1.52    0.19
  -7   4 -10    1.42    2.10
  -8   4 -10    5.03    0.42
  -8   4 -10    5.22    0.40
  -9   4 -10    1.31    0.20
  -9   4 -10    1.36    0.17
 -10   4 -10    0.66    0.10
 -10   4 -10    0.62    0.13
  15   3 -10   -0.02    0.05
  14   3 -10   -0.07    0.05
  13   3 -10    3.76    0.32
  12   3 -10    1.63    0.16
  12   3 -10    1.13    0.21
  11   3 -10    4.58    0.36
  10   3 -10    2.95    0.24
   9   3 -10    1.72    0.16
   8   3 -10   14.25    1.02
   7   3 -10    3.98    0.30
   4   3 -10   -0.37    0.72
   3   3 -10   10.89    1.54
   2   3 -10    6.64    1.33
   1   3 -10   40.24    2.86
   0   3 -10    1.47    0.14
  -1   3 -10   14.13    1.01
  -2   3 -10    2.43    0.20
  -2   3 -10    2.35    0.19
  -2   3 -10    1.04    1.23
  -3   3 -10    4.45    0.34
  -3   3 -10    4.48    0.33
  -3   3 -10    2.18    1.44
  -4   3 -10    0.17    0.08
  -4   3 -10    0.50    0.49
  -4   3 -10    0.12    0.10
  -4   3 -10   -0.13    1.52
  -5   3 -10    0.20    0.53
  -5   3 -10    0.53    0.09
  -5   3 -10    0.69    0.12
  -5   3 -10    0.12    1.82
  -6   3 -10    6.09    0.45
  -6   3 -10    5.73    1.03
  -6   3 -10    5.98    0.46
  -6   3 -10    2.51    2.25
  -7   3 -10    8.78    0.65
  -7   3 -10    8.71    0.64
  -8   3 -10   16.77    1.23
  -8   3 -10   17.43    1.23
  -9   3 -10    8.12    0.59
  -9   3 -10    7.67    0.58
 -10   3 -10    0.30    0.09
 -10   3 -10    0.35    0.12
  15   2 -10   -0.05    0.11
  14   2 -10    0.06    0.05
  13   2 -10    3.30    0.25
  13   2 -10    2.58    0.27
  12   2 -10    2.53    0.22
  12   2 -10    2.24    0.25
  11   2 -10    1.15    0.15
  10   2 -10    0.82    0.13
   9   2 -10    2.75    0.23
   8   2 -10   19.00    1.36
   7   2 -10    2.37    0.19
   4   2 -10    1.02    0.70
   3   2 -10    1.50    0.76
   1   2 -10   43.04    3.06
   0   2 -10    1.74    0.16
  -1   2 -10   -0.01    1.03
  -2   2 -10   15.43    1.13
  -2   2 -10   16.33    1.14
  -3   2 -10    2.21    0.21
  -3   2 -10    2.45    0.27
  -3   2 -10    2.48    0.20
  -3   2 -10    2.19    1.52
  -4   2 -10    6.80    0.91
  -4   2 -10    7.29    0.53
  -4   2 -10    2.94    1.84
  -4   2 -10    7.65    0.53
  -5   2 -10   22.90    2.33
  -5   2 -10   29.71    2.02
  -5   2 -10   30.18    2.03
  -6   2 -10    0.36    0.13
  -6   2 -10   -0.50    2.17
  -6   2 -10    0.37    0.10
  -7   2 -10    0.47    0.10
  -7   2 -10   -1.29    2.50
  -7   2 -10    0.24    0.13
  -8   2 -10    0.14    0.13
  -8   2 -10    0.21    0.10
  -9   2 -10    0.18    0.12
  -9   2 -10    0.24    0.10
 -10   2 -10    0.19    0.08
 -10   2 -10   -0.14    0.10
  15   1 -10    1.30    0.20
  15   1 -10    0.88    0.16
  14   1 -10    0.92    0.14
  13   1 -10   -0.03    0.05
  13   1 -10    0.01    0.09
  12   1 -10    1.24    0.22
  12   1 -10    1.24    0.16
  11   1 -10    3.91    0.31
  10   1 -10    7.99    0.59
   9   1 -10    9.59    0.70
   8   1 -10   40.45    2.88
   7   1 -10    1.28    0.14
   4   1 -10    8.96    1.25
   3   1 -10    6.06    1.15
   2   1 -10    2.52    0.21
   1   1 -10   30.45    2.17
   0   1 -10    2.38    0.20
  -1   1 -10    4.86    1.60
  -1   1 -10    8.97    0.61
  -2   1 -10    0.21    1.26
  -2   1 -10    1.55    0.25
  -2   1 -10    1.27    0.15
  -2   1 -10    1.75    0.16
  -3   1 -10    0.27    0.53
  -3   1 -10    0.13    0.07
  -3   1 -10    0.21    0.09
  -3   1 -10   -2.01    1.45
  -3   1 -10    0.14    0.11
  -4   1 -10    2.00    0.20
  -4   1 -10   -0.62    1.77
  -5   1 -10    0.08    0.09
  -5   1 -10   -0.38    2.02
  -5   1 -10    0.11    0.11
  -6   1 -10   -1.03    2.18
  -7   1 -10    0.01    0.09
  -7   1 -10    0.17    0.12
  -8   1 -10    0.25    0.12
  -8   1 -10    0.14    0.10
  -9   1 -10    0.17    0.09
  -9   1 -10    0.08    0.12
 -10   1 -10    0.10    0.08
  15   0 -10   -0.06    0.05
  14   0 -10    0.76    0.13
  14   0 -10    0.31    0.06
  13   0 -10   16.70    1.16
  13   0 -10   15.40    1.16
  12   0 -10    0.66    0.10
  11   0 -10    0.01    0.08
  10   0 -10    2.31    0.22
   9   0 -10    0.19    0.08
   9   0 -10    0.32    0.14
   8   0 -10    0.23    0.14
   8   0 -10    0.19    0.09
   7   0 -10    8.86    0.65
   2   0 -10   15.97    1.14
   1   0 -10    0.10    0.06
   0   0 -10   12.93    1.62
   0   0 -10   14.12    0.99
  -1   0 -10    9.20    0.67
  -1   0 -10    5.67    1.59
  -1   0 -10   10.15    0.70
  -2   0 -10    0.69    1.38
  -2   0 -10    0.10    0.09
  -2   0 -10    0.03    0.11
  -2   0 -10    0.14    0.07
  -3   0 -10   14.48    1.06
  -3   0 -10   15.45    1.08
  -3   0 -10   14.63    1.06
  -4   0 -10   -0.62    1.62
  -4   0 -10    2.21    0.22
  -4   0 -10    2.34    0.21
  -4   0 -10    2.23    0.28
  -5   0 -10    0.74    0.11
  -5   0 -10   -0.09    1.80
  -5   0 -10    0.87    0.13
  -6   0 -10    1.37    0.18
  -6   0 -10    1.53    0.20
  -6   0 -10   -0.53    1.79
  -7   0 -10    6.26    0.49
  -7   0 -10    6.59    0.48
  -8   0 -10    0.17    0.10
  -8   0 -10    0.06    0.12
  -9   0 -10   -0.02    0.11
  -9   0 -10    0.00    0.09
  15  -1 -10    0.67    0.13
  14  -1 -10    0.89    0.14
  14  -1 -10    0.70    0.17
  13  -1 -10    7.71    0.53
  13  -1 -10    6.42    0.54
  12  -1 -10    0.29    0.10
  11  -1 -10    0.23    0.10
  10  -1 -10    3.07    0.27
   9  -1 -10    0.59    0.17
   9  -1 -10    0.27    0.09
   8  -1 -10   30.69    2.13
   8  -1 -10   28.47    2.11
   7  -1 -10    7.65    0.57
  -3   1  10    9.54    1.38
   2  -1 -10    5.41    0.41
  -2   1  10    5.87    1.06
   1  -1 -10    8.19    1.19
   1  -1 -10    7.70    0.57
   0  -1 -10    3.65    0.32
   0  -1 -10    3.74    1.27
   0  -1 -10    3.82    0.29
  -1  -1 -10    0.22    1.09
  -1  -1 -10    0.30    0.07
  -1  -1 -10    0.26    0.12
  -2  -1 -10    1.50    0.17
  -2  -1 -10    0.65    1.28
  -2  -1 -10    1.82    0.23
  -2  -1 -10    1.77    0.17
  -3  -1 -10    8.51    0.65
  -3  -1 -10    8.26    0.62
  -3  -1 -10    8.59    0.62
  -4  -1 -10    1.39    1.82
  -4  -1 -10    1.57    0.18
  -4  -1 -10    1.80    0.19
  -4  -1 -10    1.49    0.24
  -5  -1 -10    1.92    2.00
  -5  -1 -10    5.90    0.45
  -5  -1 -10    5.99    0.44
  -6  -1 -10    0.91    0.14
  -6  -1 -10    0.94    0.12
  -7  -1 -10    2.30    0.24
  -7  -1 -10    2.69    0.24
  -8  -1 -10    0.00    0.09
  -8  -1 -10   -0.02    0.11
  -9  -1 -10    0.02    0.08
  15  -2 -10   -0.04    0.05
  15  -2 -10    0.04    0.08
  14  -2 -10    4.57    0.34
  14  -2 -10    4.03    0.35
  13  -2 -10    1.06    0.15
  13  -2 -10    0.44    0.08
  12  -2 -10    1.88    0.21
  11  -2 -10    0.13    0.11
  10  -2 -10    4.66    0.38
   9  -2 -10    2.19    0.23
   9  -2 -10    2.32    0.27
   8  -2 -10    8.73    0.63
   8  -2 -10    7.70    0.61
  -7   2  10   19.98    1.91
  -5   2  10    2.78    0.86
  -4   2  10    6.15    1.36
  -3   2  10    8.63    1.43
   2  -2 -10    0.02    0.07
   2  -2 -10    0.08    0.50
  -2   2  10    0.60    0.54
   1  -2 -10    3.36    1.04
   1  -2 -10    2.91    0.28
   1  -2 -10    3.05    0.24
   0  -2 -10   -0.19    0.98
   0  -2 -10    0.38    0.12
   0  -2 -10    0.50    0.08
  -1  -2 -10    2.80    0.27
  -1  -2 -10    2.63    0.22
  -1  -2 -10    1.82    1.26
  -2  -2 -10    0.04    0.08
  -2  -2 -10    0.09    0.13
  -2  -2 -10    0.16    1.28
  -2  -2 -10   -0.03    0.08
  -3  -2 -10    1.07    0.17
  -3  -2 -10    1.15    0.16
  -3  -2 -10   -0.39    1.45
  -3  -2 -10    1.07    0.12
  -4  -2 -10    6.16    0.52
  -4  -2 -10    6.95    0.48
  -4  -2 -10    6.44    0.48
  -4  -2 -10    2.62    1.75
  -5  -2 -10    2.17    1.81
  -5  -2 -10    2.07    0.21
  -5  -2 -10    2.20    0.22
  -6  -2 -10    0.80    0.13
  -6  -2 -10    0.87    0.12
  -7  -2 -10   -0.03    0.10
  -7  -2 -10   -0.08    0.11
  -8  -2 -10    0.02    0.09
  15  -3 -10    0.38    0.08
  15  -3 -10    0.15    0.05
  14  -3 -10   -0.04    0.05
  14  -3 -10   -0.01    0.08
  13  -3 -10    0.80    0.16
  12  -3 -10    0.09    0.11
  11  -3 -10    0.85    0.19
  10  -3 -10    1.67    0.21
  10  -3 -10    1.34    0.25
   9  -3 -10    0.10    0.13
   9  -3 -10    0.01    0.11
   8  -3 -10    1.07    0.23
   8  -3 -10    1.26    0.20
  -7   3  10   21.73    2.92
  -6   3  10    2.02    0.89
  -5   3  10    1.68    0.86
   4  -3 -10    4.89    0.40
  -4   3  10    7.12    1.46
   3  -3 -10    3.43    0.28
   3  -3 -10    2.95    0.25
   3  -3 -10    2.80    0.77
   2  -3 -10    0.95    0.18
   2  -3 -10    0.69    0.59
   2  -3 -10    0.78    0.10
   1  -3 -10    1.10    0.80
   1  -3 -10    1.05    0.19
   1  -3 -10    1.08    0.14
   0  -3 -10    1.85    0.17
   0  -3 -10    1.71    0.22
   0  -3 -10    1.84    1.21
  -1  -3 -10    5.70    0.39
  -1  -3 -10    2.15    1.34
  -1  -3 -10    5.12    0.43
  -2  -3 -10    2.39    0.22
  -2  -3 -10    1.33    1.46
  -2  -3 -10    2.63    0.28
  -3  -3 -10    7.90    0.62
  -3  -3 -10    7.92    0.58
  -4  -3 -10   -0.46    1.54
  -4  -3 -10    0.06    0.09
  -4  -3 -10    0.15    0.14
  -5  -3 -10    0.92    0.16
  -5  -3 -10    0.77    0.12
  -6  -3 -10    0.15    0.10
  -7  -3 -10    0.45    0.11
  -8  -3 -10    2.11    0.20
  15  -4 -10    0.97    0.14
  15  -4 -10    0.77    0.17
  14  -4 -10    0.08    0.05
  14  -4 -10    0.08    0.09
  13  -4 -10    3.12    0.28
  12  -4 -10    3.36    0.31
  11  -4 -10    0.22    0.15
  11  -4 -10    0.21    0.12
  10  -4 -10    0.55    0.15
  10  -4 -10    0.78    0.15
   9  -4 -10    0.17    0.12
   9  -4 -10    0.38    0.14
   8  -4 -10    9.66    0.75
   8  -4 -10   10.09    0.74
   7  -4 -10    4.51    0.40
   6  -4 -10    0.33    0.10
  -6   4  10   -1.82    1.13
   5  -4 -10    5.45    0.43
  -5   4  10    6.56    1.66
   4  -4 -10    5.16    0.96
   4  -4 -10    5.21    0.43
  -4   4  10    9.57    1.65
   3  -4 -10    1.64    0.67
   3  -4 -10    2.10    0.22
   2  -4 -10    1.14    0.69
   2  -4 -10    1.85    0.18
   2  -4 -10    1.73    0.22
   1  -4 -10   -0.16    0.79
   1  -4 -10    0.06    0.08
   1  -4 -10    0.06    0.11
   0  -4 -10   -0.05    0.08
   0  -4 -10   -0.01    0.12
   0  -4 -10    0.31    1.09
  -1  -4 -10    0.18    0.09
  -1  -4 -10   -0.24    1.38
  -1  -4 -10   -0.05    0.12
  -2  -4 -10    1.12    0.16
  -2  -4 -10    1.06    0.17
  -2  -4 -10   -0.81    1.40
  -3  -4 -10   -0.66    1.47
  -4  -4 -10   -0.03    0.10
  -4  -4 -10    0.17    0.14
  -5  -4 -10    2.58    0.28
  -5  -4 -10    2.45    0.24
  -6  -4 -10    3.24    0.28
  -7  -4 -10    1.97    0.20
  15  -5 -10    0.23    0.08
  14  -5 -10    0.31    0.10
  13  -5 -10    0.03    0.11
  12  -5 -10    0.75    0.16
  12  -5 -10    0.71    0.14
  11  -5 -10   -0.03    0.14
  11  -5 -10    0.17    0.13
  10  -5 -10    0.24    0.15
  10  -5 -10    0.38    0.14
   9  -5 -10    0.09    0.13
   9  -5 -10    0.01    0.14
   8  -5 -10    0.43    0.15
   8  -5 -10    0.35    0.15
   7  -5 -10   -0.15    0.13
   6  -5 -10   30.29    2.18
   6  -5 -10   30.70    2.20
   5  -5 -10    4.41    1.02
   5  -5 -10    5.09    0.40
   4  -5 -10    1.40    0.71
   4  -5 -10    1.35    0.20
   3  -5 -10    1.89    0.22
   3  -5 -10    1.41    0.73
   2  -5 -10    0.26    0.76
   2  -5 -10    0.40    0.12
   1  -5 -10    2.28    1.05
   0  -5 -10    3.19    0.31
   0  -5 -10    3.13    0.26
   0  -5 -10    2.41    1.20
  -1  -5 -10    0.03    0.13
  -1  -5 -10    0.01    0.09
  -1  -5 -10   -0.86    1.24
  -2  -5 -10   12.14    0.85
  -2  -5 -10   11.35    0.88
  -3  -5 -10   -0.02    0.14
  -3  -5 -10    0.10    0.10
  -4  -5 -10   11.07    0.86
  -4  -5 -10   11.82    0.83
  -5  -5 -10    0.14    0.10
  -5  -5 -10    0.07    0.13
  -6  -5 -10    0.24    0.10
  15  -6 -10    0.41    0.09
  14  -6 -10    0.43    0.10
  13  -6 -10    0.05    0.11
  12  -6 -10    1.53    0.22
  12  -6 -10    1.47    0.25
  11  -6 -10    0.37    0.14
  11  -6 -10    0.51    0.16
  10  -6 -10    5.98    0.49
  10  -6 -10    5.97    0.50
   9  -6 -10    0.40    0.15
   9  -6 -10    0.66    0.16
   8  -6 -10   -0.06    0.14
   8  -6 -10   -0.06    0.15
   7  -6 -10    8.72    1.22
   7  -6 -10    7.64    0.62
   6  -6 -10    0.09    0.11
   6  -6 -10    0.10    0.58
   5  -6 -10    0.84    0.74
   5  -6 -10    0.76    0.13
   4  -6 -10    0.01    0.70
   4  -6 -10    0.07    0.11
   3  -6 -10    0.32    0.69
   3  -6 -10    0.05    0.12
   2  -6 -10    0.07    0.84
   2  -6 -10   -0.13    0.12
   1  -6 -10    1.56    0.23
   1  -6 -10    0.96    0.94
   0  -6 -10   -0.42    0.94
   0  -6 -10    0.05    0.13
  -1  -6 -10    0.19    0.10
  -1  -6 -10   -0.89    1.08
  -1  -6 -10    0.24    0.14
  -2  -6 -10    0.23    0.14
  -2  -6 -10    0.02    0.10
  -3  -6 -10    6.35    0.52
  -3  -6 -10    6.54    0.49
  -4  -6 -10    4.01    0.33
  -4  -6 -10    4.01    0.37
  -5  -6 -10    0.86    0.14
  -5  -6 -10    0.68    0.11
  15  -7 -10    0.88    0.13
  14  -7 -10    0.05    0.09
  13  -7 -10    0.94    0.19
  12  -7 -10    0.01    0.11
  12  -7 -10    0.01    0.13
  11  -7 -10    0.09    0.13
  11  -7 -10   -0.19    0.14
  10  -7 -10    1.85    0.26
  10  -7 -10    2.07    0.27
   9  -7 -10    0.73    0.16
   9  -7 -10    0.39    0.16
   8  -7 -10    1.77    0.27
   8  -7 -10    2.17    0.27
   8  -7 -10    1.82    0.81
   7  -7 -10    3.12    1.07
   7  -7 -10    2.64    0.30
   6  -7 -10    3.22    1.10
   5  -7 -10    1.56    0.86
   5  -7 -10    1.70    0.22
   4  -7 -10    1.84    0.23
   4  -7 -10    1.61    0.93
   3  -7 -10    0.48    0.84
   3  -7 -10    0.83    0.14
   2  -7 -10    0.30    0.13
   2  -7 -10    0.20    0.91
   2  -7 -10    0.25    0.12
   1  -7 -10    0.28    0.96
   1  -7 -10    0.07    0.13
   0  -7 -10   -0.48    0.93
   0  -7 -10    0.03    0.13
  -1  -7 -10    0.16    0.14
  -2  -7 -10   -0.01    0.13
  -3  -7 -10    7.95    0.62
  -4  -7 -10    0.35    0.14
  -5  -7 -10    0.08    0.11
  14  -8 -10    0.84    0.15
  13  -8 -10    1.48    0.23
  13  -8 -10    1.55    0.21
  12  -8 -10   -0.09    0.10
  12  -8 -10   -0.03    0.13
  11  -8 -10    0.71    0.15
  11  -8 -10    1.07    0.22
  10  -8 -10    0.28    0.14
  10  -8 -10    0.44    0.14
   9  -8 -10    3.61    1.03
   9  -8 -10    3.97    0.38
   9  -8 -10    4.60    0.39
   8  -8 -10   13.14    1.73
   8  -8 -10   16.75    1.16
   8  -8 -10   15.89    1.16
   7  -8 -10    0.72    0.78
   7  -8 -10    0.82    0.21
   6  -8 -10    0.59    0.78
   5  -8 -10    0.12    0.81
   5  -8 -10    0.34    0.13
   4  -8 -10    0.32    0.13
   4  -8 -10    0.12    0.85
   3  -8 -10    1.48    0.22
   3  -8 -10    0.64    0.94
   2  -8 -10   -0.18    0.87
   2  -8 -10    0.13    0.13
   2  -8 -10    0.12    0.11
   1  -8 -10    0.12    0.13
   1  -8 -10    0.22    0.09
   0  -8 -10    1.86    0.25
  -1  -8 -10   -0.05    0.13
  -2  -8 -10    0.03    0.13
  -3  -8 -10    0.63    0.15
  -4  -8 -10    0.08    0.12
  14  -9 -10   -0.04    0.08
  13  -9 -10    0.11    0.11
  13  -9 -10    0.01    0.12
  12  -9 -10   -0.08    0.10
  12  -9 -10   -0.09    0.12
  11  -9 -10    0.45    0.14
  11  -9 -10    0.40    0.13
  10  -9 -10    0.05    0.14
  10  -9 -10    0.09    0.14
   9  -9 -10   11.74    0.87
   9  -9 -10   11.54    0.87
   8  -9 -10    8.29    0.65
   8  -9 -10    8.17    0.65
   7  -9 -10   -0.17    0.78
   7  -9 -10   -0.11    0.19
   6  -9 -10   -0.04    0.78
   5  -9 -10    1.24    1.00
   5  -9 -10    1.89    0.23
   4  -9 -10    1.18    1.71
   3  -9 -10    0.21    0.13
   2  -9 -10    0.40    0.14
   1  -9 -10    0.90    0.15
   1  -9 -10    1.69    0.22
   0  -9 -10    0.08    0.08
   0  -9 -10   -0.07    0.13
  -1  -9 -10    0.68    0.15
  -1  -9 -10    0.14    0.10
  -2  -9 -10    3.06    0.31
  -3  -9 -10    0.23    0.12
  13 -10 -10    0.07    0.10
  12 -10 -10    0.05    0.10
  12 -10 -10   -0.04    0.12
  11 -10 -10    0.02    0.11
  11 -10 -10    0.01    0.12
  10 -10 -10    0.41    0.14
  10 -10 -10    0.38    0.14
   9 -10 -10    1.12    0.23
   9 -10 -10    1.38    0.23
   8 -10 -10    2.39    0.31
   7 -10 -10    1.11    0.22
   6 -10 -10    2.08    0.34
   5 -10 -10    0.29    0.12
   4 -10 -10    2.27    0.26
   3 -10 -10    0.54    0.14
   2 -10 -10   -0.01    0.12
   1 -10 -10    1.25    0.22
   0 -10 -10    1.74    0.24
  -1 -10 -10    0.19    0.13
  12 -11 -10    1.07    0.18
  12 -11 -10    1.24    0.20
  11 -11 -10    0.95    0.19
  11 -11 -10    0.46    0.12
  10 -11 -10    0.17    0.13
  10 -11 -10    0.20    0.12
   9 -11 -10    0.68    0.17
   5 -11 -10    1.61    0.22
   4 -11 -10    0.03    0.11
   3 -11 -10    0.43    0.13
   2 -11 -10    0.03    0.12
   1 -11 -10    1.40    0.22
   0 -11 -10    0.90    0.15
   4 -12 -10    0.51    0.12
   3 -12 -10   -0.01    0.10
   2 -12 -10    0.04    0.11
  -2  19 -11    0.16    0.12
   2  18 -11    0.13    0.12
   1  18 -11    0.12    0.12
   0  18 -11    0.05    0.12
  -1  18 -11   -0.04    0.12
  -2  18 -11    0.87    0.22
  -3  18 -11   -0.08    0.13
  -4  18 -11    0.59    0.14
  -5  18 -11    0.15    0.13
   4  17 -11   -0.10    0.11
   3  17 -11    0.05    0.12
   2  17 -11    1.07    0.22
   1  17 -11    0.16    0.13
   0  17 -11    0.38    0.14
  -1  17 -11   -0.01    0.13
  -2  17 -11    0.25    0.14
  -3  17 -11    0.97    0.25
  -4  17 -11    0.69    0.16
  -5  17 -11    0.14    0.15
  -7  17 -11   -0.21    0.47
   6  16 -11    0.30    0.11
   5  16 -11   -0.01    0.12
   4  16 -11   -0.07    0.12
   3  16 -11    0.70    0.15
   2  16 -11   -0.08    0.12
   1  16 -11    1.25    0.24
   0  16 -11    4.69    0.42
  -1  16 -11    0.72    0.16
  -2  16 -11   -0.01    0.15
  -3  16 -11   -0.24    0.14
  -4  16 -11   -0.05    0.15
  -5  16 -11    0.21    0.16
  -6  16 -11   -0.08    0.16
  -6  16 -11   -0.52    0.41
  -7  16 -11    0.73    0.42
  -8  16 -11   -0.07    0.40
   7  15 -11    0.23    0.13
   6  15 -11    0.09    0.14
   5  15 -11    0.25    0.14
   4  15 -11    0.11    0.14
   3  15 -11   -0.11    0.13
   2  15 -11    0.44    0.14
   1  15 -11    1.29    0.24
   0  15 -11    0.95    0.24
  -1  15 -11    2.41    0.31
  -2  15 -11    0.10    0.15
  -3  15 -11    1.18    0.29
  -4  15 -11    2.17    0.33
  -5  15 -11   -0.07    0.42
  -5  15 -11   -0.10    0.17
  -6  15 -11    0.63    0.43
  -6  15 -11    0.28    0.19
  -7  15 -11    5.89    0.76
  -8  15 -11    0.14    0.42
  -9  15 -11    0.13    0.39
   8  14 -11    0.10    0.12
   7  14 -11    0.12    0.13
   6  14 -11    1.29    0.27
   5  14 -11    1.60    0.28
   4  14 -11    0.07    0.15
   3  14 -11    0.13    0.14
   2  14 -11    4.42    0.40
   1  14 -11    0.16    0.13
   0  14 -11    0.03    0.13
  -1  14 -11   -0.02    0.14
  -2  14 -11    0.03    0.15
  -3  14 -11    0.09    0.17
  -4  14 -11    1.24    0.44
  -4  14 -11    0.72    0.21
  -5  14 -11    0.13    0.20
  -5  14 -11    0.36    0.42
  -6  14 -11    1.05    0.44
  -6  14 -11    0.51    0.22
  -7  14 -11    0.48    0.45
  -8  14 -11   -0.17    0.43
  -9  14 -11    1.35    0.43
   5  13 -11    1.46    0.27
   4  13 -11    3.32    0.35
   3  13 -11    1.43    0.26
   2  13 -11    0.42    0.14
   1  13 -11    7.48    0.59
   0  13 -11   29.23    2.11
  -1  13 -11    0.78    0.17
  -2  13 -11    3.87    0.41
  -3  13 -11   -0.33    0.41
  -3  13 -11   -0.16    0.18
  -4  13 -11    1.99    0.44
  -4  13 -11    1.16    0.24
  -5  13 -11    0.45    0.89
  -5  13 -11    0.34    0.42
  -5  13 -11   -0.23    0.21
  -6  13 -11    0.84    0.25
  -6  13 -11    1.23    0.43
  -7  13 -11    0.39    0.44
  -8  13 -11    0.87    0.46
  -9  13 -11    0.97    0.43
 -10  13 -11    0.41    0.43
  10  12 -11    0.03    0.11
   9  12 -11    0.00    0.13
   8  12 -11    0.01    0.11
   8  12 -11    0.42    0.15
   7  12 -11   -0.05    0.12
   7  12 -11    0.12    0.15
   6  12 -11   -0.02    0.12
   6  12 -11    0.20    0.20
   3  12 -11    2.84    0.31
   2  12 -11    0.35    0.13
   1  12 -11    0.12    0.13
   0  12 -11   24.08    1.74
  -1  12 -11    1.14    0.28
  -2  12 -11    7.39    0.64
  -2  12 -11    8.23    0.84
  -3  12 -11    2.56    0.40
  -3  12 -11    3.79    0.62
  -4  12 -11    1.65    0.43
  -4  12 -11    1.30    0.25
  -5  12 -11    1.07    0.98
  -5  12 -11    1.32    0.42
  -5  12 -11    1.62    0.42
  -6  12 -11    4.24    0.66
  -6  12 -11    2.31    1.35
  -7  12 -11    0.36    0.42
  -8  12 -11    0.54    0.46
  -9  12 -11    0.65    0.44
 -10  12 -11    1.58    0.47
  11  11 -11    0.07    0.11
  10  11 -11   -0.17    0.10
  10  11 -11    0.02    0.13
   9  11 -11    0.55    0.15
   8  11 -11    0.04    0.11
   8  11 -11    0.24    0.15
   7  11 -11    0.06    0.12
   7  11 -11    0.12    0.15
   6  11 -11    0.05    0.12
   6  11 -11    0.14    0.15
   5  11 -11    0.62    0.16
   5  11 -11    0.24    0.12
   4  11 -11    0.26    0.11
   4  11 -11    0.35    0.24
   3  11 -11    6.07    0.49
   2  11 -11    2.51    0.28
   1  11 -11    1.99    0.26
   0  11 -11    2.35    0.29
   0  11 -11    2.02    1.29
  -1  11 -11    5.18    0.47
  -1  11 -11    6.19    1.78
  -2  11 -11    1.33    2.04
  -2  11 -11   -0.05    0.38
  -3  11 -11    7.53    0.66
  -3  11 -11    7.43    0.78
  -4  11 -11    0.01    0.22
  -4  11 -11    0.53    0.38
  -4  11 -11    0.54    0.81
  -5  11 -11    0.30    0.39
  -5  11 -11    0.36    0.94
  -5  11 -11    0.00    0.25
  -6  11 -11    7.34    0.81
  -7  11 -11    1.39    0.45
  -8  11 -11    0.48    0.46
  -9  11 -11    0.30    0.45
 -10  11 -11    0.49    0.46
  11  10 -11   -0.18    0.10
  11  10 -11    0.13    0.12
  10  10 -11   -0.19    0.11
   9  10 -11    0.06    0.11
   8  10 -11    0.42    0.13
   7  10 -11    2.25    0.37
   6  10 -11   -0.13    0.15
   6  10 -11    0.04    0.11
   5  10 -11    0.28    0.11
   5  10 -11    0.37    0.15
   4  10 -11    8.26    0.60
   4  10 -11    7.20    0.62
   3  10 -11   -0.13    0.08
   3  10 -11    0.02    0.13
   2  10 -11    0.54    0.13
   1  10 -11    0.00    0.12
   1  10 -11   -0.04    0.08
   1  10 -11   -0.22    1.06
   0  10 -11   -0.04    0.07
   0  10 -11   -0.52    0.92
   0  10 -11    0.05    0.13
  -1  10 -11   14.59    1.09
  -1  10 -11   11.49    0.94
  -1  10 -11   12.70    2.02
  -1  10 -11   13.41    0.98
  -2  10 -11    1.82    1.13
  -2  10 -11    1.22    0.39
  -2  10 -11    1.55    0.33
  -3  10 -11    6.47    1.66
  -3  10 -11    5.77    0.55
  -3  10 -11    5.63    0.68
  -4  10 -11    0.50    0.89
  -4  10 -11    0.37    0.23
  -4  10 -11    0.53    0.37
  -5  10 -11    0.63    1.04
  -5  10 -11    0.64    0.26
  -5  10 -11    1.19    0.40
  -6  10 -11    1.02    0.43
  -6  10 -11    1.68    1.20
  -7  10 -11    0.94    0.47
  -8  10 -11    0.34    0.46
  -9  10 -11    0.33    0.46
 -10  10 -11    0.13    0.46
  11   9 -11    0.36    0.11
  10   9 -11    0.01    0.11
   9   9 -11    1.62    0.34
   8   9 -11   -0.03    0.11
   7   9 -11    1.14    0.33
   6   9 -11    0.14    0.11
   6   9 -11    0.28    0.14
   5   9 -11    2.56    0.34
   5   9 -11    2.59    0.28
   4   9 -11    0.02    0.08
   4   9 -11    0.24    0.13
   3   9 -11    1.62    0.24
   3   9 -11    1.60    0.18
   2   9 -11    0.10    0.14
   2   9 -11   -0.12    0.19
   2   9 -11   -0.73    1.02
   2   9 -11    0.13    0.08
   1   9 -11    0.44    0.09
   1   9 -11    0.49    0.99
   1   9 -11    0.30    0.14
   0   9 -11   -0.12    0.07
   0   9 -11   -0.24    0.90
  -1   9 -11    3.16    0.57
  -1   9 -11    1.81    0.19
  -1   9 -11    3.83    1.20
  -2   9 -11    1.61    0.39
  -2   9 -11    1.50    0.97
  -2   9 -11    1.73    0.35
  -3   9 -11    3.83    0.46
  -3   9 -11    4.29    0.60
  -4   9 -11    3.84    0.46
  -4   9 -11    1.95    1.05
  -4   9 -11    4.15    0.61
  -5   9 -11    2.21    1.24
  -5   9 -11    4.09    0.64
  -6   9 -11    1.45    0.46
  -6   9 -11    1.12    1.17
  -7   9 -11    0.43    0.46
  -7   9 -11    0.37    1.36
  -8   9 -11    0.38    0.47
  -9   9 -11    0.05    0.50
 -10   9 -11   -0.05    0.50
  13   8 -11    0.11    0.10
  12   8 -11    2.36    0.33
  11   8 -11    1.68    0.32
  10   8 -11    1.20    0.32
   9   8 -11    0.11    0.11
   8   8 -11    0.22    0.11
   7   8 -11    1.17    0.30
   6   8 -11    2.02    0.31
   5   8 -11    3.12    0.30
   5   8 -11    3.13    0.33
   5   8 -11    2.97    0.27
   4   8 -11    2.43    0.30
   4   8 -11    3.13    0.29
   4   8 -11    2.88    0.24
   3   8 -11    0.06    0.08
   3   8 -11    0.23    0.14
   2   8 -11    1.62    0.25
   2   8 -11    0.72    1.00
   2   8 -11    1.28    0.17
   1   8 -11    0.92    0.97
   1   8 -11    0.45    0.23
   1   8 -11    0.48    0.10
   0   8 -11    0.14    0.11
   0   8 -11    0.15    0.86
   0   8 -11    0.01    0.26
  -1   8 -11    1.60    0.30
  -1   8 -11    2.69    1.01
  -2   8 -11   20.14    1.54
  -3   8 -11    0.39    0.19
  -3   8 -11   -0.04    0.36
  -4   8 -11    0.13    0.38
  -4   8 -11    0.36    0.21
  -4   8 -11    0.25    0.94
  -5   8 -11    1.38    0.44
  -5   8 -11    0.93    1.11
  -6   8 -11    1.86    0.48
  -6   8 -11    0.81    1.35
  -7   8 -11    5.00    1.88
  -7   8 -11    7.75    0.86
  -8   8 -11    1.92    0.56
  -9   8 -11    0.18    0.51
 -10   8 -11   -0.21    0.51
  12   7 -11    0.43    0.11
  11   7 -11    0.32    0.11
  10   7 -11    0.89    0.32
   9   7 -11    0.03    0.11
   8   7 -11    0.04    0.11
   7   7 -11    0.48    0.11
   6   7 -11    0.01    0.09
   6   7 -11   -0.02    0.08
   5   7 -11    2.40    0.30
   5   7 -11    2.77    0.27
   5   7 -11    2.17    0.23
   4   7 -11    3.78    0.32
   4   7 -11    3.37    0.28
   4   7 -11    3.06    0.33
   3   7 -11    2.85    0.26
   3   7 -11    1.75    1.08
   3   7 -11    3.33    0.32
   2   7 -11    0.76    0.93
   1   7 -11    0.01    0.81
   0   7 -11    2.33    0.96
  -2   7 -11   11.18    0.98
  -3   7 -11    9.10    0.67
  -3   7 -11    9.45    0.87
  -4   7 -11    2.80    0.46
  -4   7 -11    2.40    0.22
  -4   7 -11    1.95    1.18
  -5   7 -11    8.59    0.92
  -5   7 -11    9.26    0.66
  -6   7 -11   12.97    1.17
  -7   7 -11    2.06    0.22
  -7   7 -11    3.06    0.76
  -7   7 -11    1.48    1.48
  -8   7 -11    0.86    0.54
  -9   7 -11    0.16    0.58
 -10   7 -11    1.44    0.58
  14   6 -11    0.42    0.11
  13   6 -11    0.15    0.09
  12   6 -11    1.59    0.31
  11   6 -11    4.49    0.47
  10   6 -11    0.53    0.13
   9   6 -11    3.02    0.40
   7   6 -11    3.16    0.27
   6   6 -11    2.43    0.24
   6   6 -11    2.97    0.29
   5   6 -11    4.20    0.35
   5   6 -11    4.89    0.39
   5   6 -11    4.27    0.39
   4   6 -11   -0.13    0.08
   4   6 -11   -0.05    0.13
   3   6 -11    5.90    1.54
   2   6 -11    6.49    1.49
   1   6 -11   21.81    2.30
  -2   6 -11    8.44    0.92
  -2   6 -11    7.41    0.55
  -3   6 -11   15.87    1.27
  -3   6 -11   15.39    1.11
  -4   6 -11    6.08    0.76
  -4   6 -11    5.95    0.44
  -5   6 -11    0.63    0.11
  -5   6 -11    1.38    0.47
  -5   6 -11   -0.37    1.26
  -5   6 -11    0.45    0.09
  -6   6 -11    1.67    0.53
  -6   6 -11    0.45    0.11
  -6   6 -11    0.28    1.32
  -6   6 -11    0.45    0.10
  -7   6 -11    0.63    1.43
  -7   6 -11    0.59    0.55
  -7   6 -11    0.51    0.13
  -7   6 -11    0.35    0.10
  -8   6 -11   13.60    0.96
  -8   6 -11   12.50    1.33
  -9   6 -11    0.64    0.57
  -9   6 -11    0.48    0.11
  13   5 -11    2.98    0.36
  12   5 -11    0.15    0.11
   8   5 -11    0.41    0.10
   7   5 -11    0.31    0.06
   7   5 -11    0.26    0.09
   6   5 -11    2.15    0.22
   6   5 -11    2.46    0.26
   5   5 -11    3.61    0.30
   5   5 -11    3.52    0.33
   4   5 -11    4.32    1.44
   3   5 -11   27.34    2.68
   2   5 -11   41.66    3.60
   1   5 -11    0.43    0.77
  -1   5 -11    5.24    0.39
  -2   5 -11    2.49    0.21
  -3   5 -11    9.63    0.72
  -3   5 -11   10.86    0.97
  -4   5 -11    2.84    0.24
  -4   5 -11    3.04    0.70
  -4   5 -11    1.44    1.14
  -4   5 -11    2.98    0.24
  -5   5 -11   10.28    0.73
  -5   5 -11    9.55    0.73
  -5   5 -11   10.50    1.05
  -6   5 -11    0.11    0.55
  -6   5 -11    0.07    0.09
  -6   5 -11    0.78    1.82
  -6   5 -11   -0.04    0.12
  -7   5 -11    2.15    0.62
  -7   5 -11    1.69    0.20
  -7   5 -11    2.15    2.59
  -7   5 -11    1.80    0.22
  -8   5 -11    0.36    0.62
  -8   5 -11    1.11    0.16
  -8   5 -11    1.28    0.19
  -9   5 -11    0.39    0.10
  -9   5 -11    0.57    0.10
  14   4 -11    0.19    0.10
  13   4 -11    1.79    0.31
  10   4 -11    4.97    0.38
   9   4 -11    2.85    0.23
   8   4 -11    5.39    0.40
   8   4 -11    5.46    0.41
   7   4 -11    1.55    0.21
   7   4 -11    1.12    0.11
   7   4 -11    1.29    0.17
   6   4 -11   11.34    0.87
   6   4 -11   12.60    0.89
   5   4 -11    1.33    0.23
   4   4 -11    1.53    0.93
   3   4 -11    1.57    0.88
   2   4 -11   12.82    1.71
   0   4 -11    3.85    0.30
  -1   4 -11    8.38    0.61
  -2   4 -11    8.59    1.14
  -2   4 -11    8.34    0.61
  -3   4 -11   12.45    1.22
  -3   4 -11   13.68    0.98
  -3   4 -11   14.28    0.98
  -4   4 -11   12.93    1.31
  -4   4 -11   14.66    1.06
  -4   4 -11   15.47    1.05
  -5   4 -11   14.03    0.97
  -5   4 -11   14.23    0.97
  -5   4 -11   12.21    1.27
  -5   4 -11    7.61    2.48
  -6   4 -11    0.50    1.97
  -6   4 -11    3.86    0.88
  -6   4 -11    3.81    0.30
  -6   4 -11    3.60    0.31
  -7   4 -11    0.45    0.65
  -7   4 -11    0.46    0.11
  -7   4 -11    0.61    0.13
  -8   4 -11    0.07    0.12
  -8   4 -11    0.10    0.10
  -9   4 -11    0.39    0.10
  -9   4 -11    0.38    0.09
 -10   4 -11    0.57    0.09
  15   3 -11    0.18    0.11
  14   3 -11    0.14    0.12
  12   3 -11   19.52    1.40
  11   3 -11    0.13    0.08
  10   3 -11    0.32    0.08
   9   3 -11   -0.06    0.06
   8   3 -11    1.12    0.17
   8   3 -11    1.31    0.13
   7   3 -11    9.50    0.71
   7   3 -11    9.51    0.70
   7   3 -11   10.09    0.73
   6   3 -11    2.10    0.25
   4   3 -11    3.61    1.02
   3   3 -11   14.00    1.71
   2   3 -11    0.32    0.70
   1   3 -11   68.85    4.89
   0   3 -11    1.77    0.16
  -1   3 -11    3.17    0.25
  -2   3 -11    0.06    0.09
  -2   3 -11    0.15    0.07
  -2   3 -11   -0.28    1.17
  -2   3 -11   -0.14    0.47
  -3   3 -11    6.88    0.52
  -3   3 -11    7.97    0.90
  -3   3 -11    7.17    0.52
  -4   3 -11    0.61    0.10
  -4   3 -11    0.70    0.11
  -4   3 -11    0.89    0.54
  -4   3 -11    0.56    1.62
  -5   3 -11   40.11    2.81
  -5   3 -11   39.91    2.81
  -5   3 -11   38.17    2.98
  -6   3 -11   -1.07    1.94
  -6   3 -11    2.42    0.22
  -6   3 -11    2.29    0.24
  -6   3 -11    2.59    0.73
  -7   3 -11    5.59    0.44
  -7   3 -11    5.85    0.44
  -8   3 -11    0.32    0.10
  -8   3 -11    0.22    0.12
  -9   3 -11    0.04    0.09
  -9   3 -11    0.04    0.09
  15   2 -11    1.52    0.20
  14   2 -11    6.96    0.54
  13   2 -11    1.31    0.16
  12   2 -11    7.17    0.53
  11   2 -11    0.69    0.12
  10   2 -11   11.52    0.83
   9   2 -11    1.26    0.22
   9   2 -11    1.26    0.14
   8   2 -11   12.07    0.83
   8   2 -11   10.30    0.80
   7   2 -11    1.36    0.15
   7   2 -11    1.52    0.23
   7   2 -11    1.52    0.18
   6   2 -11    1.09    0.23
   4   2 -11    5.12    1.24
   3   2 -11    1.16    0.71
   1   2 -11   24.54    1.75
   0   2 -11    0.07    0.06
  -1   2 -11    3.26    0.25
  -1   2 -11    3.16    0.28
  -2   2 -11   14.91    1.14
  -2   2 -11   16.51    1.13
  -2   2 -11   15.89    1.39
  -3   2 -11    0.82    1.47
  -3   2 -11    2.70    0.24
  -3   2 -11    2.98    0.24
  -3   2 -11    2.61    0.58
  -3   2 -11    3.02    0.27
  -4   2 -11    2.53    0.62
  -4   2 -11    2.01    0.21
  -4   2 -11    2.07    0.20
  -4   2 -11    0.34    1.67
  -5   2 -11   12.47    0.87
  -5   2 -11    8.33    1.44
  -5   2 -11   12.40    0.87
  -6   2 -11   -1.18    1.97
  -6   2 -11    2.86    0.26
  -7   2 -11    0.48    0.13
  -7   2 -11    0.54    0.11
  -8   2 -11    6.15    0.47
  -8   2 -11    6.20    0.47
  -9   2 -11   -0.04    0.08
  -9   2 -11    0.10    0.09
  14   1 -11    6.64    0.49
  14   1 -11    6.43    0.51
  13   1 -11    2.90    0.25
  13   1 -11    2.95    0.29
  12   1 -11    2.67    0.27
  12   1 -11    2.04    0.21
  11   1 -11    2.97    0.26
  11   1 -11    3.36    0.31
  10   1 -11    0.09    0.08
  10   1 -11    0.40    0.15
   9   1 -11    0.43    0.09
   9   1 -11    0.36    0.14
   8   1 -11   14.24    0.99
   8   1 -11   12.61    0.96
   7   1 -11    3.74    0.32
   7   1 -11    3.47    0.30
   7   1 -11    4.29    0.36
   6   1 -11   27.74    2.00
   2   1 -11   11.21    0.81
   1   1 -11    1.64    0.16
   0   1 -11    0.15    0.10
   0   1 -11    0.11    0.07
  -1   1 -11    1.12    0.13
  -1   1 -11    0.44    0.92
  -1   1 -11    1.02    0.19
  -2   1 -11    1.65    1.27
  -2   1 -11    5.53    0.40
  -2   1 -11    4.36    0.80
  -2   1 -11    4.56    0.36
  -3   1 -11    3.78    0.66
  -3   1 -11    4.89    0.37
  -3   1 -11    5.26    0.37
  -3   1 -11    4.91    0.41
  -4   1 -11   17.35    1.26
  -4   1 -11   17.71    1.26
  -5   1 -11    0.33    0.10
  -5   1 -11   -0.40    1.56
  -5   1 -11    0.47    0.12
  -6   1 -11    1.60    0.19
  -6   1 -11    1.47    0.19
  -7   1 -11    3.86    0.32
  -7   1 -11    4.00    0.33
  -8   1 -11    0.39    0.10
  -8   1 -11    0.25    0.09
  -9   1 -11    0.56    0.09
  15   0 -11    0.73    0.12
  14   0 -11    0.14    0.08
  13   0 -11   -0.05    0.15
  13   0 -11   -0.01    0.08
  12   0 -11    0.32    0.14
  12   0 -11    0.04    0.08
  11   0 -11    2.24    0.22
  11   0 -11    2.53    0.28
  10   0 -11    0.05    0.15
  10   0 -11    0.11    0.09
   9   0 -11    1.49    0.25
   9   0 -11    1.57    0.18
   8   0 -11    7.55    0.58
   8   0 -11    8.09    0.61
   7   0 -11    3.23    0.27
   7   0 -11    3.01    0.28
   7   0 -11    3.28    0.33
   6   0 -11   13.75    1.03
   2   0 -11    2.12    0.20
   2   0 -11    2.60    0.29
   1   0 -11    3.08    0.25
   1   0 -11    3.12    0.27
   0   0 -11    1.84    0.22
   0   0 -11    1.99    0.18
  -1   0 -11    2.28    0.22
  -1   0 -11    0.98    0.99
  -1   0 -11    0.99    0.51
  -1   0 -11    1.76    0.17
  -2   0 -11    0.19    0.08
  -2   0 -11   -0.34    0.50
  -2   0 -11    0.20    1.16
  -2   0 -11    0.21    0.12
  -3   0 -11    0.01    0.09
  -3   0 -11    0.15    0.13
  -3   0 -11   -0.05    0.09
  -3   0 -11    1.55    1.47
  -4   0 -11    1.88    1.67
  -4   0 -11    3.35    0.35
  -4   0 -11    3.61    0.29
  -4   0 -11    3.68    0.30
  -5   0 -11    1.51    0.19
  -5   0 -11    1.67    0.19
  -5   0 -11    1.19    1.75
  -6   0 -11    0.02    0.10
  -6   0 -11    0.21    0.12
  -7   0 -11    0.73    0.12
  -7   0 -11    0.46    0.11
  -8   0 -11    0.12    0.09
  15  -1 -11    6.73    0.50
  14  -1 -11    0.40    0.09
  13  -1 -11    0.76    0.14
  12  -1 -11    1.38    0.17
  11  -1 -11    0.17    0.10
  10  -1 -11    8.86    0.66
   9  -1 -11    0.33    0.19
   9  -1 -11    0.68    0.15
   8  -1 -11    0.41    0.11
   8  -1 -11    0.95    0.24
   7  -1 -11    9.95    0.73
   7  -1 -11    9.73    0.76
   6  -1 -11    0.16    0.16
   6  -1 -11    0.37    0.09
   5  -1 -11    8.30    0.62
   4  -1 -11   11.62    0.85
   3  -1 -11   -0.07    0.09
   2  -1 -11    1.44    0.15
   2  -1 -11    1.32    0.19
   1  -1 -11    3.55    0.28
   1  -1 -11    3.54    0.30
   0  -1 -11    5.81    0.85
   0  -1 -11    6.30    0.49
   0  -1 -11    4.78    1.36
   0  -1 -11    6.57    0.46
  -1  -1 -11   -0.70    1.01
  -1  -1 -11   -0.04    0.11
  -1  -1 -11    0.07    0.08
  -1  -1 -11   -0.04    0.48
  -2  -1 -11   -0.07    1.18
  -2  -1 -11    0.66    0.14
  -2  -1 -11    0.63    0.10
  -3  -1 -11    1.72    0.19
  -3  -1 -11    1.95    0.25
  -3  -1 -11    1.24    1.41
  -4  -1 -11    0.19    0.09
  -4  -1 -11    0.33    0.10
  -4  -1 -11    0.57    0.14
  -4  -1 -11    0.51    1.50
  -5  -1 -11    0.25    0.09
  -5  -1 -11    0.27    0.10
  -6  -1 -11   -0.08    0.09
  -6  -1 -11    0.03    0.10
  -7  -1 -11    0.24    0.09
  -8  -1 -11    0.59    0.10
  15  -2 -11    2.73    0.23
  14  -2 -11    0.06    0.08
  13  -2 -11   -0.01    0.09
  12  -2 -11    0.20    0.10
  11  -2 -11    8.70    0.65
  10  -2 -11   10.59    0.78
   9  -2 -11    2.82    0.27
   8  -2 -11    1.35    0.20
   6  -2 -11   29.10    2.08
   5  -2 -11   18.72    1.35
   4  -2 -11    3.00    0.27
   3  -2 -11    2.62    0.26
  -3   2  11    4.93    1.14
   2  -2 -11    0.44    0.11
   2  -2 -11    0.55    0.09
   1  -2 -11    4.71    1.06
   1  -2 -11    6.28    0.45
   1  -2 -11    6.17    0.47
   0  -2 -11   10.64    0.74
   0  -2 -11    8.40    1.57
   0  -2 -11   10.10    0.76
  -1  -2 -11   -0.78    1.11
  -1  -2 -11    0.10    0.12
  -1  -2 -11   -0.01    0.08
  -2  -2 -11   -0.13    1.26
  -2  -2 -11    0.18    0.13
  -2  -2 -11    0.11    0.09
  -3  -2 -11    0.12    0.13
  -3  -2 -11    0.05    0.09
  -3  -2 -11   -0.47    1.39
  -4  -2 -11    0.71    0.11
  -4  -2 -11    0.75    0.15
  -4  -2 -11   -0.49    1.50
  -5  -2 -11    1.33    0.17
  -6  -2 -11    1.18    0.17
  -7  -2 -11   -0.04    0.09
  15  -3 -11    0.53    0.12
  14  -3 -11    0.03    0.08
  13  -3 -11    0.05    0.09
  12  -3 -11    1.75    0.22
  11  -3 -11   19.22    1.39
  10  -3 -11   10.78    0.80
   9  -3 -11    3.55    0.31
   8  -3 -11    3.06    0.29
   6  -3 -11   26.58    1.90
   5  -3 -11    0.23    0.10
   4  -3 -11   11.65    0.86
   3  -3 -11    0.01    0.10
   2  -3 -11    1.20    0.16
   2  -3 -11    1.20    0.15
   1  -3 -11    0.09    0.08
   1  -3 -11    0.02    0.11
   1  -3 -11   -0.05    0.67
   0  -3 -11    1.45    0.16
   0  -3 -11    1.31    0.17
   0  -3 -11   -0.02    0.95
  -1  -3 -11   -0.23    1.23
  -1  -3 -11    0.20    0.09
  -1  -3 -11    0.27    0.14
  -2  -3 -11    0.27    0.09
  -2  -3 -11   -0.75    1.29
  -2  -3 -11    0.26    0.14
  -3  -3 -11   -0.03    0.09
  -3  -3 -11   -1.75    1.35
  -3  -3 -11    0.04    0.13
  -4  -3 -11    2.31    0.21
  -4  -3 -11    1.90    0.25
  -5  -3 -11    1.58    0.18
  -6  -3 -11   -0.04    0.09
  -7  -3 -11   -0.04    0.08
  15  -4 -11    0.14    0.07
  14  -4 -11   -0.01    0.09
  13  -4 -11    3.13    0.28
  12  -4 -11    0.03    0.11
  11  -4 -11   11.57    0.86
  10  -4 -11    4.68    0.40
   9  -4 -11    4.45    0.38
   9  -4 -11    4.52    0.40
   8  -4 -11    8.22    0.64
   8  -4 -11    8.60    0.65
   7  -4 -11    4.71    0.41
   6  -4 -11    0.11    0.09
   5  -4 -11   15.34    1.11
   4  -4 -11    0.28    0.10
   3  -4 -11    2.57    0.90
   3  -4 -11    3.36    0.30
   2  -4 -11    0.11    0.11
   2  -4 -11    0.15    0.09
   2  -4 -11    0.10    0.67
   1  -4 -11    0.09    0.09
   1  -4 -11    0.17    0.12
   1  -4 -11    0.01    0.75
   0  -4 -11    1.47    1.02
   0  -4 -11    2.16    0.21
   0  -4 -11    2.45    0.27
  -1  -4 -11   -0.02    0.13
  -1  -4 -11   -0.76    1.10
  -1  -4 -11   -0.10    0.09
  -2  -4 -11   -0.90    1.27
  -2  -4 -11    0.39    0.15
  -2  -4 -11    0.57    0.10
  -3  -4 -11    0.01    0.14
  -3  -4 -11   -0.18    0.09
  -4  -4 -11    1.75    0.24
  -4  -4 -11    1.65    0.19
  -5  -4 -11    1.41    0.18
  -5  -4 -11    1.64    0.23
  -6  -4 -11    1.14    0.16
  15  -5 -11    0.08    0.07
  14  -5 -11    0.09    0.09
  13  -5 -11    2.79    0.27
  12  -5 -11    3.11    0.30
  11  -5 -11    1.98    0.24
  10  -5 -11    7.78    0.62
  10  -5 -11    7.87    0.61
   9  -5 -11    3.07    0.33
   9  -5 -11    3.58    0.33
   8  -5 -11    0.45    0.16
   8  -5 -11    0.20    0.14
   7  -5 -11    1.16    0.24
   6  -5 -11    0.94    0.13
   5  -5 -11    0.06    0.10
   4  -5 -11   -0.02    0.65
   4  -5 -11   -0.07    0.10
   3  -5 -11   -0.22    0.62
   3  -5 -11    0.10    0.12
   2  -5 -11    2.92    0.28
   2  -5 -11    1.70    0.85
   1  -5 -11    1.47    0.18
   1  -5 -11    1.46    0.23
   1  -5 -11    0.69    0.81
   0  -5 -11    6.22    0.50
   0  -5 -11    4.24    1.44
   0  -5 -11    6.67    0.47
  -1  -5 -11   -1.18    0.98
  -1  -5 -11    0.24    0.09
  -1  -5 -11    0.30    0.14
  -2  -5 -11    0.00    0.09
  -2  -5 -11    0.01    0.13
  -3  -5 -11    0.40    0.14
  -3  -5 -11    0.34    0.10
  -4  -5 -11    0.61    0.11
  -4  -5 -11    0.85    0.14
  -5  -5 -11    3.76    0.29
  -5  -5 -11    3.43    0.32
  15  -6 -11    0.02    0.07
  14  -6 -11    0.09    0.09
  13  -6 -11    3.40    0.30
  12  -6 -11   -0.01    0.11
  11  -6 -11    1.88    0.26
  11  -6 -11    1.79    0.24
  10  -6 -11    2.69    0.30
  10  -6 -11    3.18    0.31
   9  -6 -11    0.64    0.15
   9  -6 -11    0.71    0.16
   8  -6 -11   -0.03    0.14
   8  -6 -11    0.25    0.16
   7  -6 -11    3.02    0.32
   6  -6 -11   -0.14    0.10
   5  -6 -11    0.13    0.11
   5  -6 -11    0.38    0.62
   4  -6 -11    1.65    0.22
   4  -6 -11    1.31    0.82
   3  -6 -11    0.10    0.70
   3  -6 -11    0.24    0.12
   2  -6 -11    0.38    0.78
   2  -6 -11   -0.17    0.12
   1  -6 -11    0.97    0.98
   1  -6 -11    0.72    0.15
   0  -6 -11   -0.59    0.82
   0  -6 -11   -0.08    0.12
  -1  -6 -11    2.99    0.30
  -1  -6 -11    2.47    0.29
  -2  -6 -11   -0.16    0.13
  -2  -6 -11    0.09    0.09
  -3  -6 -11    1.50    0.18
  -3  -6 -11    1.45    0.23
  -4  -6 -11    3.73    0.31
  -4  -6 -11    4.11    0.34
  -5  -6 -11    0.05    0.11
  14  -7 -11    0.31    0.09
  13  -7 -11    2.55    0.25
  12  -7 -11    0.20    0.11
  11  -7 -11    0.18    0.13
  11  -7 -11    0.40    0.14
  10  -7 -11   -0.01    0.13
  10  -7 -11    0.16    0.13
   9  -7 -11   10.24    0.81
   9  -7 -11   11.31    0.82
   8  -7 -11    1.34    0.25
   8  -7 -11    0.82    0.17
   6  -7 -11    0.27    0.60
   6  -7 -11    0.46    0.12
   5  -7 -11    0.18    0.71
   5  -7 -11    0.51    0.12
   4  -7 -11    0.61    0.13
   4  -7 -11    0.64    0.82
   3  -7 -11   -0.36    0.74
   3  -7 -11    0.32    0.13
   2  -7 -11   -0.01    0.12
   2  -7 -11   -0.03    0.75
   1  -7 -11    0.77    0.15
   0  -7 -11    4.05    0.36
  -1  -7 -11    1.22    0.22
  -2  -7 -11   -0.17    0.12
  -3  -7 -11   -0.02    0.12
  -4  -7 -11    0.00    0.11
  14  -8 -11    0.09    0.09
  13  -8 -11    0.43    0.11
  12  -8 -11    0.20    0.11
  11  -8 -11   -0.14    0.12
  11  -8 -11   -0.02    0.12
  10  -8 -11    0.12    0.14
  10  -8 -11   -0.01    0.13
   9  -8 -11    2.92    0.32
   9  -8 -11    2.91    0.30
   8  -8 -11    0.52    0.18
   7  -8 -11    0.78    0.21
   6  -8 -11    2.93    1.04
   6  -8 -11    3.34    0.30
   5  -8 -11    0.13    0.75
   5  -8 -11    0.49    0.13
   4  -8 -11    2.91    1.26
   4  -8 -11    4.05    0.35
   3  -8 -11    0.15    0.12
   2  -8 -11   -0.02    0.12
   1  -8 -11    0.62    0.14
   0  -8 -11    6.81    0.54
  -1  -8 -11    0.12    0.13
  -2  -8 -11    0.42    0.13
  -3  -8 -11   -0.02    0.11
  13  -9 -11    0.77    0.16
  12  -9 -11    0.00    0.10
  11  -9 -11    0.05    0.12
  11  -9 -11    0.12    0.12
  10  -9 -11    0.60    0.14
  10  -9 -11    0.54    0.15
   9  -9 -11    2.55    0.29
   9  -9 -11    3.12    0.31
   8  -9 -11    0.60    0.19
   7  -9 -11    0.10    0.20
   5  -9 -11    0.29    0.12
   4  -9 -11    0.85    0.14
   3  -9 -11    1.62    0.23
   2  -9 -11    0.70    0.14
   1  -9 -11    0.33    0.13
   0  -9 -11    1.84    0.23
  -1  -9 -11    0.46    0.13
  12 -10 -11    0.14    0.10
  11 -10 -11    0.15    0.11
  10 -10 -11    0.13    0.14
   8 -10 -11    1.58    0.28
   7 -10 -11    0.44    0.21
   6 -10 -11    3.17    0.39
   5 -10 -11    1.63    0.22
   4 -10 -11    3.08    0.29
   3 -10 -11    0.66    0.13
   2 -10 -11    0.17    0.11
   1 -10 -11    0.15    0.11
   0 -10 -11    0.62    0.13
  10 -11 -11    0.45    0.13
   8 -11 -11    0.40    0.18
   5 -11 -11    0.57    0.12
   4 -11 -11    0.17    0.11
   3 -11 -11   -0.02    0.10
   2 -11 -11    1.38    0.19
   4 -12 -11    0.10    0.10
   2  18 -12    0.09    0.12
   1  18 -12    0.22    0.12
   0  18 -12   -0.03    0.12
  -1  18 -12   -0.01    0.12
  -2  18 -12    1.98    0.27
  -3  18 -12   -0.15    0.12
  -4  18 -12   -0.06    0.12
  -5  18 -12   -0.09    0.12
   4  17 -12   -0.05    0.11
   3  17 -12    1.14    0.22
   2  17 -12    0.07    0.13
   1  17 -12    0.06    0.13
   0  17 -12    0.54    0.14
  -1  17 -12   -0.06    0.13
  -2  17 -12    0.72    0.16
  -3  17 -12   -0.07    0.14
  -4  17 -12    0.23    0.15
  -5  17 -12    0.16    0.14
   6  16 -12   -0.06    0.11
   5  16 -12    0.00    0.12
   4  16 -12    1.18    0.23
   3  16 -12    0.20    0.13
   2  16 -12    1.27    0.24
   1  16 -12    0.30    0.14
   0  16 -12    1.49    0.26
  -1  16 -12    2.09    0.29
  -2  16 -12    0.09    0.15
  -3  16 -12   -0.09    0.15
  -4  16 -12    0.00    0.16
  -5  16 -12    0.46    0.18
  -6  16 -12    0.56    0.44
  -7  16 -12   -0.64    0.41
   7  15 -12    0.06    0.12
   6  15 -12    0.08    0.13
   5  15 -12    0.32    0.14
   4  15 -12    1.73    0.27
   3  15 -12    0.15    0.13
   2  15 -12   -0.12    0.13
   1  15 -12    0.08    0.13
   0  15 -12    0.04    0.14
  -1  15 -12   -0.05    0.14
  -2  15 -12    0.10    0.15
  -3  15 -12    1.72    0.32
  -4  15 -12    0.53    0.18
  -5  15 -12    0.00    0.18
  -5  15 -12   -0.47    0.43
  -6  15 -12    0.13    0.44
  -7  15 -12    0.05    0.43
  -8  15 -12    0.93    0.44
   8  14 -12    0.23    0.13
   7  14 -12    0.08    0.14
   6  14 -12    0.26    0.15
   5  14 -12    0.18    0.15
   4  14 -12    0.31    0.15
   3  14 -12    1.64    0.26
   2  14 -12    1.21    0.24
   1  14 -12    0.49    0.14
   0  14 -12    0.78    0.16
  -1  14 -12    1.65    0.30
  -2  14 -12    6.97    0.59
  -3  14 -12    0.01    0.17
  -4  14 -12    0.18    0.19
  -4  14 -12   -0.18    0.43
  -5  14 -12    1.02    0.46
  -5  14 -12    0.64    0.22
  -6  14 -12   -0.15    0.43
  -7  14 -12    0.23    0.46
  -8  14 -12    0.30    0.44
  -9  14 -12    0.50    0.42
   6  13 -12    0.45    0.15
   5  13 -12    0.30    0.15
   4  13 -12    0.49    0.16
   3  13 -12    1.65    0.26
   2  13 -12    1.25    0.24
   1  13 -12    2.18    0.28
   0  13 -12    5.48    0.48
  -1  13 -12    1.22    0.29
  -2  13 -12    5.70    0.53
  -3  13 -12    0.45    0.20
  -3  13 -12   -0.04    0.43
  -4  13 -12    0.42    0.45
  -4  13 -12    1.04    0.23
  -5  13 -12    6.87    0.79
  -5  13 -12    5.81    0.61
  -6  13 -12    0.20    0.44
  -7  13 -12   -0.21    0.43
  -8  13 -12    4.46    0.76
  -9  13 -12    0.42    0.44
  10  12 -12    0.50    0.13
   9  12 -12    0.22    0.13
   8  12 -12    0.11    0.12
   8  12 -12    0.64    0.15
   7  12 -12    1.15    0.23
   6  12 -12   -0.14    0.12
   6  12 -12    0.14    0.15
   4  12 -12    1.19    0.26
   3  12 -12    9.61    0.74
   2  12 -12   14.56    1.07
   1  12 -12   -0.10    0.13
   0  12 -12   -0.02    0.15
  -1  12 -12    5.61    0.51
  -2  12 -12   -0.07    0.43
  -2  12 -12    0.01    0.18
  -3  12 -12    1.76    0.46
  -3  12 -12    1.46    0.38
  -4  12 -12    0.17    0.43
  -4  12 -12    0.18    0.23
  -5  12 -12    0.61    0.26
  -5  12 -12    0.94    0.45
  -6  12 -12    0.65    0.45
  -7  12 -12   -0.21    0.44
  -8  12 -12    3.35    0.74
  -9  12 -12    0.01    0.45
  11  11 -12    0.07    0.11
  10  11 -12   -0.17    0.10
  10  11 -12    0.22    0.13
   9  11 -12    0.17    0.14
   9  11 -12   -0.03    0.11
   8  11 -12    3.05    0.40
   7  11 -12   -0.04    0.15
   7  11 -12   -0.10    0.12
   6  11 -12    4.75    0.40
   6  11 -12    4.12    0.47
   5  11 -12    0.09    0.15
   5  11 -12   -0.12    0.11
   4  11 -12   -0.12    0.10
   4  11 -12    0.15    0.14
   4  11 -12    0.04    0.14
   3  11 -12    6.26    0.51
   2  11 -12    0.62    0.14
   1  11 -12    2.66    0.31
   0  11 -12    0.15    0.15
  -1  11 -12    3.78    0.42
  -1  11 -12    4.24    0.71
  -2  11 -12   -0.57    0.41
  -2  11 -12   -0.01    0.19
  -3  11 -12    0.13    0.42
  -3  11 -12    0.11    0.21
  -4  11 -12    1.87    0.42
  -4  11 -12    1.81    0.46
  -5  11 -12    0.51    0.25
  -5  11 -12    0.85    0.44
  -6  11 -12    0.82    0.44
  -7  11 -12    3.85    0.71
  -8  11 -12    7.12    0.88
  -9  11 -12    0.18    0.47
 -10  11 -12    0.37    0.47
  11  10 -12    0.21    0.12
  10  10 -12   -0.14    0.11
  10  10 -12    0.12    0.14
   9  10 -12    4.28    0.37
   9  10 -12    3.67    0.44
   8  10 -12    1.15    0.24
   7  10 -12    0.27    0.16
   7  10 -12    0.08    0.12
   6  10 -12    0.61    0.16
   5  10 -12   -0.01    0.15
   5  10 -12   -0.10    0.10
   4  10 -12    1.33    0.31
   3  10 -12   -0.04    0.12
   3  10 -12    0.02    0.15
   2  10 -12    0.24    0.13
   2  10 -12    0.25    0.16
   2  10 -12    0.47    0.09
   1  10 -12   -0.58    1.03
   1  10 -12    0.03    0.08
   1  10 -12   -0.09    0.13
   0  10 -12    1.42    0.27
   0  10 -12    0.79    0.11
   0  10 -12    0.70    0.46
   0  10 -12    1.02    1.13
  -1  10 -12    0.66    0.43
  -1  10 -12    0.58    0.11
  -1  10 -12    1.33    1.26
  -1  10 -12    1.24    0.31
  -2  10 -12    6.82    0.76
  -2  10 -12    6.18    0.59
  -3  10 -12    0.08    0.21
  -3  10 -12    0.31    0.42
  -4  10 -12    1.90    0.43
  -4  10 -12    1.89    0.45
  -5  10 -12    0.88    0.44
  -6  10 -12    1.13    0.46
  -6  10 -12    1.23    1.43
  -7  10 -12    3.82    0.81
  -8  10 -12    1.85    0.54
  -9  10 -12    1.16    0.51
 -10  10 -12    0.72    0.48
  12   9 -12   -0.03    0.11
  11   9 -12   -0.10    0.10
  11   9 -12   -0.11    0.13
  10   9 -12    0.14    0.11
  10   9 -12    0.36    0.15
   9   9 -12    1.90    0.35
   9   9 -12    1.60    0.26
   8   9 -12    0.07    0.12
   8   9 -12   -0.01    0.15
   7   9 -12   10.43    0.80
   7   9 -12    9.56    0.76
   6   9 -12    1.18    0.24
   6   9 -12    1.23    0.32
   5   9 -12    0.54    0.11
   4   9 -12    1.40    0.19
   4   9 -12    1.56    0.25
   3   9 -12    0.93    0.16
   3   9 -12    1.22    0.17
   3   9 -12    1.45    0.25
   2   9 -12    9.15    0.63
   2   9 -12    7.69    1.89
   2   9 -12    8.64    0.67
   2   9 -12    7.84    0.65
   1   9 -12    1.67    0.26
   1   9 -12    1.46    0.17
   1   9 -12    0.55    1.01
   1   9 -12    1.46    0.28
   1   9 -12    0.53    0.63
   0   9 -12    1.22    1.04
   0   9 -12    0.49    0.18
   0   9 -12    0.13    0.44
   0   9 -12    1.04    0.27
   0   9 -12    0.67    0.10
  -1   9 -12    6.29    0.75
  -1   9 -12    5.04    0.43
  -1   9 -12    8.16    1.72
  -1   9 -12    6.09    0.52
  -2   9 -12    0.38    0.40
  -2   9 -12    0.24    0.19
  -2   9 -12    1.21    0.98
  -3   9 -12    0.47    0.42
  -3   9 -12    0.53    0.21
  -4   9 -12    6.71    0.67
  -4   9 -12    8.64    0.84
  -5   9 -12    1.45    0.45
  -5   9 -12    0.84    1.01
  -6   9 -12    1.34    1.19
  -6   9 -12    3.07    0.76
  -7   9 -12    0.08    0.51
  -8   9 -12   -0.28    0.51
  -9   9 -12    0.14    0.53
 -10   9 -12    0.13    0.49
  13   8 -12    0.34    0.11
  12   8 -12    2.19    0.23
  12   8 -12    1.58    0.31
  11   8 -12   -0.06    0.10
  11   8 -12   -0.01    0.12
  10   8 -12    1.89    0.33
   9   8 -12    8.67    0.71
   8   8 -12    0.22    0.15
   8   8 -12    0.18    0.11
   7   8 -12    0.12    0.15
   7   8 -12    0.08    0.10
   6   8 -12    0.11    0.14
   6   8 -12    0.13    0.10
   5   8 -12    3.27    0.29
   5   8 -12    3.58    0.33
   5   8 -12    3.14    0.34
   4   8 -12    4.05    0.36
   4   8 -12    4.91    0.40
   3   8 -12   -1.33    1.08
   3   8 -12    0.27    0.09
   3   8 -12    0.27    0.16
   3   8 -12   -0.12    0.22
   2   8 -12    0.10    0.96
   2   8 -12    0.36    0.17
   2   8 -12    0.34    0.09
   1   8 -12    1.54    1.04
   1   8 -12    1.06    0.16
   1   8 -12    1.13    0.21
   0   8 -12    3.64    1.19
   0   8 -12    2.73    0.36
   0   8 -12    3.08    0.50
   0   8 -12    2.65    0.25
  -1   8 -12   -0.43    0.41
  -1   8 -12   -0.09    0.09
  -1   8 -12    0.84    0.93
  -2   8 -12    0.33    0.40
  -3   8 -12    2.11    0.45
  -4   8 -12    1.02    0.44
  -5   8 -12    0.95    1.09
  -5   8 -12    1.04    0.47
  -6   8 -12    1.79    0.53
  -6   8 -12    1.24    1.15
  -7   8 -12    2.01    0.57
  -8   8 -12    0.26    0.56
  -9   8 -12   -0.38    0.50
 -10   8 -12   -0.19    0.49
  13   7 -12    1.00    0.18
  12   7 -12   -0.13    0.12
  12   7 -12   -0.13    0.09
  11   7 -12    0.34    0.11
  10   7 -12    0.21    0.11
   9   7 -12    0.45    0.12
   8   7 -12    0.55    0.16
   8   7 -12    0.92    0.33
   7   7 -12    7.43    0.63
   7   7 -12    8.88    0.68
   6   7 -12    0.12    0.09
   6   7 -12    0.38    0.09
   6   7 -12    0.29    0.14
   5   7 -12    0.15    0.08
   5   7 -12    0.34    0.14
   5   7 -12    0.23    0.09
   4   7 -12   11.52    0.86
   4   7 -12   12.05    0.89
   3   7 -12    2.18    0.28
   3   7 -12    1.43    1.08
   3   7 -12    1.92    0.21
   2   7 -12    9.32    0.74
   2   7 -12    9.63    0.70
   2   7 -12    8.22    1.73
   1   7 -12    1.13    0.22
   1   7 -12    1.54    1.00
   1   7 -12    1.09    0.16
   0   7 -12    0.18    0.43
   0   7 -12    0.16    0.19
   0   7 -12    0.03    0.78
   0   7 -12   -0.08    0.09
  -1   7 -12    0.81    0.44
  -1   7 -12    0.85    0.12
  -2   7 -12    0.95    0.43
  -3   7 -12    9.76    0.97
  -3   7 -12   10.09    0.73
  -4   7 -12    2.93    0.68
  -4   7 -12    1.91    0.20
  -5   7 -12    3.25    0.75
  -5   7 -12    0.72    1.09
  -5   7 -12    3.35    0.26
  -6   7 -12    0.33    0.13
  -6   7 -12    1.00    1.17
  -6   7 -12    0.79    0.52
  -7   7 -12   -0.41    0.57
  -8   7 -12    1.12    0.57
  -9   7 -12    0.53    0.51
  13   6 -12   -0.08    0.11
  13   6 -12    0.01    0.08
  12   6 -12    0.04    0.10
  11   6 -12    5.10    0.50
  10   6 -12    2.27    0.37
   9   6 -12   -0.01    0.11
   8   6 -12    1.26    0.32
   8   6 -12    0.95    0.22
   7   6 -12    2.04    0.31
   7   6 -12    1.45    0.19
   7   6 -12    1.53    0.24
   6   6 -12    4.28    0.38
   6   6 -12    4.60    0.40
   6   6 -12    3.71    0.34
   5   6 -12    0.85    0.16
   4   6 -12    3.03    0.26
   4   6 -12    1.01    1.18
   4   6 -12    2.90    0.31
   3   6 -12    7.37    0.56
   3   6 -12    7.25    1.65
   3   6 -12    7.39    0.60
   2   6 -12    7.96    1.59
   2   6 -12    6.85    0.58
   2   6 -12    6.96    0.53
   1   6 -12    0.15    0.81
   1   6 -12    0.15    0.09
   1   6 -12   -0.18    0.18
   0   6 -12    3.36    0.44
   0   6 -12    4.10    0.32
  -1   6 -12    1.97    0.22
  -1   6 -12    2.43    0.48
  -2   6 -12    1.35    0.16
  -2   6 -12    1.44    0.47
  -3   6 -12    1.01    0.48
  -3   6 -12    1.05    0.15
  -4   6 -12    0.43    0.09
  -4   6 -12    0.79    0.50
  -4   6 -12    1.03    1.28
  -5   6 -12    1.26    0.56
  -5   6 -12    0.73    0.11
  -5   6 -12    0.99    1.46
  -6   6 -12   -0.29    1.59
  -6   6 -12    1.57    0.59
  -6   6 -12    1.75    0.18
  -7   6 -12    5.80    1.00
  -7   6 -12    7.79    0.55
  -8   6 -12    3.36    0.85
  14   5 -12    0.11    0.11
  13   5 -12    1.48    0.22
  13   5 -12    2.23    0.31
  12   5 -12    1.76    0.32
   9   5 -12    2.16    0.27
   8   5 -12    5.26    0.44
   8   5 -12    6.25    0.48
   7   5 -12   13.49    1.02
   7   5 -12   14.62    1.04
   6   5 -12    2.40    0.27
   6   5 -12    2.11    0.22
   5   5 -12    4.94    0.40
   5   5 -12    5.09    0.43
   4   5 -12    1.13    0.16
   4   5 -12    1.19    0.24
   4   5 -12    0.23    1.00
   3   5 -12    7.45    1.54
   3   5 -12    6.36    0.50
   3   5 -12    6.78    0.56
   2   5 -12    0.62    0.18
   2   5 -12    0.56    0.10
   2   5 -12    0.70    0.83
   1   5 -12    4.73    0.39
   1   5 -12    4.99    0.49
   1   5 -12    5.74    1.37
   0   5 -12    2.61    0.24
   0   5 -12    2.18    0.37
  -1   5 -12    6.57    0.53
  -1   5 -12    7.28    0.52
  -1   5 -12    7.59    0.91
  -2   5 -12    0.74    0.46
  -2   5 -12    0.55    0.12
  -2   5 -12    0.82    0.10
  -3   5 -12   -0.04    0.07
  -3   5 -12    0.14    0.47
  -4   5 -12    1.38    0.53
  -4   5 -12    0.59    1.34
  -4   5 -12    1.06    0.15
  -5   5 -12    3.17    0.26
  -5   5 -12    3.40    0.81
  -5   5 -12    0.91    1.55
  -6   5 -12    1.71    0.19
  -6   5 -12    1.97    0.62
  -6   5 -12    0.80    1.82
  -7   5 -12    1.52    0.62
  -7   5 -12    1.94    0.20
  -8   5 -12    0.09    0.09
  -8   5 -12   -0.73    0.76
  -9   5 -12    0.32    0.12
  14   4 -12    0.49    0.12
  13   4 -12    0.08    0.12
  13   4 -12    0.14    0.09
  12   4 -12    0.27    0.13
  11   4 -12    9.16    0.69
  10   4 -12   13.68    1.01
  10   4 -12   14.37    1.03
   9   4 -12    1.30    0.19
   9   4 -12    1.81    0.24
   9   4 -12    1.76    0.16
   8   4 -12    6.87    0.55
   8   4 -12    8.76    0.59
   8   4 -12    7.40    0.57
   7   4 -12    1.08    0.17
   7   4 -12    1.12    0.22
   6   4 -12    2.06    0.23
   6   4 -12    2.45    0.27
   5   4 -12    1.92    0.21
   5   4 -12    1.94    0.26
   4   4 -12    3.61    0.29
   4   4 -12    3.40    0.35
   4   4 -12    2.60    1.05
   3   4 -12   14.15    1.02
   3   4 -12   14.56    1.06
   3   4 -12   11.72    1.79
   2   4 -12    2.55    0.94
   2   4 -12    2.74    0.36
   2   4 -12    2.49    0.24
   1   4 -12    9.84    0.71
   1   4 -12    9.27    0.77
   0   4 -12    1.13    0.14
   0   4 -12    1.05    0.17
   0   4 -12    1.46    0.63
  -1   4 -12    3.08    0.54
  -1   4 -12    2.01    0.18
  -1   4 -12    1.62    0.21
  -2   4 -12    0.16    0.10
  -2   4 -12    0.09    0.07
  -2   4 -12    0.25    0.48
  -3   4 -12    0.41    0.51
  -3   4 -12    0.08    0.08
  -4   4 -12   -1.00    1.41
  -4   4 -12    2.64    0.60
  -4   4 -12    1.85    0.19
  -5   4 -12   -0.19    0.09
  -5   4 -12   -1.88    1.55
  -5   4 -12    0.63    0.57
  -6   4 -12    0.28    0.10
  -6   4 -12    0.23    0.10
  -6   4 -12    0.14    0.64
  -7   4 -12    1.11    0.16
  -7   4 -12    0.13    0.68
  -8   4 -12    1.22    0.16
  -9   4 -12    0.11    0.08
  14   3 -12    1.42    0.26
  13   3 -12    0.15    0.13
  12   3 -12    5.11    0.38
  12   3 -12    4.84    0.42
  11   3 -12   20.39    1.45
  11   3 -12   19.65    1.43
  10   3 -12    0.22    0.14
  10   3 -12    0.08    0.07
   9   3 -12    0.12    0.06
   9   3 -12    0.30    0.14
   8   3 -12    0.06    0.06
   8   3 -12    0.16    0.09
   8   3 -12    0.13    0.14
   7   3 -12    0.16    0.09
   7   3 -12    0.14    0.14
   6   3 -12   12.88    0.96
   6   3 -12   12.83    0.94
   5   3 -12    0.48    0.15
   5   3 -12    0.37    0.10
   4   3 -12    6.53    0.51
   4   3 -12    7.43    0.57
   4   3 -12    5.07    1.38
   3   3 -12    1.05    0.77
   3   3 -12    1.20    0.26
   3   3 -12    0.92    0.16
   2   3 -12    6.59    0.52
   2   3 -12    8.62    1.41
   2   3 -12    6.87    0.59
   1   3 -12   17.91    1.40
   1   3 -12   19.87    1.36
   0   3 -12   -0.07    0.48
   0   3 -12    0.11    0.09
   0   3 -12    0.06    0.07
  -1   3 -12    3.12    0.72
  -1   3 -12    2.49    0.25
  -1   3 -12    2.82    0.22
  -2   3 -12    3.01    0.30
  -2   3 -12    3.68    0.27
  -2   3 -12    3.06    0.81
  -3   3 -12    1.88    0.18
  -3   3 -12    1.85    0.58
  -3   3 -12    0.11    1.11
  -4   3 -12   -1.15    1.34
  -4   3 -12    0.09    0.61
  -4   3 -12   -0.20    0.09
  -5   3 -12    0.31    0.10
  -5   3 -12    0.24    0.10
  -5   3 -12    0.67    0.59
  -5   3 -12   -1.19    1.48
  -6   3 -12    0.02    0.10
  -6   3 -12    0.16    0.10
  -7   3 -12   11.95    0.87
  -8   3 -12    0.36    0.09
  -9   3 -12    0.14    0.07
  15   2 -12    0.30    0.11
  14   2 -12    0.94    0.19
  13   2 -12    2.16    0.18
  13   2 -12    1.40    0.23
  12   2 -12    0.11    0.08
  12   2 -12    0.23    0.13
  11   2 -12    6.00    0.49
  11   2 -12    7.55    0.53
  10   2 -12    1.52    0.23
  10   2 -12    1.07    0.14
   9   2 -12    5.30    0.44
   9   2 -12    4.87    0.38
   8   2 -12    1.81    0.17
   8   2 -12    2.00    0.26
   8   2 -12    1.50    0.20
   7   2 -12    0.59    0.11
   7   2 -12    0.59    0.16
   7   2 -12    0.87    0.12
   6   2 -12    6.99    0.54
   6   2 -12    7.07    0.57
   5   2 -12    1.00    0.25
   5   2 -12    1.28    0.17
   4   2 -12    8.34    0.65
   4   2 -12    8.07    0.61
   3   2 -12    7.19    0.58
   3   2 -12    6.60    0.52
   3   2 -12    8.53    1.56
   2   2 -12    2.89    0.34
   2   2 -12    2.65    0.24
   1   2 -12    1.69    0.16
   1   2 -12    1.21    0.18
   0   2 -12    1.83    0.17
   0   2 -12    1.53    0.20
   0   2 -12    2.08    0.55
  -1   2 -12    2.63    0.23
  -1   2 -12    3.65    0.59
  -1   2 -12    2.68    0.26
  -2   2 -12    0.90    0.14
  -2   2 -12    0.86    0.55
  -2   2 -12    0.99    0.19
  -3   2 -12    0.24    1.24
  -3   2 -12    0.50    0.12
  -3   2 -12    0.60    0.10
  -3   2 -12    0.57    0.57
  -4   2 -12   10.14    0.70
  -4   2 -12    7.87    1.11
  -5   2 -12    1.81    0.19
  -5   2 -12    1.55    0.18
  -5   2 -12   -1.07    1.55
  -6   2 -12    7.33    0.55
  -6   2 -12    7.45    0.55
  -7   2 -12   -0.09    0.09
  -8   2 -12    0.11    0.08
  14   1 -12    3.02    0.29
  14   1 -12    3.13    0.25
  13   1 -12    0.85    0.13
  13   1 -12    1.18    0.21
  12   1 -12    0.05    0.07
  12   1 -12    0.07    0.13
  11   1 -12    0.14    0.08
  11   1 -12    0.36    0.15
  10   1 -12    7.80    0.61
  10   1 -12    7.72    0.57
   9   1 -12    0.69    0.16
   9   1 -12    0.58    0.13
   8   1 -12    0.65    0.17
   8   1 -12    0.75    0.13
   8   1 -12    0.59    0.12
   7   1 -12    0.20    0.09
   7   1 -12    0.18    0.09
   7   1 -12    0.09    0.14
   6   1 -12    6.99    0.54
   6   1 -12    6.07    0.50
   5   1 -12    9.02    0.70
   5   1 -12    8.71    0.66
   4   1 -12    0.71    0.18
   4   1 -12    0.88    0.16
   3   1 -12    2.67    0.35
   3   1 -12    3.10    0.26
   2   1 -12    4.88    0.35
   2   1 -12    3.78    0.43
   1   1 -12    0.37    0.08
   1   1 -12    0.32    0.10
   1   1 -12    0.46    0.51
   0   1 -12   11.53    0.85
   0   1 -12   12.14    0.87
   0   1 -12   11.82    1.14
  -1   1 -12    1.80    0.56
  -1   1 -12    1.85    0.22
  -1   1 -12    1.45    0.17
  -2   1 -12    4.03    0.33
  -2   1 -12    1.19    1.08
  -2   1 -12    3.42    0.88
  -2   1 -12    3.57    0.28
  -3   1 -12   -0.69    1.14
  -3   1 -12    0.74    0.11
  -3   1 -12    0.76    0.59
  -3   1 -12    0.83    0.14
  -5   1 -12    0.33    0.10
  -6   1 -12    9.15    0.67
  -7   1 -12    0.38    0.10
  -8   1 -12    0.25    0.08
  15   0 -12    8.69    0.63
  14   0 -12    1.70    0.17
  13   0 -12    0.27    0.08
  12   0 -12    2.22    0.21
  12   0 -12    2.58    0.29
  11   0 -12    6.00    0.47
  11   0 -12    6.42    0.51
  10   0 -12    5.35    0.45
  10   0 -12    5.09    0.40
   9   0 -12    0.79    0.14
   9   0 -12    1.01    0.19
   8   0 -12    4.20    0.41
   8   0 -12    4.41    0.34
   7   0 -12    7.98    0.58
   7   0 -12    7.63    0.59
   7   0 -12    7.81    0.63
   6   0 -12   10.39    0.76
   6   0 -12   10.14    0.80
   5   0 -12    5.03    0.39
   5   0 -12    4.68    0.45
   4   0 -12   10.56    0.76
   4   0 -12   10.25    0.81
   3   0 -12    0.02    0.16
   3   0 -12    0.15    0.08
   2   0 -12   13.22    1.00
   2   0 -12   14.36    0.99
   1   0 -12   10.71    0.79
   1   0 -12   10.79    1.11
   1   0 -12   10.60    0.77
   0   0 -12    0.54    0.51
   0   0 -12    0.81    0.10
   0   0 -12    1.04    0.14
  -1   0 -12   10.95    0.80
  -1   0 -12   10.51    0.77
  -2   0 -12    0.49    0.55
  -2   0 -12    1.04    0.12
  -2   0 -12   -0.14    1.10
  -2   0 -12    1.15    0.16
  -3   0 -12    3.03    0.24
  -3   0 -12    2.62    0.29
  -3   0 -12    0.98    1.21
  -4   0 -12   19.93    1.38
  -4   0 -12   18.56    1.42
  -5   0 -12    0.44    0.10
  -6   0 -12    5.04    0.39
  -7   0 -12    0.17    0.08
  -8   0 -12    1.30    0.15
  15  -1 -12    1.96    0.18
  14  -1 -12    0.22    0.08
  13  -1 -12    0.58    0.12
  12  -1 -12    2.83    0.25
  11  -1 -12    3.11    0.28
  10  -1 -12    6.23    0.48
   9  -1 -12   17.02    1.23
   8  -1 -12    0.05    0.17
   8  -1 -12    0.32    0.11
   7  -1 -12    0.34    0.18
   7  -1 -12    0.40    0.10
   6  -1 -12    1.48    0.30
   6  -1 -12    2.07    0.21
   5  -1 -12    7.17    0.63
   5  -1 -12    7.89    0.57
   4  -1 -12   46.72    3.71
   4  -1 -12   56.95    3.69
   3  -1 -12    3.58    0.31
   2  -1 -12   -0.02    0.10
   2  -1 -12    0.03    0.08
   1  -1 -12    4.84    0.39
   1  -1 -12    4.49    0.36
   0  -1 -12    0.52    0.09
   0  -1 -12    0.82    0.14
  -1  -1 -12   21.38    1.53
  -1  -1 -12   20.97    1.51
  -2  -1 -12    8.18    0.62
  -2  -1 -12    7.79    0.58
  -3  -1 -12   -0.96    1.18
  -3  -1 -12    0.35    0.13
  -3  -1 -12    0.28    0.10
  -4  -1 -12    0.69    0.13
  -4  -1 -12    0.43    0.10
  -5  -1 -12    1.57    0.18
  -6  -1 -12    0.07    0.09
  -7  -1 -12    1.01    0.14
  15  -2 -12   -0.03    0.07
  14  -2 -12    0.37    0.08
  13  -2 -12    0.58    0.10
  12  -2 -12    1.79    0.20
  11  -2 -12    5.11    0.41
  10  -2 -12    0.04    0.11
   9  -2 -12    3.72    0.32
   8  -2 -12    0.05    0.13
   7  -2 -12    6.09    0.48
   6  -2 -12    7.64    0.57
   5  -2 -12    7.61    0.51
   5  -2 -12    5.42    0.60
   4  -2 -12    9.41    0.70
   3  -2 -12    0.04    0.10
   2  -2 -12    8.68    0.67
   2  -2 -12    9.11    0.65
   1  -2 -12    2.80    0.25
   1  -2 -12    2.81    0.28
   0  -2 -12   11.30    0.81
   0  -2 -12   11.13    0.84
  -1  -2 -12   -0.19    0.09
  -1  -2 -12    0.04    0.12
  -1  -2 -12   -0.76    0.98
  -2  -2 -12    0.37    0.13
  -2  -2 -12   -0.95    1.20
  -2  -2 -12    0.34    0.09
  -3  -2 -12    7.02    0.56
  -3  -2 -12    7.30    0.53
  -4  -2 -12    1.13    0.16
  -4  -2 -12    1.24    0.21
  -5  -2 -12    1.00    0.16
  -6  -2 -12    1.52    0.17
  15  -3 -12    0.30    0.07
  14  -3 -12    0.78    0.13
  13  -3 -12   -0.11    0.09
  12  -3 -12    6.06    0.47
  11  -3 -12    0.05    0.11
  10  -3 -12    2.61    0.27
   9  -3 -12    0.96    0.19
   8  -3 -12    7.74    0.60
   7  -3 -12    1.05    0.18
   6  -3 -12    4.91    0.39
   5  -3 -12    2.77    0.26
   4  -3 -12    8.67    0.65
   3  -3 -12   19.17    1.39
   2  -3 -12    1.14    0.20
   2  -3 -12    1.05    0.13
   1  -3 -12    0.11    0.62
   1  -3 -12    0.21    0.10
   1  -3 -12    0.22    0.12
   0  -3 -12    0.99    0.16
   0  -3 -12    1.24    0.15
   0  -3 -12    0.22    0.78
  -1  -3 -12    1.45    0.23
  -1  -3 -12    0.04    0.93
  -1  -3 -12    1.26    0.16
  -2  -3 -12    8.78    0.68
  -2  -3 -12    8.96    0.65
  -3  -3 -12   17.71    1.28
  -3  -3 -12   17.28    1.25
  -4  -3 -12    0.16    0.12
  -4  -3 -12    0.07    0.09
  -5  -3 -12   -0.09    0.08
  -6  -3 -12    0.54    0.09
  15  -4 -12    1.30    0.14
  14  -4 -12    1.49    0.17
  13  -4 -12    1.94    0.21
  12  -4 -12    0.09    0.11
  11  -4 -12    0.19    0.12
  10  -4 -12    0.03    0.13
   9  -4 -12    0.98    0.21
   8  -4 -12    6.39    0.51
   7  -4 -12    3.13    0.33
   6  -4 -12    0.51    0.11
   5  -4 -12    0.14    0.11
   4  -4 -12    0.15    0.11
   3  -4 -12    4.17    0.36
   2  -4 -12    0.02    0.11
   2  -4 -12   -0.03    0.09
   1  -4 -12    0.56    0.11
   1  -4 -12    0.53    0.13
   1  -4 -12   -0.12    0.74
   0  -4 -12    0.06    0.76
   0  -4 -12    0.52    0.13
   0  -4 -12    0.27    0.10
  -1  -4 -12   12.42    0.93
  -1  -4 -12   12.78    0.91
  -2  -4 -12    0.20    0.09
  -2  -4 -12    0.32    0.13
  -3  -4 -12    0.28    0.13
  -3  -4 -12    0.26    0.09
  -4  -4 -12    0.04    0.09
  -4  -4 -12   -0.01    0.12
  -5  -4 -12    0.20    0.09
  15  -5 -12    0.31    0.08
  14  -5 -12    0.71    0.14
  13  -5 -12    1.95    0.22
  12  -5 -12    0.06    0.12
  11  -5 -12    0.10    0.12
  10  -5 -12    0.06    0.14
   9  -5 -12    2.33    0.28
   8  -5 -12    0.76    0.18
   6  -5 -12    0.15    0.10
   5  -5 -12    0.10    0.11
   4  -5 -12    5.44    0.44
   3  -5 -12    0.16    0.11
   2  -5 -12    0.08    0.12
   2  -5 -12   -0.13    0.60
   1  -5 -12    0.17    0.72
   1  -5 -12    0.73    0.14
   1  -5 -12    0.48    0.15
   0  -5 -12    1.43    0.19
   0  -5 -12    1.51    0.23
  -1  -5 -12    6.69    0.56
  -1  -5 -12    7.43    0.53
  -2  -5 -12    0.44    0.10
  -2  -5 -12    0.43    0.13
  -3  -5 -12    5.98    0.45
  -3  -5 -12    5.86    0.48
  -4  -5 -12    0.58    0.10
  -4  -5 -12    0.73    0.13
  14  -6 -12    2.47    0.22
  13  -6 -12    0.07    0.11
  12  -6 -12    0.52    0.12
  11  -6 -12   -0.10    0.12
  10  -6 -12    0.03    0.13
   9  -6 -12    0.11    0.16
   8  -6 -12    0.63    0.18
   6  -6 -12    2.32    0.24
   5  -6 -12    6.43    0.51
   4  -6 -12    0.30    0.12
   3  -6 -12   -0.06    0.67
   3  -6 -12   -0.07    0.11
   2  -6 -12   -0.05    0.12
   2  -6 -12   -0.24    0.70
   1  -6 -12    0.34    0.13
   0  -6 -12    0.48    0.14
  -1  -6 -12    1.04    0.16
  -2  -6 -12   13.27    0.98
  -3  -6 -12    1.44    0.21
  14  -7 -12    1.02    0.15
  13  -7 -12    0.07    0.10
  12  -7 -12    0.49    0.12
  11  -7 -12   -0.13    0.11
  10  -7 -12   -0.05    0.13
   9  -7 -12    0.10    0.15
   8  -7 -12    4.44    0.41
   7  -7 -12    0.10    0.19
   6  -7 -12    0.17    0.11
   5  -7 -12    1.08    0.20
   4  -7 -12    0.43    0.13
   3  -7 -12    0.61    0.13
   2  -7 -12    0.58    0.13
   1  -7 -12    0.60    0.13
   0  -7 -12    0.27    0.13
  -1  -7 -12    0.17    0.12
  -2  -7 -12   11.99    0.88
  13  -8 -12    0.26    0.10
  12  -8 -12    0.40    0.11
  11  -8 -12    0.07    0.12
  10  -8 -12    0.62    0.15
   9  -8 -12   -0.11    0.16
   8  -8 -12    0.22    0.18
   7  -8 -12    0.06    0.21
   6  -8 -12    1.29    0.20
   5  -8 -12    4.16    0.36
   4  -8 -12   -0.01    0.11
   3  -8 -12   -0.03    0.11
   2  -8 -12   -0.04    0.11
   1  -8 -12    2.86    0.28
   0  -8 -12    0.86    0.14
  -1  -8 -12    4.24    0.36
  12  -9 -12    0.10    0.09
  11  -9 -12   -0.01    0.11
  10  -9 -12    0.20    0.13
   9  -9 -12    0.09    0.14
   8  -9 -12    0.03    0.17
   7  -9 -12   -0.14    0.19
   6  -9 -12    0.83    0.15
   6  -9 -12    0.86    0.23
   5  -9 -12    1.28    0.20
   4  -9 -12    0.03    0.11
   3  -9 -12    1.85    0.22
   2  -9 -12    0.36    0.11
   1  -9 -12   -0.11    0.10
   0  -9 -12    0.41    0.12
  11 -10 -12    0.40    0.11
  10 -10 -12    0.46    0.14
   9 -10 -12    0.29    0.14
   8 -10 -12    0.88    0.19
   7 -10 -12    0.31    0.19
   6 -10 -12   -0.08    0.20
   5 -10 -12    0.67    0.23
   5 -10 -12    0.98    0.17
   4 -10 -12    0.10    0.10
   3 -10 -12   -0.09    0.10
   2 -10 -12    0.20    0.11
  10 -11 -12    2.18    0.25
   9 -11 -12    0.53    0.14
   8 -11 -12    0.01    0.15
   7 -11 -12    0.10    0.17
   5 -11 -12   -0.04    0.09
   4 -11 -12    0.58    0.11
   1  18 -13    0.23    0.12
   0  18 -13    0.07    0.12
  -1  18 -13   -0.01    0.12
  -2  18 -13   -0.07    0.12
  -3  18 -13    0.14    0.13
   4  17 -13    0.98    0.21
   3  17 -13    0.33    0.13
   2  17 -13    1.11    0.23
   1  17 -13   -0.05    0.13
   0  17 -13    0.16    0.13
  -1  17 -13    0.18    0.14
  -2  17 -13   -0.13    0.13
  -3  17 -13    0.32    0.14
  -4  17 -13    0.13    0.14
  -5  17 -13    0.30    0.14
   5  16 -13   -0.08    0.12
   4  16 -13   -0.03    0.12
   3  16 -13    0.56    0.14
   2  16 -13    1.36    0.25
   1  16 -13    0.29    0.14
   0  16 -13    0.01    0.13
  -1  16 -13    0.33    0.15
  -2  16 -13   -0.12    0.15
  -3  16 -13   -0.03    0.15
  -4  16 -13    0.55    0.17
  -5  16 -13   -0.55    0.68
  -5  16 -13   -0.05    0.15
  -6  16 -13   -0.44    0.42
   7  15 -13    0.26    0.12
   6  15 -13   -0.04    0.12
   5  15 -13    0.30    0.14
   4  15 -13   -0.07    0.13
   3  15 -13    0.00    0.13
   2  15 -13    1.93    0.26
   1  15 -13    1.91    0.28
   0  15 -13    1.44    0.27
  -1  15 -13   -0.06    0.15
  -2  15 -13    0.93    0.19
  -3  15 -13    3.97    0.42
  -4  15 -13   -0.14    0.48
  -4  15 -13   -0.06    0.17
  -5  15 -13   -0.52    0.46
  -5  15 -13   -0.05    0.18
  -6  15 -13    0.49    0.46
  -7  15 -13   -0.33    0.44
   8  14 -13    0.00    0.12
   7  14 -13    1.26    0.25
   6  14 -13    0.05    0.15
   5  14 -13    1.02    0.25
   4  14 -13    1.25    0.25
   3  14 -13    1.10    0.24
   2  14 -13    0.24    0.14
   1  14 -13    1.39    0.26
   0  14 -13    0.09    0.15
  -1  14 -13   -0.18    0.15
  -2  14 -13    0.33    0.17
  -3  14 -13    0.83    0.20
  -3  14 -13    0.85    0.50
  -4  14 -13    0.02    0.46
  -4  14 -13    0.23    0.20
  -5  14 -13    1.04    0.23
  -5  14 -13    1.21    0.48
  -6  14 -13    0.47    0.47
  -7  14 -13    0.16    0.46
  -8  14 -13    1.00    0.46
   9  13 -13    0.08    0.19
   9  13 -13    0.19    0.12
   8  13 -13    1.38    0.24
   7  13 -13    0.26    0.15
   6  13 -13    0.09    0.15
   5  13 -13    1.07    0.26
   4  13 -13    0.07    0.14
   3  13 -13    0.22    0.14
   2  13 -13    0.02    0.13
   1  13 -13    6.12    0.51
   0  13 -13    1.22    0.28
  -1  13 -13    1.24    0.30
  -2  13 -13    3.61    0.42
  -2  13 -13    3.27    0.59
  -3  13 -13   -0.17    0.47
  -3  13 -13    0.12    0.20
  -4  13 -13    0.16    0.21
  -4  13 -13   -0.07    0.47
  -5  13 -13    0.30    0.22
  -5  13 -13    0.77    0.47
  -6  13 -13    0.33    0.47
  -7  13 -13    0.97    0.48
  -8  13 -13    1.58    0.49
  10  12 -13    0.15    0.12
   9  12 -13    0.86    0.21
   8  12 -13    1.35    0.24
   7  12 -13   -0.14    0.12
   7  12 -13    0.34    0.16
   6  12 -13    0.62    0.18
   6  12 -13    1.45    0.26
   5  12 -13   -0.02    0.16
   5  12 -13    0.21    0.14
   4  12 -13    0.37    0.15
   3  12 -13    0.48    0.14
   2  12 -13    0.11    0.13
   1  12 -13    0.29    0.15
   0  12 -13    0.21    0.16
  -1  12 -13    0.00    0.60
  -1  12 -13    0.22    0.17
  -2  12 -13    0.08    0.19
  -2  12 -13   -0.60    0.47
  -3  12 -13   -0.05    0.46
  -3  12 -13   -0.01    0.21
  -4  12 -13    3.66    0.49
  -4  12 -13    4.32    0.74
  -5  12 -13    6.16    0.83
  -6  12 -13    0.71    0.48
  -7  12 -13    0.75    0.49
  -8  12 -13    0.61    0.49
  -9  12 -13    1.11    0.46
  10  11 -13    0.35    0.13
  10  11 -13   -0.14    0.12
   9  11 -13    0.94    0.22
   8  11 -13    2.07    0.27
   7  11 -13    3.40    0.35
   6  11 -13    0.23    0.16
   6  11 -13   -0.08    0.11
   5  11 -13    2.27    0.27
   5  11 -13    1.32    0.41
   4  11 -13    2.79    0.30
   4  11 -13    2.17    0.30
   3  11 -13   -0.01    0.13
   3  11 -13    0.00    0.16
   2  11 -13   26.37    1.90
   1  11 -13    0.19    0.15
   0  11 -13    2.56    0.35
   0  11 -13    2.77    0.24
  -1  11 -13   -0.04    0.47
  -1  11 -13   -0.01    0.18
  -2  11 -13    0.13    0.46
  -2  11 -13    0.21    0.20
  -3  11 -13    1.06    0.47
  -3  11 -13    0.93    0.24
  -4  11 -13    0.88    0.47
  -4  11 -13    0.09    0.23
  -5  11 -13    7.01    0.87
  -6  11 -13    0.65    0.49
  -7  11 -13    0.11    0.49
  -8  11 -13    0.46    0.51
  -9  11 -13    0.74    0.46
  11  10 -13    0.79    0.18
  10  10 -13    0.06    0.13
   9  10 -13    1.71    0.35
   9  10 -13    2.66    0.27
   8  10 -13    1.90    0.38
   8  10 -13    2.66    0.29
   7  10 -13    0.00    0.12
   7  10 -13    0.54    0.17
   6  10 -13    0.69    0.17
   6  10 -13    0.30    0.12
   5  10 -13    3.61    0.36
   4  10 -13    4.26    0.40
   4  10 -13    4.21    0.39
   3  10 -13    1.88    0.28
   3  10 -13    2.45    0.22
   3  10 -13    1.97    0.30
   2  10 -13   10.95    0.90
   2  10 -13   12.81    0.86
   2  10 -13   11.70    0.89
   1  10 -13    1.39    0.17
   1  10 -13    1.17    0.27
   1  10 -13    1.12    0.29
   0  10 -13    0.87    0.19
   0  10 -13    0.77    0.15
   0  10 -13    0.77    0.49
  -1  10 -13    1.91    0.35
  -1  10 -13    1.60    0.50
  -1  10 -13    1.26    0.20
  -2  10 -13    0.73    0.22
  -2  10 -13    0.86    0.47
  -3  10 -13    1.20    0.25
  -3  10 -13    1.93    0.48
  -4  10 -13    6.16    0.79
  -4  10 -13    4.86    0.55
  -5  10 -13    0.54    0.49
  -6  10 -13    2.18    0.55
  -7  10 -13    0.58    0.53
  -8  10 -13    0.86    0.53
  -9  10 -13    0.00    0.47
  12   9 -13    0.32    0.12
  11   9 -13    0.83    0.19
  10   9 -13    0.04    0.14
  10   9 -13   -0.08    0.11
   9   9 -13    0.27    0.15
   9   9 -13    0.03    0.11
   8   9 -13   11.01    0.85
   8   9 -13   10.29    0.81
   7   9 -13    0.50    0.16
   7   9 -13    0.21    0.12
   6   9 -13    3.81    0.42
   6   9 -13    3.63    0.37
   5   9 -13    0.14    0.10
   5   9 -13    0.24    0.16
   4   9 -13    0.93    0.26
   4   9 -13    0.99    0.17
   3   9 -13   12.62    0.89
   3   9 -13   11.23    0.91
   3   9 -13   12.81    0.93
   2   9 -13    0.64    0.15
   2   9 -13   -0.28    1.23
   2   9 -13    0.88    0.19
   2   9 -13    0.87    0.16
   1   9 -13    0.68    1.11
   1   9 -13    0.09    0.15
   1   9 -13    0.08    0.09
   1   9 -13   -0.03    0.18
   1   9 -13   -0.41    0.49
   0   9 -13    3.18    0.42
   0   9 -13    4.51    0.34
   0   9 -13    5.44    0.78
   0   9 -13    4.61    0.53
  -1   9 -13    0.45    0.46
  -1   9 -13    0.11    0.09
  -2   9 -13    7.93    0.89
  -3   9 -13    0.49    0.47
  -4   9 -13    3.41    0.76
  -5   9 -13    2.72    0.56
  -6   9 -13    7.32    0.97
  -7   9 -13    0.95    0.56
  -8   9 -13    1.20    0.52
  -9   9 -13   -0.28    0.45
  12   8 -13   -0.09    0.11
  11   8 -13    0.86    0.20
  11   8 -13    0.41    0.11
  10   8 -13    0.89    0.31
  10   8 -13    1.03    0.22
   9   8 -13    4.18    0.40
   9   8 -13    4.58    0.46
   8   8 -13   -0.02    0.15
   8   8 -13    0.04    0.11
   7   8 -13    0.16    0.11
   7   8 -13    0.44    0.15
   6   8 -13    8.18    0.65
   6   8 -13    8.35    0.68
   6   8 -13    8.33    0.62
   5   8 -13    0.78    0.18
   5   8 -13    0.95    0.16
   4   8 -13    9.24    0.79
   4   8 -13   11.18    0.79
   4   8 -13   10.10    0.75
   3   8 -13   -1.70    1.08
   3   8 -13    0.65    0.19
   2   8 -13    0.57    0.11
   2   8 -13    0.99    1.09
   2   8 -13    0.57    0.19
   2   8 -13    0.08    0.48
   1   8 -13   -0.19    0.19
   1   8 -13    0.69    1.03
   1   8 -13   -0.10    0.48
   1   8 -13   -0.04    0.09
   0   8 -13    0.49    0.21
   0   8 -13    0.59    0.99
   0   8 -13    0.61    0.11
   0   8 -13    1.29    0.50
  -1   8 -13    2.32    0.49
  -1   8 -13    2.15    1.57
  -1   8 -13    1.79    0.21
  -2   8 -13    1.46    0.49
  -3   8 -13    0.02    0.49
  -4   8 -13    0.87    0.52
  -5   8 -13    1.99    0.57
  -6   8 -13    0.98    0.56
  -7   8 -13    1.96    0.57
  -8   8 -13    0.31    0.54
  -9   8 -13    0.49    0.53
  13   7 -13    0.17    0.11
  12   7 -13   -0.09    0.09
  12   7 -13   -0.12    0.12
  11   7 -13    1.03    0.29
  11   7 -13    1.01    0.21
  10   7 -13    0.16    0.11
  10   7 -13    0.06    0.14
   9   7 -13    3.14    0.33
   9   7 -13    3.70    0.41
   8   7 -13    5.48    0.52
   8   7 -13    5.37    0.46
   7   7 -13    3.47    0.35
   7   7 -13    3.87    0.41
   7   7 -13    3.53    0.31
   6   7 -13   12.50    0.90
   6   7 -13   11.44    0.87
   5   7 -13    4.45    0.40
   5   7 -13    4.14    0.35
   4   7 -13    1.91    0.21
   4   7 -13    1.93    0.29
   3   7 -13    3.95    0.41
   3   7 -13    2.46    1.24
   3   7 -13    4.20    0.34
   2   7 -13    1.05    0.51
   2   7 -13    1.35    1.04
   2   7 -13    1.75    0.20
   2   7 -13    1.87    0.32
   1   7 -13    8.14    1.66
   1   7 -13    7.16    0.64
   1   7 -13    7.71    0.57
   0   7 -13    3.45    1.17
   0   7 -13    4.25    0.78
   0   7 -13    3.19    0.43
   0   7 -13    4.03    0.32
  -1   7 -13    1.84    0.51
  -1   7 -13    1.62    0.21
  -2   7 -13    1.89    0.51
  -3   7 -13    3.31    0.78
  -4   7 -13    9.79    0.71
  -4   7 -13    9.13    1.06
  -5   7 -13    4.43    0.88
  -5   7 -13    4.40    0.36
  -6   7 -13    3.30    0.84
  -6   7 -13    3.64    0.31
  -7   7 -13    0.66    0.58
  -8   7 -13    0.36    0.57
  -9   7 -13    0.02    0.46
  13   6 -13    0.15    0.11
  12   6 -13    0.24    0.09
  12   6 -13    0.33    0.13
  11   6 -13    6.76    0.57
  11   6 -13    7.89    0.62
  10   6 -13    0.13    0.14
  10   6 -13    0.17    0.11
   9   6 -13    6.90    0.59
   9   6 -13    8.21    0.64
   8   6 -13    4.87    0.45
   8   6 -13    4.13    0.38
   8   6 -13    3.66    0.35
   7   6 -13    1.33    0.30
   7   6 -13    0.66    0.11
   7   6 -13    0.67    0.17
   6   6 -13    3.04    0.33
   6   6 -13    3.12    0.28
   5   6 -13    1.89    0.21
   5   6 -13    1.94    0.28
   4   6 -13   -0.01    0.16
   4   6 -13   -0.02    0.09
   3   6 -13    1.05    0.46
   3   6 -13    1.19    1.04
   3   6 -13    1.80    0.29
   3   6 -13    1.91    0.20
   2   6 -13    0.48    0.10
   2   6 -13    0.21    0.50
   2   6 -13    1.05    0.97
   2   6 -13    0.43    0.20
   1   6 -13    5.03    0.53
   1   6 -13    6.20    0.86
   1   6 -13    5.81    0.44
   1   6 -13    7.55    1.54
   0   6 -13    1.34    0.90
   0   6 -13    0.23    0.10
   0   6 -13   -0.08    0.50
  -1   6 -13   10.74    0.82
  -1   6 -13   12.15    1.12
  -2   6 -13    0.98    0.15
  -2   6 -13    1.06    0.52
  -3   6 -13    3.04    0.27
  -3   6 -13    3.58    0.80
  -4   6 -13    2.04    0.57
  -4   6 -13    1.78    0.20
  -5   6 -13    3.61    0.31
  -5   6 -13    4.43    0.90
  -6   6 -13    0.78    0.56
  -6   6 -13    0.22    0.11
  -7   6 -13    0.80    0.61
  -7   6 -13    0.60    0.11
  -8   6 -13   -0.17    0.50
  14   5 -13    0.92    0.17
  13   5 -13    1.52    0.28
  13   5 -13    1.24    0.20
  12   5 -13    0.85    0.29
  11   5 -13    2.51    0.35
  11   5 -13    2.18    0.26
  10   5 -13    0.31    0.14
   9   5 -13    7.47    0.59
   8   5 -13    0.27    0.14
   8   5 -13    0.29    0.10
   7   5 -13    0.13    0.09
   7   5 -13    0.10    0.14
   6   5 -13    8.22    0.62
   6   5 -13    8.20    0.65
   5   5 -13    0.07    0.09
   5   5 -13    0.04    0.15
   4   5 -13   -0.02    0.16
   4   5 -13   -1.59    0.86
   4   5 -13   -0.05    0.09
   3   5 -13   -0.16    0.45
   3   5 -13    0.29    0.91
   3   5 -13    0.17    0.17
   3   5 -13    0.21    0.09
   2   5 -13    4.95    1.44
   2   5 -13    4.55    0.80
   2   5 -13    4.26    0.46
   2   5 -13    4.35    0.36
   1   5 -13    1.56    0.35
   1   5 -13    1.81    0.20
   1   5 -13    2.41    0.96
   1   5 -13    1.15    0.53
   0   5 -13    0.91    0.48
   0   5 -13    0.72    0.12
  -1   5 -13   29.86    2.24
  -1   5 -13   31.34    2.23
  -1   5 -13   33.02    2.40
  -2   5 -13    0.15    0.53
  -2   5 -13    0.03    0.11
  -2   5 -13    0.22    0.08
  -3   5 -13    0.73    0.55
  -3   5 -13    0.22    0.09
  -4   5 -13    3.76    0.89
  -4   5 -13    3.21    0.28
  -5   5 -13    3.21    0.28
  -5   5 -13    3.54    0.69
  -6   5 -13    0.36    0.10
  -6   5 -13    0.30    0.63
  -7   5 -13    0.22    0.10
  -7   5 -13    0.34    0.56
  -8   5 -13    0.26    0.09
  14   4 -13    1.21    0.19
  13   4 -13    2.53    0.28
  13   4 -13    3.63    0.35
  12   4 -13    0.25    0.13
  11   4 -13    5.66    0.46
  10   4 -13    0.18    0.07
  10   4 -13    0.07    0.14
   9   4 -13   17.10    1.17
   9   4 -13   15.78    1.14
   9   4 -13   14.80    1.15
   8   4 -13    0.07    0.09
   8   4 -13    0.15    0.15
   7   4 -13    8.10    0.64
   7   4 -13    8.38    0.62
   6   4 -13    0.21    0.10
   6   4 -13    0.21    0.15
   5   4 -13    0.26    0.15
   5   4 -13    0.12    0.09
   4   4 -13    0.20    0.17
   4   4 -13   -0.45    0.91
   4   4 -13    0.28    0.09
   3   4 -13    0.86    0.91
   3   4 -13    0.27    0.48
   3   4 -13    0.41    0.19
   3   4 -13    0.55    0.10
   2   4 -13    0.95    0.86
   2   4 -13    1.06    0.17
   2   4 -13    1.18    0.32
   2   4 -13    0.96    0.52
   1   4 -13    5.04    0.40
   1   4 -13    6.60    0.85
   1   4 -13    4.45    0.49
   0   4 -13    3.27    0.58
   0   4 -13    2.16    0.25
   0   4 -13    2.37    0.21
  -1   4 -13    4.28    0.33
  -1   4 -13    3.91    0.36
  -1   4 -13    5.20    0.81
  -2   4 -13    0.60    0.12
  -2   4 -13    0.52    0.52
  -2   4 -13    0.31    0.09
  -3   4 -13   15.18    1.36
  -3   4 -13   14.59    1.06
  -4   4 -13    0.66    0.57
  -4   4 -13    0.30    0.10
  -5   4 -13    2.10    0.21
  -5   4 -13    2.10    0.64
  -6   4 -13    7.39    1.11
  -6   4 -13    8.72    0.62
  -7   4 -13    4.90    0.38
  -8   4 -13    0.12    0.08
  14   3 -13    1.74    0.21
  13   3 -13    0.73    0.19
  12   3 -13    0.30    0.14
  12   3 -13    0.32    0.08
  11   3 -13    2.26    0.28
  11   3 -13    2.63    0.21
  10   3 -13    0.47    0.15
  10   3 -13    0.55    0.10
   9   3 -13    0.50    0.15
   9   3 -13    0.31    0.10
   9   3 -13    0.18    0.06
   8   3 -13    4.06    0.35
   8   3 -13    4.39    0.39
   7   3 -13    5.19    0.44
   7   3 -13    4.64    0.39
   6   3 -13    4.57    0.42
   6   3 -13    4.46    0.37
   5   3 -13    5.40    0.47
   5   3 -13    4.95    0.41
   4   3 -13   15.08    1.10
   4   3 -13   15.23    1.14
   3   3 -13    6.59    0.52
   3   3 -13    6.70    0.59
   3   3 -13    9.51    1.91
   3   3 -13    7.62    0.91
   2   3 -13    1.18    0.83
   2   3 -13    0.66    0.49
   2   3 -13    0.28    0.19
   2   3 -13    0.29    0.10
   1   3 -13    2.63    0.26
   1   3 -13    3.63    0.61
   0   3 -13   -0.01    0.08
   0   3 -13    0.07    0.10
   0   3 -13    0.25    0.54
  -1   3 -13    0.81    0.10
  -1   3 -13    0.67    0.13
  -1   3 -13    0.89    0.54
  -2   3 -13   15.49    1.14
  -2   3 -13   15.93    1.12
  -2   3 -13   15.18    1.41
  -3   3 -13    3.83    0.31
  -3   3 -13    4.19    0.92
  -4   3 -13    1.03    0.12
  -4   3 -13    0.68    0.60
  -5   3 -13    4.92    0.37
  -5   3 -13    3.69    0.97
  -6   3 -13   -0.05    0.09
  -7   3 -13    5.08    0.39
  -8   3 -13    0.01    0.08
  14   2 -13    0.65    0.18
  13   2 -13    0.26    0.13
  13   2 -13    0.53    0.11
  12   2 -13    3.32    0.30
  12   2 -13    2.76    0.24
  11   2 -13    1.39    0.23
  11   2 -13    1.01    0.13
  10   2 -13    0.73    0.12
  10   2 -13    1.18    0.23
   9   2 -13    4.87    0.42
   9   2 -13    4.47    0.35
   8   2 -13    2.15    0.29
   8   2 -13    1.92    0.18
   8   2 -13    2.19    0.22
   7   2 -13    0.04    0.09
   7   2 -13    0.00    0.15
   6   2 -13    2.16    0.31
   6   2 -13    2.05    0.23
   5   2 -13    5.16    0.38
   5   2 -13    4.37    0.44
   4   2 -13    3.59    0.40
   4   2 -13    3.82    0.32
   3   2 -13   39.03    2.71
   3   2 -13   36.85    2.74
   2   2 -13   11.45    0.95
   2   2 -13   13.19    0.90
   1   2 -13    0.31    0.10
   1   2 -13    0.42    0.50
   1   2 -13    0.48    0.08
   0   2 -13   11.44    1.19
   0   2 -13   10.93    0.84
   0   2 -13   11.78    0.82
  -1   2 -13   12.39    0.91
  -1   2 -13   12.29    0.89
  -1   2 -13   11.84    1.23
  -2   2 -13    9.41    1.17
  -2   2 -13    9.39    0.72
  -2   2 -13   10.52    0.74
  -3   2 -13    4.76    0.37
  -3   2 -13    4.52    1.01
  -3   2 -13    4.72    0.39
  -4   2 -13   10.43    0.74
  -4   2 -13    8.91    1.20
  -5   2 -13   -0.14    0.09
  -6   2 -13    1.47    0.17
  -7   2 -13    0.18    0.08
  -8   2 -13    1.00    0.14
  14   1 -13    1.67    0.16
  14   1 -13    1.92    0.31
  13   1 -13    2.97    0.30
  13   1 -13    3.18    0.25
  12   1 -13    1.12    0.22
  12   1 -13    0.74    0.12
  11   1 -13    0.92    0.13
  11   1 -13    1.37    0.24
  10   1 -13    0.59    0.17
  10   1 -13    0.54    0.09
   9   1 -13    0.36    0.16
   9   1 -13    0.39    0.09
   8   1 -13    0.72    0.19
   8   1 -13    0.74    0.14
   8   1 -13    0.65    0.12
   7   1 -13    2.14    0.24
   7   1 -13    2.40    0.21
   7   1 -13    2.37    0.32
   6   1 -13    1.57    0.20
   6   1 -13    1.57    0.30
   5   1 -13    2.14    0.23
   5   1 -13    2.21    0.33
   4   1 -13    5.42    0.42
   4   1 -13    5.30    0.50
   3   1 -13    1.92    0.21
   3   1 -13    1.90    0.34
   2   1 -13    1.43    0.19
   1   1 -13    0.26    0.52
   1   1 -13    0.23    0.10
   1   1 -13    0.19    0.09
   0   1 -13    2.89    0.26
   0   1 -13    3.70    0.62
   0   1 -13    3.00    0.29
  -1   1 -13   25.59    1.89
  -1   1 -13   27.32    1.90
  -1   1 -13   26.61    2.13
  -2   1 -13    1.06    0.59
  -2   1 -13    1.78    0.22
  -2   1 -13    1.15    0.16
  -3   1 -13    7.87    0.60
  -3   1 -13    7.23    1.10
  -3   1 -13    8.00    0.58
  -4   1 -13   -0.11    0.09
  -5   1 -13    1.63    0.18
  -6   1 -13    0.02    0.09
  -7   1 -13    0.52    0.09
  14   0 -13    0.11    0.07
  13   0 -13    0.69    0.12
  12   0 -13    1.10    0.24
  12   0 -13    0.97    0.14
  11   0 -13   -0.03    0.15
  11   0 -13    0.09    0.08
  10   0 -13    0.11    0.16
  10   0 -13    0.18    0.09
   9   0 -13    0.08    0.09
   9   0 -13    0.06    0.17
   8   0 -13    0.06    0.18
   8   0 -13    0.13    0.10
   8   0 -13    0.09    0.10
   7   0 -13    0.96    0.13
   7   0 -13    0.91    0.20
   6   0 -13    1.12    0.30
   6   0 -13    1.18    0.19
   5   0 -13    0.33    0.20
   5   0 -13    0.29    0.10
   4   0 -13    6.48    0.59
   4   0 -13    7.43    0.53
   3   0 -13   12.68    0.93
   2   0 -13    7.06    0.54
   1   0 -13    4.66    0.36
   1   0 -13    4.48    0.38
   0   0 -13    0.00    0.12
   0   0 -13   -0.04    0.09
  -1   0 -13    1.38    0.22
  -1   0 -13    1.10    0.13
  -1   0 -13    0.91    0.57
  -2   0 -13    0.10    0.12
  -2   0 -13   -0.04    0.09
  -3   0 -13   -0.67    1.11
  -3   0 -13    0.07    0.09
  -3   0 -13    0.02    0.11
  -4   0 -13    3.75    0.30
  -5   0 -13    0.14    0.09
  -6   0 -13    0.39    0.09
  -7   0 -13    3.02    0.25
  15  -1 -13    0.01    0.07
  14  -1 -13    0.08    0.07
  13  -1 -13    1.29    0.15
  12  -1 -13    0.06    0.08
  11  -1 -13    2.60    0.24
  10  -1 -13    0.81    0.16
   9  -1 -13    4.51    0.37
   8  -1 -13    0.41    0.19
   8  -1 -13    0.20    0.13
   7  -1 -13    5.45    0.55
   7  -1 -13    6.56    0.47
   6  -1 -13    3.22    0.28
   6  -1 -13    2.92    0.39
   5  -1 -13    1.07    0.17
   5  -1 -13    0.71    0.20
   4  -1 -13    0.36    0.10
   3  -1 -13   21.62    1.56
   2  -1 -13    1.31    0.21
   1  -1 -13   14.58    1.08
   1  -1 -13   14.80    1.06
   0  -1 -13    7.44    0.55
   0  -1 -13    7.34    0.58
  -1  -1 -13    0.07    0.13
  -1  -1 -13   -0.21    0.08
  -2  -1 -13   -0.94    0.89
  -2  -1 -13    0.17    0.13
  -2  -1 -13    0.13    0.09
  -3  -1 -13    1.15    0.16
  -3  -1 -13    1.40    0.22
  -4  -1 -13    0.58    0.10
  -4  -1 -13    0.65    0.12
  -5  -1 -13    1.49    0.17
  -6  -1 -13    0.09    0.08
  15  -2 -13    0.12    0.07
  14  -2 -13    0.27    0.07
  13  -2 -13    0.41    0.09
  12  -2 -13    1.10    0.17
  11  -2 -13    4.93    0.40
  10  -2 -13    0.17    0.11
   9  -2 -13    0.35    0.12
   8  -2 -13    2.28    0.26
   7  -2 -13    4.37    0.37
   6  -2 -13    2.51    0.25
   5  -2 -13    0.17    0.09
   4  -2 -13    2.59    0.25
   3  -2 -13    2.20    0.24
   2  -2 -13    0.66    0.14
   1  -2 -13    5.33    0.40
   1  -2 -13    4.98    0.43
   0  -2 -13    5.57    0.42
   0  -2 -13    5.27    0.45
  -1  -2 -13   11.31    0.82
  -1  -2 -13   11.47    0.85
  -2  -2 -13    0.13    0.09
  -2  -2 -13    0.36    0.14
  -3  -2 -13    0.69    0.14
  -3  -2 -13    0.79    0.11
  -4  -2 -13    0.19    0.09
  -4  -2 -13    0.13    0.11
  -5  -2 -13    2.53    0.22
  -6  -2 -13    0.50    0.09
  15  -3 -13    0.65    0.10
  14  -3 -13    0.11    0.07
  13  -3 -13    0.19    0.09
  12  -3 -13    0.02    0.10
  11  -3 -13    1.76    0.21
  10  -3 -13    2.94    0.29
   9  -3 -13   -0.19    0.13
   8  -3 -13    0.14    0.15
   7  -3 -13    7.36    0.56
   6  -3 -13   -0.05    0.09
   5  -3 -13    2.15    0.23
   4  -3 -13    3.91    0.34
   3  -3 -13    0.62    0.13
   2  -3 -13    8.97    0.68
   1  -3 -13   -0.12    0.10
   1  -3 -13   -0.07    0.12
   0  -3 -13    0.70    0.15
   0  -3 -13    0.89    0.12
  -1  -3 -13    0.60    0.14
  -1  -3 -13    0.38    0.10
  -2  -3 -13    0.14    0.09
  -2  -3 -13    0.29    0.13
  -3  -3 -13    8.13    0.62
  -3  -3 -13    7.98    0.59
  -4  -3 -13    0.52    0.11
  -4  -3 -13    0.39    0.09
  -5  -3 -13    0.04    0.08
  14  -4 -13   -0.06    0.07
  13  -4 -13   -0.08    0.09
  12  -4 -13    1.68    0.21
  11  -4 -13    0.69    0.13
  10  -4 -13    0.54    0.14
   9  -4 -13    0.58    0.15
   8  -4 -13    1.24    0.25
   7  -4 -13    0.72    0.13
   6  -4 -13    0.86    0.13
   5  -4 -13    0.82    0.13
   4  -4 -13    1.25    0.20
   3  -4 -13    1.44    0.22
   2  -4 -13    0.96    0.15
   1  -4 -13    0.12    0.13
   1  -4 -13   -0.15    0.10
   0  -4 -13    1.73    0.24
   0  -4 -13    2.02    0.21
  -1  -4 -13    0.95    0.16
  -1  -4 -13    1.30    0.17
  -2  -4 -13    3.44    0.28
  -2  -4 -13    3.44    0.32
  -3  -4 -13    1.68    0.22
  -3  -4 -13    1.76    0.18
  -4  -4 -13    0.06    0.08
  -4  -4 -13    0.03    0.10
  14  -5 -13    0.14    0.08
  13  -5 -13    0.09    0.10
  12  -5 -13    0.05    0.11
  11  -5 -13    0.12    0.11
  10  -5 -13   -0.05    0.13
   9  -5 -13    1.07    0.23
   8  -5 -13    0.01    0.17
   7  -5 -13    0.03    0.10
   6  -5 -13    6.00    0.47
   5  -5 -13    1.00    0.19
   4  -5 -13    3.41    0.31
   3  -5 -13   -0.17    0.11
   2  -5 -13   -0.06    0.12
   1  -5 -13    0.03    0.12
   0  -5 -13    0.19    0.11
   0  -5 -13    0.03    0.12
  -1  -5 -13   -0.02    0.12
  -1  -5 -13    0.09    0.10
  -2  -5 -13    2.27    0.22
  -2  -5 -13    2.58    0.26
  -3  -5 -13    0.20    0.09
  -3  -5 -13    0.16    0.11
  14  -6 -13    0.14    0.07
  13  -6 -13    0.07    0.10
  12  -6 -13    0.04    0.10
  11  -6 -13    0.15    0.12
  10  -6 -13    0.13    0.13
   9  -6 -13    2.53    0.29
   8  -6 -13    0.09    0.16
   6  -6 -13    2.35    0.24
   5  -6 -13    0.28    0.11
   4  -6 -13    0.12    0.11
   3  -6 -13    1.82    0.23
   2  -6 -13   -0.08    0.12
   1  -6 -13    3.03    0.29
   0  -6 -13    0.41    0.13
  -1  -6 -13    3.40    0.31
  -2  -6 -13    0.07    0.11
  13  -7 -13    0.46    0.11
  12  -7 -13    0.14    0.10
  11  -7 -13    1.21    0.20
  10  -7 -13    0.15    0.14
   9  -7 -13    1.10    0.24
   8  -7 -13    2.21    0.30
   7  -7 -13    1.31    0.29
   6  -7 -13    4.13    0.34
   5  -7 -13    2.15    0.24
   4  -7 -13    3.38    0.31
   3  -7 -13    0.07    0.11
   2  -7 -13    0.05    0.11
   1  -7 -13    1.18    0.20
   0  -7 -13    2.74    0.27
  -1  -7 -13   -0.08    0.10
  12  -8 -13    0.05    0.10
  11  -8 -13    1.43    0.21
  10  -8 -13    0.00    0.13
   9  -8 -13    0.26    0.16
   8  -8 -13    0.11    0.17
   7  -8 -13    0.13    0.20
   6  -8 -13    0.17    0.09
   5  -8 -13    0.13    0.10
   4  -8 -13    0.21    0.10
   3  -8 -13   -0.01    0.11
   2  -8 -13    1.05    0.18
   1  -8 -13    2.40    0.24
   0  -8 -13    0.32    0.11
  10  -9 -13    0.88    0.21
   9  -9 -13    0.09    0.13
   8  -9 -13    0.00    0.17
   7  -9 -13    0.13    0.19
   6  -9 -13    0.44    0.22
   6  -9 -13    0.35    0.10
   5  -9 -13   -0.05    0.09
   4  -9 -13    0.33    0.10
   3  -9 -13    2.12    0.22
   2  -9 -13    0.06    0.10
   9 -10 -13    0.05    0.14
   8 -10 -13    0.11    0.16
   7 -10 -13   -0.04    0.17
   6 -10 -13    0.92    0.20
   5 -10 -13   -0.37    0.19
   5 -10 -13   -0.04    0.08
   4 -10 -13    0.02    0.08
  -1  18 -14    0.06    0.12
   3  17 -14   -0.03    0.12
   2  17 -14   -0.02    0.12
   1  17 -14    0.03    0.12
   0  17 -14    0.66    0.15
  -1  17 -14    0.12    0.13
  -2  17 -14    0.12    0.13
  -3  17 -14    0.07    0.13
  -4  17 -14   -0.03    0.14
   5  16 -14    0.41    0.12
   4  16 -14   -0.02    0.12
   3  16 -14    0.04    0.13
   2  16 -14    0.70    0.15
   1  16 -14    0.27    0.14
   0  16 -14    5.39    0.47
  -1  16 -14    0.48    0.16
  -2  16 -14    0.29    0.15
  -3  16 -14   -0.16    0.15
  -4  16 -14    0.23    0.16
  -5  16 -14   -0.78    0.43
   6  15 -14    0.04    0.12
   5  15 -14    0.68    0.14
   4  15 -14    0.27    0.13
   3  15 -14    0.19    0.13
   2  15 -14    3.94    0.38
   1  15 -14    1.50    0.27
   0  15 -14    0.15    0.15
  -1  15 -14    0.63    0.17
  -2  15 -14    0.09    0.17
  -3  15 -14    0.21    0.17
  -4  15 -14    1.05    0.47
  -4  15 -14    0.88    0.20
  -5  15 -14    0.14    0.45
  -6  15 -14    0.30    0.45
   8  14 -14    0.08    0.11
   7  14 -14    0.28    0.13
   6  14 -14   -0.06    0.13
   5  14 -14    0.11    0.13
   4  14 -14    0.16    0.13
   3  14 -14    1.49    0.25
   2  14 -14    3.49    0.35
   1  14 -14    0.02    0.14
   0  14 -14    0.66    0.17
  -1  14 -14    7.16    0.60
  -2  14 -14    4.25    0.45
  -3  14 -14    2.13    0.53
  -3  14 -14    2.32    0.36
  -4  14 -14    0.45    0.20
  -4  14 -14    0.18    0.47
  -5  14 -14   -0.17    0.47
  -6  14 -14    1.06    0.48
  -7  14 -14    0.18    0.44
   9  13 -14    0.31    0.12
   9  13 -14    0.27    0.13
   8  13 -14    0.19    0.14
   8  13 -14    0.19    0.13
   7  13 -14    0.11    0.14
   6  13 -14    0.07    0.14
   5  13 -14    0.07    0.13
   4  13 -14    0.72    0.15
   3  13 -14    4.37    0.40
   2  13 -14    1.26    0.25
   1  13 -14    0.38    0.16
   0  13 -14    2.10    0.32
  -1  13 -14    0.02    0.17
  -2  13 -14    0.04    0.49
  -2  13 -14    0.11    0.19
  -3  13 -14    0.82    0.48
  -3  13 -14    0.83    0.22
  -4  13 -14    0.98    0.50
  -4  13 -14    0.57    0.23
  -5  13 -14    1.98    0.52
  -6  13 -14    0.98    0.49
  -7  13 -14    1.16    0.48
   9  12 -14    1.06    0.22
   9  12 -14    0.87    0.21
   8  12 -14    0.05    0.14
   8  12 -14    0.24    0.14
   7  12 -14    3.52    0.33
   7  12 -14    2.52    0.32
   6  12 -14    0.54    0.15
   6  12 -14    0.25    0.16
   5  12 -14    0.09    0.14
   5  12 -14   -0.14    0.15
   4  12 -14    0.32    0.26
   4  12 -14    0.36    0.14
   3  12 -14   -0.01    0.13
   2  12 -14    2.07    0.28
   1  12 -14    2.89    0.35
   0  12 -14    0.96    0.19
  -1  12 -14    0.50    0.19
  -1  12 -14    0.12    0.51
  -2  12 -14    2.98    0.78
  -2  12 -14    3.27    0.43
  -3  12 -14    1.11    0.51
  -3  12 -14    1.06    0.24
  -4  12 -14    9.67    0.97
  -4  12 -14    8.50    0.75
  -5  12 -14    2.19    0.54
  -6  12 -14    0.65    0.50
  -7  12 -14    0.36    0.48
  -8  12 -14    1.81    0.49
  10  11 -14    0.72    0.20
   9  11 -14   -0.22    0.11
   9  11 -14    0.15    0.14
   8  11 -14    4.45    0.40
   7  11 -14   -0.12    0.12
   7  11 -14    0.27    0.16
   6  11 -14    0.03    0.14
   6  11 -14   -0.11    0.15
   5  11 -14    0.10    0.16
   5  11 -14    0.03    0.14
   4  11 -14    0.06    0.17
   4  11 -14    0.03    0.13
   3  11 -14    4.98    0.44
   3  11 -14    5.01    0.45
   2  11 -14   14.66    1.16
   2  11 -14   16.28    1.15
   1  11 -14   11.97    0.95
   1  11 -14   12.98    0.91
   0  11 -14   -0.05    0.52
   0  11 -14    0.35    0.10
   0  11 -14    0.25    0.18
  -1  11 -14    3.33    0.42
  -1  11 -14    3.43    0.80
  -2  11 -14    0.32    0.21
  -2  11 -14    0.34    0.49
  -3  11 -14    0.96    0.50
  -3  11 -14    0.48    0.22
  -4  11 -14    4.74    0.81
  -5  11 -14    3.95    0.80
  -6  11 -14    1.33    0.53
  -7  11 -14    1.51    0.51
  -8  11 -14    0.86    0.48
  11  10 -14    0.83    0.19
  10  10 -14    0.11    0.13
   9  10 -14    1.47    0.25
   8  10 -14    0.03    0.15
   7  10 -14    0.91    0.25
   6  10 -14    0.60    0.17
   5  10 -14    0.37    0.17
   5  10 -14    0.27    0.14
   4  10 -14    0.61    0.19
   4  10 -14    0.96    0.17
   4  10 -14    0.38    0.15
   3  10 -14   18.62    1.43
   3  10 -14   18.67    1.42
   3  10 -14   21.07    1.40
   2  10 -14   -0.03    0.14
   2  10 -14    0.03    0.18
   2  10 -14    0.21    0.10
   1  10 -14    1.48    0.29
   1  10 -14    1.15    0.53
   1  10 -14    1.03    0.17
   1  10 -14    0.86    0.21
   0  10 -14    0.22    0.10
   0  10 -14    0.25    0.19
   0  10 -14    0.02    0.49
  -1  10 -14    1.80    0.53
  -1  10 -14    1.72    0.23
  -2  10 -14    0.71    0.50
  -3  10 -14    1.67    0.52
  -4  10 -14    3.91    0.80
  -5  10 -14    1.96    0.55
  -6  10 -14    1.70    0.54
  -7  10 -14    3.10    0.82
  -8  10 -14    0.51    0.48
  12   9 -14    0.02    0.11
  11   9 -14    0.08    0.12
  11   9 -14   -0.18    0.10
  10   9 -14    1.47    0.23
  10   9 -14    0.86    0.31
   9   9 -14    0.06    0.12
   9   9 -14    0.24    0.15
   8   9 -14    0.14    0.12
   8   9 -14    0.80    0.17
   7   9 -14    0.26    0.14
   7   9 -14    0.47    0.17
   6   9 -14    1.48    0.27
   5   9 -14    0.86    0.20
   5   9 -14    0.76    0.16
   5   9 -14    1.19    0.17
   4   9 -14    1.62    0.29
   4   9 -14    1.88    0.21
   4   9 -14    1.93    0.31
   3   9 -14   13.97    1.08
   3   9 -14   14.74    1.04
   2   9 -14   -0.08    0.09
   2   9 -14   -0.08    0.19
   2   9 -14   -0.34    0.52
   1   9 -14   -0.13    0.51
   1   9 -14    0.01    0.10
   1   9 -14    0.06    0.19
   0   9 -14    2.04    0.22
   0   9 -14    2.55    0.54
  -1   9 -14    2.54    0.25
  -1   9 -14    3.59    0.79
  -2   9 -14    1.35    0.53
  -3   9 -14    0.31    0.49
  -4   9 -14    4.43    0.83
  -5   9 -14    5.57    0.90
  -6   9 -14    0.87    0.55
  -7   9 -14    0.21    0.53
  -8   9 -14    0.68    0.52
  12   8 -14   -0.06    0.11
  11   8 -14   -0.12    0.09
  11   8 -14    0.00    0.13
  10   8 -14    0.34    0.11
  10   8 -14    0.74    0.21
   9   8 -14   -0.04    0.11
   9   8 -14    0.26    0.15
   8   8 -14    1.54    0.34
   8   8 -14    1.89    0.27
   7   8 -14    0.48    0.17
   6   8 -14    2.82    0.25
   6   8 -14    2.48    0.32
   5   8 -14    0.75    0.19
   5   8 -14    1.00    0.17
   4   8 -14   -0.09    0.18
   4   8 -14    0.08    0.09
   3   8 -14    1.17    0.29
   3   8 -14    0.92    0.17
   3   8 -14    0.30    0.51
   2   8 -14   -0.12    0.20
   2   8 -14   -0.49    0.51
   2   8 -14    0.17    0.10
   1   8 -14    0.83    0.13
   1   8 -14    0.97    0.54
   1   8 -14    0.57    0.22
   0   8 -14    0.93    0.53
   0   8 -14    0.65    0.12
  -1   8 -14    0.34    0.11
  -1   8 -14    0.91    0.53
  -2   8 -14    9.92    1.08
  -3   8 -14    0.35    0.53
  -4   8 -14    3.07    0.61
  -5   8 -14    3.77    0.92
  -6   8 -14    0.30    0.54
  -7   8 -14    0.28    0.55
  -8   8 -14    0.34    0.46
  13   7 -14    0.00    0.10
  12   7 -14    0.07    0.12
  12   7 -14    0.07    0.09
  11   7 -14    0.17    0.13
  11   7 -14    0.12    0.09
  10   7 -14   -0.05    0.14
  10   7 -14    0.09    0.10
   9   7 -14    2.82    0.37
   9   7 -14    2.30    0.29
   8   7 -14    0.66    0.17
   8   7 -14    0.52    0.12
   7   7 -14    3.92    0.33
   7   7 -14    3.99    0.39
   6   7 -14    1.03    0.26
   6   7 -14    1.09    0.18
   5   7 -14    3.16    0.36
   5   7 -14    3.13    0.28
   4   7 -14   -0.08    0.18
   4   7 -14   -0.01    0.10
   3   7 -14    0.00    1.12
   3   7 -14    1.66    0.32
   3   7 -14    0.76    0.50
   2   7 -14    0.51    0.22
   2   7 -14    0.39    0.51
   2   7 -14    0.31    0.11
   2   7 -14    0.64    1.05
   1   7 -14    1.59    1.96
   1   7 -14    0.95    0.18
   1   7 -14    1.00    0.25
   1   7 -14    0.74    0.54
   0   7 -14    5.27    0.44
   0   7 -14    6.75    0.87
  -1   7 -14    5.98    0.93
  -1   7 -14    4.72    0.40
  -2   7 -14    0.24    0.54
  -3   7 -14    9.07    1.10
  -4   7 -14    0.72    0.55
  -5   7 -14    0.37    0.58
  -6   7 -14    2.12    0.63
  -7   7 -14    0.88    0.52
  -8   7 -14    0.10    0.49
  13   6 -14    0.31    0.12
  12   6 -14    1.18    0.20
  12   6 -14    1.15    0.27
  11   6 -14    0.03    0.13
  11   6 -14    0.08    0.10
  10   6 -14    0.04    0.11
  10   6 -14    0.05    0.14
   9   6 -14    2.90    0.32
   9   6 -14    3.45    0.40
   8   6 -14    0.64    0.17
   8   6 -14    1.24    0.32
   8   6 -14    0.63    0.11
   7   6 -14    4.28    0.40
   7   6 -14    4.21    0.35
   6   6 -14    0.21    0.10
   6   6 -14    0.01    0.16
   5   6 -14    0.02    0.17
   5   6 -14   -0.06    0.10
   4   6 -14    0.05    0.18
   4   6 -14    0.09    0.10
   3   6 -14    0.45    0.20
   3   6 -14    0.28    1.03
   3   6 -14    0.41    0.11
   3   6 -14    0.33    0.51
   2   6 -14    2.79    1.19
   2   6 -14    2.46    0.25
   2   6 -14    2.60    0.40
   2   6 -14    2.92    0.58
   1   6 -14    2.59    1.15
   1   6 -14    3.02    0.43
   1   6 -14    3.91    0.80
   1   6 -14    3.48    0.30
   0   6 -14    2.61    0.26
   0   6 -14    2.67    0.58
  -1   6 -14    0.17    0.11
  -1   6 -14    0.35    0.50
  -2   6 -14    1.50    0.55
  -2   6 -14    1.05    0.19
  -3   6 -14   11.95    0.86
  -3   6 -14   11.64    1.25
  -4   6 -14    2.96    0.67
  -4   6 -14    3.05    0.27
  -5   6 -14    3.20    0.29
  -5   6 -14    4.02    0.95
  -6   6 -14    1.13    0.18
  -6   6 -14    1.63    0.54
  -7   6 -14    0.45    0.54
  -7   6 -14    0.58    0.10
  -8   6 -14   -0.18    0.60
  13   5 -14    0.29    0.12
  12   5 -14    1.33    0.29
  12   5 -14    1.00    0.20
  11   5 -14    1.11    0.22
  10   5 -14    1.61    0.32
   9   5 -14    3.96    0.37
   9   5 -14    3.69    0.32
   8   5 -14    4.42    0.37
   8   5 -14    4.78    0.42
   7   5 -14    0.07    0.10
   7   5 -14    0.06    0.15
   6   5 -14    5.11    0.40
   6   5 -14    4.85    0.46
   5   5 -14    0.53    0.11
   5   5 -14    0.40    0.19
   4   5 -14    1.00    0.28
   4   5 -14   -1.35    1.12
   4   5 -14    1.09    0.18
   3   5 -14   -0.04    0.51
   3   5 -14    0.33    0.10
   3   5 -14    0.23    0.20
   3   5 -14    0.62    0.94
   2   5 -14    8.66    1.76
   2   5 -14   11.07    1.09
   2   5 -14   10.17    0.84
   2   5 -14   10.73    0.77
   1   5 -14    0.24    0.11
   1   5 -14    1.22    0.96
   1   5 -14    0.49    0.53
   0   5 -14    0.83    0.56
   0   5 -14    1.01    0.14
  -1   5 -14    0.89    0.55
  -1   5 -14    0.44    0.12
  -2   5 -14   19.87    1.64
  -2   5 -14   19.00    1.42
  -2   5 -14   20.06    1.41
  -3   5 -14    0.21    0.10
  -3   5 -14    0.83    0.54
  -4   5 -14    0.12    0.55
  -4   5 -14    0.24    0.10
  -5   5 -14    0.56    0.11
  -5   5 -14    0.33    0.59
  -6   5 -14    0.72    0.11
  -6   5 -14    0.55    0.56
  -7   5 -14   -0.84    0.59
  -7   5 -14    0.11    0.09
  14   4 -14    0.06    0.10
  13   4 -14    0.04    0.12
  12   4 -14   -0.03    0.12
  11   4 -14    1.05    0.22
  10   4 -14    3.36    0.33
   9   4 -14    0.09    0.15
   9   4 -14    0.01    0.09
   8   4 -14    2.79    0.32
   8   4 -14    2.91    0.26
   7   4 -14    0.93    0.18
   7   4 -14    1.03    0.27
   6   4 -14    1.95    0.31
   6   4 -14    1.89    0.22
   5   4 -14    0.24    0.10
   5   4 -14    0.20    0.18
   4   4 -14   -0.11    0.18
   4   4 -14    0.05    0.09
   3   4 -14    3.93    0.46
   3   4 -14    3.99    0.83
   3   4 -14    4.50    0.35
   2   4 -14    6.36    0.87
   2   4 -14    5.10    0.40
   2   4 -14    5.52    1.53
   2   4 -14    4.39    0.50
   1   4 -14    7.53    1.56
   1   4 -14    6.80    0.54
   1   4 -14    7.92    1.00
   0   4 -14    4.91    0.93
   0   4 -14    4.40    0.38
  -1   4 -14    0.36    0.09
  -1   4 -14    0.20    0.56
  -1   4 -14    0.34    0.12
  -2   4 -14    3.60    0.33
  -2   4 -14    3.62    0.89
  -2   4 -14    3.47    0.30
  -3   4 -14    1.30    0.60
  -3   4 -14    1.59    0.19
  -4   4 -14    0.34    0.10
  -4   4 -14    0.42    0.59
  -5   4 -14    0.62    0.11
  -5   4 -14    0.27    0.59
  -6   4 -14   -0.89    0.60
  -6   4 -14    0.10    0.10
  -7   4 -14    0.55    0.10
  14   3 -14    0.79    0.17
  13   3 -14    0.54    0.13
  12   3 -14    1.90    0.25
  11   3 -14    0.95    0.12
  11   3 -14    0.88    0.22
  10   3 -14    0.05    0.05
  10   3 -14   -0.08    0.15
   9   3 -14    5.08    0.43
   9   3 -14    5.89    0.47
   8   3 -14    2.40    0.31
   8   3 -14    2.19    0.24
   7   3 -14    2.25    0.24
   7   3 -14    2.13    0.31
   6   3 -14    0.13    0.18
   6   3 -14   -0.02    0.09
   5   3 -14    0.04    0.10
   5   3 -14    0.04    0.17
   4   3 -14    0.96    0.22
   4   3 -14    0.84    0.13
   3   3 -14    1.85    0.21
   3   3 -14    1.65    0.33
   2   3 -14    5.92    0.48
   2   3 -14    6.67    0.95
   1   3 -14    2.39    0.26
   1   3 -14    3.53    0.61
   0   3 -14    0.17    0.09
   0   3 -14   -0.01    0.58
   0   3 -14    0.13    0.11
  -1   3 -14    1.27    0.18
  -1   3 -14    1.59    0.22
  -1   3 -14    1.85    0.62
  -2   3 -14    1.09    0.13
  -2   3 -14    1.15    0.62
  -2   3 -14    1.10    0.21
  -3   3 -14    1.85    0.66
  -3   3 -14    1.88    0.20
  -4   3 -14    2.61    0.24
  -4   3 -14    2.61    0.68
  -5   3 -14    5.74    1.04
  -5   3 -14    6.39    0.48
  -6   3 -14    2.02    0.20
  -7   3 -14    0.16    0.09
  14   2 -14    1.64    0.21
  13   2 -14    0.40    0.13
  12   2 -14    2.78    0.29
  12   2 -14    2.65    0.22
  11   2 -14    0.92    0.22
  11   2 -14    0.68    0.11
  10   2 -14    5.88    0.46
  10   2 -14    7.07    0.53
   9   2 -14    3.31    0.35
   9   2 -14    3.07    0.25
   9   2 -14    3.20    0.28
   8   2 -14    0.87    0.13
   8   2 -14    0.99    0.27
   7   2 -14    3.20    0.29
   7   2 -14    3.14    0.38
   6   2 -14    1.06    0.30
   6   2 -14    1.36    0.19
   5   2 -14    1.57    0.33
   5   2 -14    1.97    0.22
   4   2 -14    1.39    0.20
   4   2 -14    1.23    0.33
   3   2 -14    0.04    0.10
   3   2 -14    0.10    0.20
   2   2 -14    1.07    0.14
   2   2 -14    1.08    0.57
   1   2 -14    0.23    0.56
   1   2 -14    0.06    0.10
   0   2 -14    8.40    0.64
   0   2 -14    8.61    0.66
   0   2 -14   10.08    1.11
  -1   2 -14    3.96    0.32
  -1   2 -14    3.63    0.94
  -1   2 -14    2.98    0.29
  -2   2 -14    0.76    0.61
  -2   2 -14    0.82    0.14
  -2   2 -14    0.48    0.11
  -3   2 -14   -0.13    0.62
  -3   2 -14   -0.10    0.09
  -3   2 -14    0.12    0.11
  -4   2 -14    1.03    0.12
  -4   2 -14    0.74    0.63
  -5   2 -14    3.15    0.27
  -6   2 -14    0.67    0.10
  -7   2 -14    0.33    0.09
  13   1 -14    0.61    0.10
  13   1 -14    0.59    0.15
  12   1 -14    1.47    0.24
  12   1 -14    1.39    0.14
  11   1 -14    6.78    0.51
  11   1 -14    7.36    0.57
  10   1 -14    1.80    0.28
  10   1 -14    1.51    0.16
   9   1 -14    1.82    0.30
   9   1 -14    1.64    0.17
   8   1 -14    0.10    0.08
   8   1 -14    0.08    0.10
   8   1 -14    0.02    0.18
   7   1 -14    1.24    0.17
   7   1 -14    1.27    0.20
   7   1 -14    1.08    0.22
   6   1 -14    1.05    0.19
   6   1 -14    1.23    0.33
   5   1 -14    1.46    0.33
   5   1 -14    1.16    0.20
   4   1 -14    0.29    0.21
   4   1 -14    0.40    0.11
   3   1 -14    0.98    0.18
   2   1 -14    1.28    0.20
   1   1 -14   20.29    1.47
   0   1 -14    0.10    0.58
   0   1 -14    0.27    0.10
   0   1 -14    0.08    0.11
  -1   1 -14    0.04    0.09
  -1   1 -14    0.34    0.12
  -1   1 -14    0.33    0.58
  -2   1 -14    0.33    0.10
  -2   1 -14    0.59    0.59
  -2   1 -14    0.29    0.12
  -3   1 -14   11.03    0.85
  -3   1 -14   11.84    0.83
  -4   1 -14    2.98    0.26
  -5   1 -14    0.03    0.09
  -6   1 -14   -0.13    0.08
  14   0 -14    0.01    0.06
  13   0 -14    0.11    0.06
  12   0 -14    5.11    0.38
  11   0 -14    1.97    0.30
  11   0 -14    1.82    0.18
  10   0 -14    2.52    0.33
  10   0 -14    2.48    0.23
   9   0 -14    0.29    0.20
   9   0 -14    0.59    0.13
   8   0 -14    0.23    0.10
   8   0 -14    0.25    0.19
   8   0 -14    0.25    0.11
   7   0 -14    0.08    0.20
   7   0 -14    0.02    0.10
   6   0 -14    4.01    0.45
   6   0 -14    4.09    0.35
   5   0 -14    0.31    0.11
   5   0 -14    0.27    0.20
   4   0 -14   10.92    0.81
   3   0 -14    0.11    0.10
   2   0 -14    2.74    0.27
   1   0 -14    7.44    0.55
   1   0 -14    7.16    0.56
   0   0 -14    0.78    0.14
   0   0 -14    0.60    0.11
  -1   0 -14    1.19    0.13
  -1   0 -14    1.07    0.20
  -2   0 -14   20.63    1.52
  -2   0 -14   21.54    1.51
  -3   0 -14    2.77    0.24
  -3   0 -14    2.80    0.28
  -4   0 -14    6.32    0.47
  -5   0 -14    0.07    0.08
  -6   0 -14    0.14    0.08
  14  -1 -14    0.08    0.06
  13  -1 -14    0.03    0.07
  12  -1 -14    0.05    0.07
  11  -1 -14    5.10    0.40
  10  -1 -14    0.70    0.15
   9  -1 -14    0.12    0.11
   8  -1 -14    1.06    0.19
   8  -1 -14    0.93    0.25
   8  -1 -14    0.91    0.20
   7  -1 -14    5.03    0.39
   7  -1 -14    4.03    0.49
   6  -1 -14    0.19    0.11
   6  -1 -14    0.16    0.21
   5  -1 -14    9.01    0.68
   4  -1 -14    0.34    0.11
   3  -1 -14    0.00    0.10
   2  -1 -14    0.12    0.11
   1  -1 -14    6.42    0.50
   1  -1 -14    6.93    0.52
   0  -1 -14    0.89    0.14
   0  -1 -14    0.76    0.12
  -1  -1 -14   -0.03    0.09
  -1  -1 -14    0.12    0.12
  -2  -1 -14    8.15    0.58
  -2  -1 -14    7.57    0.60
  -3  -1 -14    1.70    0.23
  -3  -1 -14    1.97    0.19
  -4  -1 -14    1.61    0.18
  -5  -1 -14    0.16    0.08
  14  -2 -14    0.09    0.06
  13  -2 -14    0.19    0.07
  12  -2 -14    0.34    0.09
  11  -2 -14    1.51    0.19
  10  -2 -14    2.18    0.23
   9  -2 -14    0.23    0.11
   8  -2 -14   -0.01    0.14
   8  -2 -14    0.06    0.11
   7  -2 -14   -0.02    0.11
   6  -2 -14    7.20    0.55
   5  -2 -14    0.26    0.10
   4  -2 -14    0.07    0.10
   3  -2 -14    0.08    0.10
   2  -2 -14    1.69    0.23
   1  -2 -14    6.08    0.49
   0  -2 -14    0.16    0.10
   0  -2 -14    0.00    0.12
  -1  -2 -14    2.89    0.25
  -1  -2 -14    2.66    0.29
  -2  -2 -14    0.00    0.11
  -2  -2 -14    0.11    0.09
  -3  -2 -14    0.07    0.10
  -3  -2 -14   -0.10    0.09
  -4  -2 -14    1.25    0.16
  14  -3 -14    0.32    0.07
  13  -3 -14    0.07    0.08
  12  -3 -14    0.16    0.10
  11  -3 -14    0.20    0.10
  10  -3 -14    0.17    0.12
   9  -3 -14    4.85    0.40
   8  -3 -14    3.29    0.32
   7  -3 -14    2.13    0.24
   6  -3 -14    0.09    0.10
   5  -3 -14    0.66    0.12
   4  -3 -14    3.28    0.30
   3  -3 -14    0.17    0.11
   2  -3 -14    1.68    0.22
   1  -3 -14    3.91    0.35
   0  -3 -14    0.80    0.14
   0  -3 -14    0.56    0.11
  -1  -3 -14    4.36    0.39
  -1  -3 -14    5.03    0.37
  -2  -3 -14    0.35    0.10
  -2  -3 -14    0.47    0.12
  -3  -3 -14    0.91    0.17
  -3  -3 -14    1.26    0.15
  -4  -3 -14    2.78    0.24
  14  -4 -14    0.14    0.07
  13  -4 -14    0.99    0.15
  12  -4 -14    0.67    0.16
  11  -4 -14    0.40    0.11
  10  -4 -14    0.81    0.19
   9  -4 -14    1.73    0.24
   8  -4 -14    0.06    0.16
   7  -4 -14    2.48    0.25
   6  -4 -14    1.38    0.19
   5  -4 -14    3.19    0.29
   4  -4 -14    0.08    0.10
   3  -4 -14    1.37    0.20
   2  -4 -14    1.54    0.21
   1  -4 -14    0.48    0.12
   0  -4 -14    1.50    0.22
  -1  -4 -14    0.88    0.14
  -1  -4 -14    0.80    0.11
  -2  -4 -14    2.58    0.25
  -2  -4 -14    2.38    0.23
  -3  -4 -14    0.07    0.09
  -3  -4 -14    0.02    0.09
  13  -5 -14    2.68    0.24
  12  -5 -14    0.21    0.10
  11  -5 -14    0.06    0.10
  10  -5 -14    2.62    0.27
   9  -5 -14    0.03    0.14
   8  -5 -14    2.79    0.31
   7  -5 -14    0.51    0.12
   6  -5 -14   -0.04    0.09
   5  -5 -14    0.33    0.10
   4  -5 -14    1.64    0.21
   3  -5 -14    1.11    0.19
   2  -5 -14    0.06    0.11
   1  -5 -14    0.92    0.14
   0  -5 -14    0.16    0.11
  -1  -5 -14    0.26    0.11
  -2  -5 -14    0.19    0.10
  13  -6 -14    2.00    0.20
  12  -6 -14    0.47    0.11
  11  -6 -14    3.11    0.29
  10  -6 -14    0.23    0.13
   9  -6 -14    1.14    0.23
   8  -6 -14    0.34    0.17
   7  -6 -14    1.24    0.28
   7  -6 -14    0.54    0.12
   6  -6 -14    0.08    0.09
   5  -6 -14    1.94    0.21
   4  -6 -14    0.13    0.10
   3  -6 -14    0.17    0.10
   2  -6 -14    0.21    0.11
   1  -6 -14   -0.14    0.10
   0  -6 -14    0.03    0.10
  -1  -6 -14    0.41    0.10
  12  -7 -14   -0.08    0.09
  11  -7 -14   -0.02    0.11
  10  -7 -14    0.10    0.12
   9  -7 -14    3.55    0.34
   8  -7 -14    0.07    0.17
   7  -7 -14    0.66    0.21
   6  -7 -14   -0.05    0.09
   5  -7 -14    0.27    0.09
   4  -7 -14   -0.01    0.09
   3  -7 -14    0.08    0.10
   2  -7 -14    0.26    0.10
   1  -7 -14    0.07    0.09
   0  -7 -14    0.64    0.11
  11  -8 -14    0.20    0.10
  10  -8 -14    0.92    0.20
   9  -8 -14   -0.10    0.13
   8  -8 -14    0.21    0.16
   7  -8 -14    0.28    0.18
   6  -8 -14    0.13    0.20
   6  -8 -14   -0.10    0.08
   5  -8 -14    0.05    0.08
   4  -8 -14    0.03    0.08
   3  -8 -14    0.18    0.09
   2  -8 -14    0.14    0.09
  10  -9 -14    0.06    0.12
   9  -9 -14   -0.05    0.13
   8  -9 -14    0.59    0.17
   7  -9 -14   -0.09    0.17
   6  -9 -14    0.09    0.18
   6  -9 -14   -0.08    0.11
   5  -9 -14    0.02    0.18
   5  -9 -14    0.25    0.08
   4  -9 -14   -0.03    0.07
   2  17 -15   -0.01    0.12
   1  17 -15    0.07    0.12
   0  17 -15    0.39    0.14
  -1  17 -15    0.52    0.14
  -2  17 -15    0.06    0.13
  -3  17 -15    0.13    0.13
   4  16 -15   -0.06    0.12
   3  16 -15    0.30    0.13
   2  16 -15    0.06    0.13
   1  16 -15    0.22    0.13
   0  16 -15   -0.09    0.14
  -1  16 -15    0.94    0.26
  -2  16 -15    0.01    0.14
  -3  16 -15    0.12    0.15
   6  15 -15    0.16    0.11
   5  15 -15    0.29    0.13
   4  15 -15    0.83    0.22
   3  15 -15    0.11    0.13
   2  15 -15    1.56    0.26
   1  15 -15    0.58    0.15
   0  15 -15    0.50    0.16
  -1  15 -15   -0.25    0.14
  -2  15 -15   -0.08    0.16
  -3  15 -15    0.12    0.16
  -4  15 -15   -0.34    0.42
  -5  15 -15    0.45    0.45
   7  14 -15    0.45    0.12
   6  14 -15    0.07    0.12
   5  14 -15   -0.02    0.12
   4  14 -15    0.05    0.13
   3  14 -15    0.15    0.13
   2  14 -15    0.48    0.15
   1  14 -15    0.10    0.14
   0  14 -15    0.28    0.16
  -1  14 -15    0.07    0.16
  -2  14 -15    0.24    0.17
  -3  14 -15    0.21    0.18
  -3  14 -15   -0.56    0.47
  -4  14 -15    0.59    0.48
  -5  14 -15   -0.29    0.46
  -6  14 -15    0.13    0.44
   8  13 -15    0.03    0.13
   8  13 -15    0.15    0.12
   7  13 -15    0.06    0.12
   7  13 -15   -0.11    0.19
   6  13 -15    0.05    0.12
   5  13 -15    0.38    0.14
   4  13 -15    0.15    0.13
   3  13 -15    0.95    0.24
   2  13 -15    0.52    0.15
   1  13 -15    0.12    0.15
   0  13 -15    0.77    0.18
  -1  13 -15    1.76    0.33
  -2  13 -15    0.41    0.47
  -2  13 -15    1.42    0.32
  -3  13 -15   -0.23    0.49
  -3  13 -15    0.16    0.20
  -4  13 -15    0.18    0.47
  -5  13 -15    0.48    0.49
  -6  13 -15    0.19    0.45
   9  12 -15    0.11    0.13
   9  12 -15    0.06    0.12
   8  12 -15    1.11    0.23
   8  12 -15    1.36    0.23
   7  12 -15    0.02    0.15
   7  12 -15    0.04    0.13
   6  12 -15    0.07    0.13
   6  12 -15   -0.10    0.16
   5  12 -15    5.95    0.48
   5  12 -15    5.53    0.49
   4  12 -15    2.99    0.35
   4  12 -15    3.11    0.32
   3  12 -15    0.19    0.14
   2  12 -15    1.32    0.27
   1  12 -15    7.21    0.60
   0  12 -15    3.15    0.39
  -1  12 -15    0.22    0.19
  -1  12 -15   -0.12    0.46
  -2  12 -15    0.11    0.50
  -2  12 -15    0.07    0.19
  -3  12 -15   -0.01    0.20
  -3  12 -15    0.51    0.51
  -4  12 -15    2.09    0.54
  -5  12 -15    0.83    0.51
  -6  12 -15    0.59    0.47
  -7  12 -15    1.00    0.47
  10  11 -15    0.34    0.12
  10  11 -15    0.22    0.12
   9  11 -15    0.60    0.15
   9  11 -15    0.69    0.14
   8  11 -15    1.88    0.26
   8  11 -15    1.65    0.27
   7  11 -15    0.67    0.15
   7  11 -15    0.51    0.17
   6  11 -15    1.68    0.26
   6  11 -15    1.45    0.28
   5  11 -15    0.06    0.17
   5  11 -15    0.21    0.13
   4  11 -15   -0.13    0.12
   4  11 -15    0.12    0.16
   3  11 -15    5.70    0.52
   3  11 -15    5.92    0.49
   2  11 -15    0.08    0.15
   2  11 -15    0.01    0.10
   2  11 -15   -0.03    0.18
   1  11 -15    0.33    0.10
   1  11 -15    0.30    0.16
   0  11 -15    4.69    0.38
   0  11 -15    5.25    0.55
   0  11 -15    4.74    0.84
  -1  11 -15   -0.04    0.48
  -2  11 -15   -0.19    0.51
  -3  11 -15    0.71    0.53
  -4  11 -15    5.76    0.88
  -5  11 -15    2.11    0.56
  -6  11 -15    3.05    0.79
  -7  11 -15    3.73    0.78
  11  10 -15    1.04    0.19
  10  10 -15    0.12    0.13
   9  10 -15    1.02    0.23
   8  10 -15    0.15    0.15
   7  10 -15   -0.12    0.13
   7  10 -15   -0.08    0.16
   6  10 -15    2.06    0.29
   6  10 -15    1.28    0.26
   5  10 -15    0.38    0.14
   5  10 -15    0.39    0.18
   4  10 -15    1.39    0.27
   4  10 -15    1.20    0.29
   4  10 -15    1.62    0.19
   3  10 -15   19.01    1.47
   3  10 -15   20.65    1.43
   2  10 -15   -0.01    0.19
   2  10 -15    0.02    0.10
   1  10 -15   -0.07    0.19
   1  10 -15   -0.07    0.51
   1  10 -15   -0.15    0.09
   0  10 -15    0.02    0.10
   0  10 -15    0.00    0.50
  -1  10 -15    1.02    0.53
  -2  10 -15    0.85    0.54
  -3  10 -15   12.58    1.23
  -4  10 -15    7.18    0.96
  -5  10 -15    1.00    0.55
  -6  10 -15    1.37    0.54
  -7  10 -15    0.63    0.47
  11   9 -15   -0.01    0.12
  10   9 -15    0.05    0.14
   9   9 -15    0.03    0.12
   9   9 -15    0.61    0.16
   8   9 -15    0.21    0.15
   7   9 -15    1.03    0.18
   7   9 -15    1.39    0.26
   6   9 -15    5.43    0.49
   5   9 -15    4.20    0.43
   5   9 -15    4.27    0.35
   4   9 -15    0.60    0.19
   4   9 -15    0.62    0.12
   3   9 -15    0.94    0.17
   3   9 -15    1.00    0.23
   2   9 -15   -0.45    0.50
   2   9 -15    0.11    0.20
   2   9 -15    0.00    0.10
   1   9 -15    0.36    0.53
   1   9 -15    0.35    0.11
   1   9 -15    0.28    0.21
   0   9 -15    0.66    0.12
   0   9 -15    0.73    0.53
  -1   9 -15    1.46    0.52
  -1   9 -15    1.04    0.18
  -2   9 -15    0.58    0.55
  -3   9 -15    1.20    0.57
  -4   9 -15    6.73    0.99
  -5   9 -15    0.57    0.56
  -6   9 -15    1.27    0.56
  -7   9 -15    0.58    0.44
  12   8 -15   -0.01    0.11
  11   8 -15   -0.06    0.10
  11   8 -15    0.44    0.13
  10   8 -15    3.97    0.34
  10   8 -15    2.87    0.39
   9   8 -15    5.31    0.52
   9   8 -15    5.12    0.45
   8   8 -15    1.16    0.26
   7   8 -15    0.26    0.17
   6   8 -15   13.99    1.03
   6   8 -15   13.41    1.00
   5   8 -15    0.28    0.19
   5   8 -15    0.12    0.10
   4   8 -15    4.26    0.44
   4   8 -15    4.42    0.36
   3   8 -15    0.65    0.12
   3   8 -15    0.23    0.51
   3   8 -15    0.46    0.22
   2   8 -15    0.10    0.51
   2   8 -15    0.02    0.10
   2   8 -15    0.07    0.21
   1   8 -15    0.37    0.55
   1   8 -15    0.62    0.13
   0   8 -15    1.05    0.56
  -1   8 -15    0.74    0.50
  -1   8 -15    0.62    0.13
  -2   8 -15   -0.02    0.53
  -3   8 -15    0.61    0.57
  -4   8 -15    1.78    0.60
  -5   8 -15    0.53    0.55
  -6   8 -15    0.14    0.47
  -7   8 -15    0.66    0.49
  12   7 -15    0.06    0.12
  11   7 -15    7.31    0.56
  11   7 -15    6.97    0.59
  10   7 -15    0.19    0.14
  10   7 -15    0.01    0.10
   9   7 -15    0.28    0.16
   8   7 -15    0.09    0.16
   7   7 -15    2.38    0.31
   7   7 -15    2.30    0.23
   6   7 -15    5.68    0.49
   6   7 -15    5.25    0.43
   5   7 -15    4.37    0.44
   5   7 -15    4.14    0.35
   4   7 -15    0.53    0.12
   4   7 -15    0.35    0.20
   3   7 -15   -0.04    0.51
   3   7 -15    0.24    0.11
   3   7 -15    0.33    0.22
   2   7 -15   -0.05    0.50
   2   7 -15   -0.05    0.11
   2   7 -15    0.05    0.21
   1   7 -15    0.37    0.12
   1   7 -15    0.03    0.55
   0   7 -15    0.10    0.11
   0   7 -15    0.28    0.55
  -1   7 -15    0.81    0.54
  -1   7 -15    0.83    0.14
  -2   7 -15    0.00    0.50
  -3   7 -15    0.78    0.53
  -4   7 -15    1.62    0.55
  -5   7 -15    0.26    0.52
  -6   7 -15    0.18    0.53
  -7   7 -15    0.35    0.48
  13   6 -15    0.04    0.10
  12   6 -15    0.21    0.09
  12   6 -15    0.49    0.13
  11   6 -15    3.59    0.34
  11   6 -15    3.76    0.39
  10   6 -15    0.90    0.31
  10   6 -15    0.67    0.16
   9   6 -15    5.65    0.48
   8   6 -15   14.38    1.07
   8   6 -15   15.08    1.10
   7   6 -15    2.48    0.32
   7   6 -15    2.21    0.24
   6   6 -15    2.70    0.26
   6   6 -15    2.64    0.35
   5   6 -15    0.40    0.11
   5   6 -15    0.28    0.18
   4   6 -15    1.35    0.20
   4   6 -15    1.20    0.33
   3   6 -15    0.66    0.12
   3   6 -15    0.75    0.53
   3   6 -15    0.56    0.23
   2   6 -15    0.11    0.53
   2   6 -15    0.06    0.23
   2   6 -15    0.10    0.11
   1   6 -15    5.92    0.94
   1   6 -15    5.16    0.43
   0   6 -15    0.82    0.14
   0   6 -15    0.99    0.57
  -1   6 -15    0.00    0.55
  -1   6 -15    0.00    0.11
  -2   6 -15    1.08    0.57
  -3   6 -15    0.93    0.57
  -4   6 -15    1.45    0.59
  -5   6 -15    0.59    0.55
  -6   6 -15    0.19    0.52
  -7   6 -15    0.16    0.52
  13   5 -15    1.78    0.21
  12   5 -15    1.18    0.21
  12   5 -15    1.40    0.28
  11   5 -15    1.21    0.30
  10   5 -15    3.27    0.33
   9   5 -15    0.10    0.15
   9   5 -15    0.25    0.10
   8   5 -15    3.76    0.33
   8   5 -15    4.20    0.39
   7   5 -15    2.06    0.22
   7   5 -15    2.00    0.31
   6   5 -15    0.67    0.12
   6   5 -15    0.55    0.20
   5   5 -15   13.96    1.09
   5   5 -15   14.69    1.05
   4   5 -15    0.21    0.11
   4   5 -15    0.05    0.21
   3   5 -15    0.41    0.53
   3   5 -15    0.31    0.22
   3   5 -15    0.29    0.11
   2   5 -15    0.30    0.23
   2   5 -15    0.13    0.11
   2   5 -15    0.06    0.55
   1   5 -15    1.91    0.57
   1   5 -15    1.14    0.21
   0   5 -15   13.12    1.26
   0   5 -15   11.70    0.89
  -1   5 -15    0.55    0.57
  -1   5 -15   -0.01    0.12
  -2   5 -15    0.85    0.58
  -2   5 -15    0.34    0.13
  -3   5 -15   -0.02    0.09
  -3   5 -15    0.49    0.57
  -4   5 -15    1.42    0.19
  -4   5 -15    1.77    0.60
  -5   5 -15   -0.08    0.09
  -5   5 -15    0.02    0.60
  -6   5 -15    0.61    0.10
  -6   5 -15    0.67    0.53
  13   4 -15    0.10    0.11
  11   4 -15    0.42    0.14
  10   4 -15    0.57    0.16
   9   4 -15   -0.09    0.15
   9   4 -15   -0.08    0.09
   8   4 -15    0.53    0.18
   8   4 -15    0.54    0.11
   7   4 -15    1.50    0.31
   7   4 -15    1.76    0.21
   6   4 -15   16.51    1.27
   6   4 -15   17.50    1.23
   5   4 -15    7.20    0.63
   5   4 -15    7.19    0.55
   4   4 -15    0.94    0.14
   4   4 -15    0.84    0.24
   3   4 -15    2.31    0.39
   3   4 -15    2.45    0.26
   2   4 -15    1.54    0.22
   2   4 -15    1.62    0.59
   1   4 -15   13.96    1.04
   1   4 -15   14.70    1.39
   0   4 -15    7.99    1.01
   0   4 -15    6.95    0.56
  -1   4 -15    1.26    0.61
  -1   4 -15    1.39    0.22
  -2   4 -15    0.00    0.09
  -2   4 -15    0.05    0.12
  -2   4 -15    0.55    0.59
  -3   4 -15    1.18    0.61
  -3   4 -15    0.53    0.11
  -4   4 -15    0.16    0.61
  -4   4 -15    0.01    0.10
  -5   4 -15    0.77    0.60
  -5   4 -15    0.48    0.10
  -6   4 -15    1.26    0.17
  14   3 -15   -0.02    0.10
  13   3 -15    0.15    0.12
  12   3 -15    1.13    0.22
  11   3 -15    2.13    0.27
  10   3 -15    0.78    0.18
   9   3 -15    3.17    0.36
   9   3 -15    3.63    0.30
   8   3 -15    0.72    0.13
   8   3 -15    0.75    0.20
   7   3 -15    1.09    0.31
   7   3 -15    1.11    0.19
   6   3 -15    8.60    0.65
   6   3 -15    8.51    0.71
   5   3 -15    5.32    0.53
   5   3 -15    5.65    0.44
   4   3 -15    0.98    0.19
   4   3 -15    0.73    0.22
   3   3 -15    6.48    0.64
   3   3 -15    7.88    0.56
   2   3 -15    0.10    0.58
   2   3 -15    0.06    0.11
   1   3 -15    9.38    0.73
   1   3 -15   10.87    1.16
   0   3 -15    1.41    0.61
   0   3 -15    1.25    0.22
  -1   3 -15    1.62    0.62
  -1   3 -15    1.22    0.19
  -1   3 -15    1.83    0.23
  -2   3 -15   13.27    1.34
  -2   3 -15   11.98    0.90
  -2   3 -15   12.69    0.92
  -3   3 -15    0.30    0.61
  -3   3 -15    0.35    0.10
  -4   3 -15    0.87    0.60
  -4   3 -15    1.06    0.16
  -5   3 -15    2.93    0.26
  -6   3 -15   -0.09    0.08
  14   2 -15    0.89    0.18
  13   2 -15    0.43    0.13
  12   2 -15    0.00    0.13
  12   2 -15   -0.06    0.06
  11   2 -15    0.30    0.06
  11   2 -15    0.23    0.15
  10   2 -15    0.54    0.17
   9   2 -15    1.26    0.19
   9   2 -15    1.81    0.30
   8   2 -15    0.37    0.19
   8   2 -15    0.54    0.12
   7   2 -15    0.29    0.11
   7   2 -15    0.34    0.19
   6   2 -15    0.52    0.12
   6   2 -15    0.31    0.22
   5   2 -15    8.22    0.71
   5   2 -15    8.49    0.63
   4   2 -15    2.32    0.40
   4   2 -15    3.06    0.28
   3   2 -15    3.28    0.30
   2   2 -15    1.09    0.20
   1   2 -15    0.88    0.14
   0   2 -15   13.94    1.43
   0   2 -15   15.20    1.09
  -1   2 -15    0.15    0.12
  -1   2 -15   -0.58    0.58
  -1   2 -15    0.00    0.09
  -2   2 -15    6.75    1.08
  -2   2 -15    7.47    0.56
  -2   2 -15    7.06    0.54
  -3   2 -15   -0.05    0.09
  -3   2 -15    0.07    0.13
  -3   2 -15    0.45    0.59
  -4   2 -15    0.31    0.10
  -5   2 -15   -0.07    0.08
  -6   2 -15    0.00    0.08
  13   1 -15    0.07    0.06
  12   1 -15    0.23    0.06
  12   1 -15    0.20    0.15
  11   1 -15    0.07    0.06
  11   1 -15    0.17    0.16
  10   1 -15    0.43    0.10
  10   1 -15    0.41    0.19
   9   1 -15    0.75    0.20
   9   1 -15    0.74    0.12
   9   1 -15    0.66    0.12
   8   1 -15    3.77    0.43
   8   1 -15    3.75    0.33
   8   1 -15    3.79    0.30
   7   1 -15    0.07    0.10
   7   1 -15    0.04    0.11
   7   1 -15   -0.05    0.20
   6   1 -15    1.06    0.15
   6   1 -15    1.01    0.25
   5   1 -15   11.15    0.95
   5   1 -15   12.97    0.89
   4   1 -15    0.72    0.13
   3   1 -15    0.11    0.11
   2   1 -15    0.19    0.11
   1   1 -15    4.81    0.40
   0   1 -15   17.05    1.24
  -1   1 -15    5.58    0.45
  -1   1 -15    6.09    0.47
  -2   1 -15    0.87    0.12
  -2   1 -15    1.14    0.20
  -3   1 -15    6.77    0.50
  -3   1 -15    6.68    0.52
  -4   1 -15    0.69    0.11
  -5   1 -15    0.04    0.08
  14   0 -15    1.02    0.11
  13   0 -15    0.43    0.09
  12   0 -15    0.69    0.10
  11   0 -15    0.01    0.07
  10   0 -15    2.35    0.34
  10   0 -15    2.26    0.21
   9   0 -15    0.57    0.21
   9   0 -15    0.64    0.13
   8   0 -15    5.32    0.42
   8   0 -15    5.29    0.40
   8   0 -15    4.91    0.51
   7   0 -15    7.42    0.69
   7   0 -15    8.55    0.61
   6   0 -15    5.08    0.40
   6   0 -15    4.37    0.50
   5   0 -15    0.12    0.11
   4   0 -15   17.98    1.30
   3   0 -15    0.04    0.11
   2   0 -15    8.66    0.65
   1   0 -15   -0.10    0.11
   0   0 -15    0.54    0.13
  -1   0 -15    0.89    0.14
  -1   0 -15    0.60    0.12
  -2   0 -15    0.23    0.12
  -2   0 -15    0.38    0.10
  -3   0 -15    0.01    0.09
  -3   0 -15    0.15    0.10
  -4   0 -15    1.85    0.19
  -5   0 -15    0.48    0.09
  14  -1 -15    2.26    0.18
  13  -1 -15    2.09    0.17
  12  -1 -15    0.05    0.06
  11  -1 -15    0.48    0.09
  10  -1 -15    2.18    0.21
   9  -1 -15    0.25    0.10
   8  -1 -15    0.19    0.13
   8  -1 -15    0.22    0.11
   7  -1 -15    1.62    0.21
   7  -1 -15    1.30    0.35
   6  -1 -15    0.42    0.12
   5  -1 -15    0.82    0.13
   4  -1 -15    4.50    0.38
   3  -1 -15    5.62    0.45
   2  -1 -15    0.10    0.11
   1  -1 -15    0.05    0.11
   0  -1 -15    0.41    0.12
  -1  -1 -15   20.60    1.53
  -1  -1 -15   21.85    1.52
  -2  -1 -15    0.14    0.09
  -2  -1 -15    0.35    0.11
  -3  -1 -15    1.25    0.18
  -3  -1 -15    1.13    0.16
  -4  -1 -15    0.03    0.08
  14  -2 -15    0.88    0.10
  13  -2 -15    0.88    0.12
  12  -2 -15    0.14    0.08
  11  -2 -15    0.51    0.10
  10  -2 -15    0.20    0.10
   9  -2 -15    0.28    0.11
   8  -2 -15    0.16    0.11
   8  -2 -15    0.22    0.14
   7  -2 -15    0.03    0.11
   6  -2 -15    1.04    0.20
   5  -2 -15    0.40    0.11
   4  -2 -15    2.83    0.27
   3  -2 -15    0.10    0.11
   2  -2 -15    0.36    0.11
   1  -2 -15    2.59    0.26
   0  -2 -15    3.23    0.30
  -1  -2 -15    7.19    0.57
  -1  -2 -15    7.74    0.55
  -2  -2 -15    0.84    0.12
  -2  -2 -15    0.63    0.10
  -3  -2 -15    0.12    0.09
  -3  -2 -15    0.09    0.08
  13  -3 -15    0.08    0.07
  12  -3 -15    0.08    0.09
  11  -3 -15    0.29    0.10
  10  -3 -15    3.30    0.29
   9  -3 -15    0.00    0.11
   8  -3 -15    0.02    0.11
   8  -3 -15    0.15    0.15
   7  -3 -15    0.04    0.11
   6  -3 -15    0.27    0.11
   5  -3 -15    0.98    0.18
   4  -3 -15    3.95    0.34
   3  -3 -15    0.01    0.10
   2  -3 -15    0.28    0.11
   1  -3 -15    0.16    0.10
   0  -3 -15    0.86    0.13
  -1  -3 -15    2.93    0.27
  -2  -3 -15    1.48    0.19
  -3  -3 -15    1.21    0.17
  13  -4 -15    1.16    0.14
  12  -4 -15    0.17    0.09
  11  -4 -15   -0.07    0.09
  10  -4 -15    0.52    0.13
   9  -4 -15    0.45    0.14
   8  -4 -15    0.06    0.16
   7  -4 -15   -0.10    0.11
   6  -4 -15    2.17    0.23
   5  -4 -15    0.21    0.10
   4  -4 -15    0.88    0.13
   3  -4 -15    0.22    0.10
   2  -4 -15    0.78    0.12
   1  -4 -15    0.36    0.11
   0  -4 -15    2.53    0.25
  -1  -4 -15    3.77    0.32
  -2  -4 -15    0.11    0.09
  13  -5 -15    1.33    0.15
  12  -5 -15    0.47    0.10
  11  -5 -15    0.08    0.09
  10  -5 -15    0.18    0.12
   9  -5 -15    0.61    0.15
   8  -5 -15    0.16    0.16
   7  -5 -15    1.45    0.28
   6  -5 -15    3.01    0.27
   5  -5 -15    0.19    0.10
   4  -5 -15    0.28    0.10
   3  -5 -15    1.31    0.18
   2  -5 -15    0.15    0.09
   1  -5 -15    0.46    0.10
   0  -5 -15    0.38    0.10
  -1  -5 -15   -0.02    0.08
  12  -6 -15    0.19    0.09
  11  -6 -15    0.02    0.09
  10  -6 -15    0.87    0.19
   9  -6 -15    0.40    0.14
   8  -6 -15    1.06    0.24
   7  -6 -15    0.55    0.20
   7  -6 -15    0.22    0.10
   6  -6 -15    2.04    0.22
   5  -6 -15    0.81    0.15
   4  -6 -15    0.11    0.09
   3  -6 -15    1.09    0.16
   2  -6 -15    0.09    0.08
   1  -6 -15    0.00    0.08
  11  -7 -15    0.01    0.09
  10  -7 -15    0.80    0.19
   9  -7 -15    0.13    0.13
   8  -7 -15    1.00    0.23
   7  -7 -15    0.05    0.17
   6  -7 -15    1.89    0.29
   6  -7 -15    1.26    0.18
   5  -7 -15    0.93    0.15
   4  -7 -15   -0.02    0.08
   3  -7 -15    0.44    0.09
   2  -7 -15    0.04    0.08
   9  -8 -15    0.14    0.12
   8  -8 -15    0.05    0.15
   7  -8 -15    1.18    0.25
   6  -8 -15    0.98    0.15
   6  -8 -15    1.11    0.26
   5  -8 -15   -0.07    0.07
   5  -8 -15   -0.11    0.18
   3  16 -16   -0.06    0.12
   2  16 -16    0.33    0.13
   1  16 -16    0.00    0.13
   0  16 -16    0.59    0.15
  -1  16 -16    0.08    0.13
  -2  16 -16    0.00    0.13
  -3  16 -16   -0.01    0.13
   5  15 -16    0.11    0.11
   4  15 -16    0.07    0.12
   3  15 -16   -0.07    0.12
   2  15 -16    0.17    0.13
   1  15 -16    0.16    0.14
   0  15 -16   -0.02    0.14
  -1  15 -16    0.05    0.14
  -2  15 -16    0.25    0.15
  -3  15 -16    0.12    0.15
  -4  15 -16    0.35    0.41
   7  14 -16    0.05    0.10
   6  14 -16    0.21    0.12
   5  14 -16    0.36    0.12
   4  14 -16    0.06    0.12
   3  14 -16   -0.02    0.13
   2  14 -16    0.43    0.14
   1  14 -16    0.11    0.15
   0  14 -16    0.03    0.15
  -1  14 -16    0.05    0.16
  -2  14 -16   -0.58    0.47
  -2  14 -16    0.17    0.16
  -3  14 -16   -0.22    0.41
  -3  14 -16    0.39    0.17
  -4  14 -16    0.26    0.41
  -5  14 -16    0.18    0.37
   8  13 -16    0.10    0.10
   8  13 -16    0.09    0.12
   7  13 -16    0.13    0.11
   7  13 -16    0.00    0.14
   6  13 -16    2.03    0.25
   5  13 -16    0.29    0.13
   4  13 -16    1.19    0.23
   3  13 -16    0.39    0.14
   2  13 -16    0.30    0.15
   1  13 -16    0.17    0.15
   0  13 -16    0.27    0.16
  -1  13 -16   -0.32    0.45
  -1  13 -16    0.15    0.17
  -2  13 -16   -0.22    0.43
  -2  13 -16    0.17    0.18
  -3  13 -16    0.23    0.41
  -4  13 -16   -0.21    0.42
  -5  13 -16    0.72    0.41
   9  12 -16    1.49    0.21
   9  12 -16    1.44    0.24
   8  12 -16    0.35    0.15
   8  12 -16    0.27    0.12
   7  12 -16    0.42    0.17
   7  12 -16    0.58    0.13
   6  12 -16    2.40    0.28
   6  12 -16    2.42    0.30
   5  12 -16    0.33    0.18
   5  12 -16    0.85    0.21
   4  12 -16    3.65    0.35
   4  12 -16    3.88    0.39
   3  12 -16    3.38    0.40
   3  12 -16    4.80    0.39
   2  12 -16    0.36    0.15
   1  12 -16    0.15    0.17
   0  12 -16    0.59    0.48
  -1  12 -16   -0.56    0.48
  -2  12 -16    0.04    0.44
  -3  12 -16    0.01    0.43
  -4  12 -16    1.11    0.48
  -5  12 -16    0.15    0.42
  -6  12 -16   -0.01    0.38
  10  11 -16    0.09    0.10
  10  11 -16    0.18    0.12
   9  11 -16    0.01    0.13
   9  11 -16   -0.11    0.11
   8  11 -16    0.31    0.15
   8  11 -16    0.29    0.12
   7  11 -16    0.31    0.12
   7  11 -16    0.30    0.17
   6  11 -16    0.93    0.21
   6  11 -16    0.65    0.18
   5  11 -16    2.45    0.28
   5  11 -16    2.34    0.32
   4  11 -16    0.17    0.18
   4  11 -16    0.13    0.18
   3  11 -16    0.09    0.18
   2  11 -16    1.41    0.30
   2  11 -16    2.36    0.21
   1  11 -16    0.45    0.11
   1  11 -16    0.57    0.48
   0  11 -16    1.15    0.17
   0  11 -16    0.75    0.50
  -1  11 -16   -0.36    0.50
  -2  11 -16    0.22    0.47
  -3  11 -16    0.40    0.46
  -4  11 -16    0.73    0.46
  -5  11 -16    1.60    0.47
  -6  11 -16    0.62    0.43
  10  10 -16    0.30    0.13
  10  10 -16    0.16    0.11
   9  10 -16   -0.13    0.11
   9  10 -16    0.06    0.14
   8  10 -16   -0.18    0.13
   8  10 -16   -0.03    0.15
   7  10 -16    0.13    0.17
   6  10 -16    0.20    0.18
   5  10 -16    1.45    0.30
   4  10 -16    0.02    0.19
   4  10 -16    0.13    0.10
   3  10 -16    1.16    0.18
   3  10 -16    1.15    0.23
   2  10 -16    1.79    0.33
   2  10 -16    2.34    0.22
   2  10 -16    1.45    0.55
   1  10 -16   -0.26    0.50
   1  10 -16    0.30    0.10
   0  10 -16    0.92    0.13
   0  10 -16    0.89    0.53
  -1  10 -16    0.20    0.53
  -2  10 -16    0.75    0.48
  -3  10 -16    1.01    0.47
  -4  10 -16    2.74    0.72
  -5  10 -16    1.27    0.46
  -6  10 -16    0.42    0.45
  11   9 -16    0.67    0.19
  10   9 -16    0.15    0.13
   9   9 -16    0.36    0.15
   8   9 -16    1.83    0.28
   7   9 -16    5.95    0.52
   6   9 -16    8.00    0.66
   6   9 -16    8.17    0.61
   5   9 -16    1.84    0.21
   5   9 -16    1.86    0.32
   4   9 -16    0.13    0.20
   4   9 -16    0.38    0.10
   3   9 -16    1.26    0.19
   3   9 -16    1.22    0.34
   2   9 -16    4.63    0.35
   2   9 -16    3.59    0.45
   1   9 -16    1.61    0.21
   1   9 -16    1.85    0.55
   0   9 -16    1.44    0.20
   0   9 -16    1.40    0.55
  -1   9 -16   -0.02    0.11
  -1   9 -16    0.32    0.53
  -2   9 -16    1.26    0.53
  -3   9 -16    5.44    0.82
  -4   9 -16    1.17    0.50
  -5   9 -16    3.48    0.77
  -6   9 -16    0.55    0.46
  11   8 -16    3.00    0.29
  10   8 -16    2.99    0.31
   9   8 -16    0.95    0.23
   8   8 -16    0.40    0.16
   7   8 -16    2.60    0.34
   7   8 -16    2.77    0.25
   6   8 -16    3.15    0.28
   6   8 -16    3.20    0.38
   5   8 -16    7.03    0.55
   5   8 -16    7.45    0.61
   4   8 -16    1.03    0.18
   4   8 -16    0.82    0.23
   3   8 -16    0.92    0.25
   3   8 -16    1.03    0.51
   3   8 -16    1.03    0.18
   2   8 -16    0.16    0.51
   2   8 -16    0.34    0.22
   2   8 -16    0.18    0.11
   1   8 -16    3.48    0.32
   1   8 -16    4.17    0.87
   0   8 -16    1.64    0.56
   0   8 -16    1.14    0.20
  -1   8 -16    0.14    0.11
  -1   8 -16    0.63    0.53
  -2   8 -16    7.51    0.98
  -3   8 -16    0.45    0.53
  -4   8 -16    1.09    0.55
  -5   8 -16    0.66    0.50
  -6   8 -16    0.46    0.47
  12   7 -16    0.41    0.12
  11   7 -16    0.08    0.12
  10   7 -16    5.13    0.44
   9   7 -16    0.23    0.16
   8   7 -16    3.75    0.30
   8   7 -16    3.31    0.37
   7   7 -16    3.01    0.27
   7   7 -16    3.07    0.36
   6   7 -16    2.10    0.22
   6   7 -16    1.75    0.32
   5   7 -16    1.74    0.34
   5   7 -16    2.21    0.23
   4   7 -16    0.40    0.11
   4   7 -16    0.23    0.22
   3   7 -16    2.10    0.39
   3   7 -16    2.99    0.27
   2   7 -16    1.25    0.27
   2   7 -16    2.44    0.59
   2   7 -16    1.72    0.22
   1   7 -16    1.71    0.23
   1   7 -16    1.93    0.56
   0   7 -16    1.25    0.21
   0   7 -16    1.50    0.58
  -1   7 -16    0.58    0.13
  -1   7 -16    1.40    0.55
  -2   7 -16    3.93    0.89
  -3   7 -16   -0.18    0.52
  -4   7 -16    0.08    0.52
  -5   7 -16    0.12    0.51
  -6   7 -16    0.36    0.49
  12   6 -16    1.24    0.20
  11   6 -16    0.04    0.13
  10   6 -16    1.42    0.24
   9   6 -16    0.28    0.16
   8   6 -16    3.93    0.40
   8   6 -16    4.10    0.33
   7   6 -16    0.14    0.10
   7   6 -16    0.00    0.18
   6   6 -16    8.59    0.70
   6   6 -16    8.61    0.64
   5   6 -16    0.70    0.13
   5   6 -16    0.61    0.22
   4   6 -16    0.17    0.11
   4   6 -16   -0.10    0.22
   3   6 -16    1.69    0.38
   3   6 -16    2.03    0.23
   2   6 -16    6.81    0.98
   2   6 -16    6.19    0.50
   1   6 -16    0.37    0.13
   1   6 -16    0.83    0.54
   0   6 -16    0.85    0.58
   0   6 -16    0.65    0.14
  -1   6 -16    0.00    0.58
  -1   6 -16    0.33    0.12
  -2   6 -16    1.41    0.60
  -3   6 -16    0.59    0.57
  -4   6 -16    0.22    0.56
  -5   6 -16    0.64    0.54
  -6   6 -16    0.02    0.49
  13   5 -16    0.65    0.16
  12   5 -16    0.43    0.13
  11   5 -16    0.21    0.14
  10   5 -16    0.15    0.14
   9   5 -16    1.12    0.26
   9   5 -16    0.91    0.16
   8   5 -16    1.02    0.28
   8   5 -16    1.07    0.17
   7   5 -16    0.14    0.10
   7   5 -16    0.09    0.17
   6   5 -16    1.69    0.21
   6   5 -16    1.51    0.33
   5   5 -16    0.41    0.22
   5   5 -16    0.27    0.11
   4   5 -16    8.72    0.64
   4   5 -16    8.22    0.72
   3   5 -16    0.16    0.11
   3   5 -16   -0.14    0.22
   2   5 -16    0.18    0.12
   2   5 -16    0.13    0.55
   1   5 -16    0.56    0.58
   1   5 -16    0.52    0.13
   0   5 -16    0.37    0.55
   0   5 -16    0.20    0.12
  -1   5 -16    4.89    0.41
  -1   5 -16    5.50    0.94
  -2   5 -16    0.19    0.54
  -2   5 -16    0.22    0.12
  -3   5 -16    2.87    0.61
  -4   5 -16    0.13    0.56
  -5   5 -16   -0.45    0.53
  -6   5 -16    0.11    0.46
  13   4 -16    0.03    0.11
  12   4 -16    0.13    0.12
  11   4 -16    4.44    0.39
  10   4 -16    2.86    0.32
   9   4 -16   -0.01    0.17
   9   4 -16   -0.09    0.09
   8   4 -16    0.33    0.19
   8   4 -16    0.12    0.10
   7   4 -16    6.67    0.50
   7   4 -16    6.30    0.57
   6   4 -16    0.25    0.11
   6   4 -16    0.04    0.20
   5   4 -16    0.06    0.21
   5   4 -16    0.22    0.11
   4   4 -16    5.54    0.57
   4   4 -16    6.30    0.47
   3   4 -16    1.98    0.24
   2   4 -16    2.86    0.29
   1   4 -16   11.44    1.24
   1   4 -16   11.49    0.86
   0   4 -16    0.89    0.59
  -1   4 -16    0.59    0.14
  -1   4 -16    1.06    0.60
  -2   4 -16    2.72    0.28
  -2   4 -16    2.95    0.65
  -3   4 -16    1.89    0.61
  -4   4 -16    0.05    0.54
  13   3 -16    0.15    0.12
  12   3 -16   -0.01    0.13
  11   3 -16    0.26    0.15
  10   3 -16    2.02    0.29
   9   3 -16   -0.01    0.09
   9   3 -16    0.02    0.17
   8   3 -16    4.88    0.48
   8   3 -16    5.05    0.40
   7   3 -16    0.06    0.20
   7   3 -16   -0.01    0.11
   6   3 -16    0.04    0.21
   6   3 -16    0.15    0.11
   5   3 -16    0.43    0.12
   5   3 -16    0.49    0.22
   4   3 -16    0.44    0.23
   4   3 -16    0.56    0.13
   3   3 -16   12.94    0.96
   2   3 -16    6.24    0.50
   1   3 -16    2.41    0.27
   0   3 -16    0.04    0.12
   0   3 -16   -0.71    0.57
  -1   3 -16    0.58    0.59
  -1   3 -16    0.18    0.13
  -2   3 -16    3.45    0.92
  -2   3 -16    4.05    0.35
  13   2 -16    0.37    0.12
  12   2 -16    0.01    0.14
  11   2 -16    0.14    0.15
  10   2 -16    0.41    0.17
   9   2 -16    3.27    0.29
   9   2 -16    3.50    0.38
   8   2 -16    0.04    0.11
   8   2 -16    0.04    0.20
   7   2 -16    0.56    0.22
   7   2 -16    0.49    0.12
   6   2 -16    0.10    0.11
   6   2 -16   -0.02    0.22
   5   2 -16    1.73    0.39
   5   2 -16    2.55    0.25
   4   2 -16    2.37    0.26
   3   2 -16    8.24    0.63
   2   2 -16    5.22    0.44
   1   2 -16    0.36    0.13
   0   2 -16    3.92    0.35
  -1   2 -16    6.58    0.52
  -2   2 -16    2.06    0.24
  12   1 -16    0.02    0.15
  11   1 -16    0.48    0.17
  10   1 -16    0.78    0.20
   9   1 -16    0.57    0.21
   9   1 -16    0.47    0.11
   8   1 -16    1.31    0.34
   8   1 -16    1.58    0.21
   7   1 -16    0.00    0.20
   7   1 -16    0.02    0.11
   6   1 -16   -0.09    0.22
   6   1 -16    0.24    0.11
   5   1 -16    0.40    0.12
   4   1 -16    2.41    0.26
   3   1 -16    2.59    0.28
   2   1 -16    2.37    0.26
   1   1 -16    6.21    0.50
   0   1 -16    3.00    0.29
  -1   1 -16    1.60    0.22
  -2   1 -16    0.02    0.11
  13   0 -16    0.46    0.07
  12   0 -16    0.02    0.05
  11   0 -16    0.26    0.06
  10   0 -16    1.79    0.41
  10   0 -16    2.03    0.18
   9   0 -16   -0.03    0.20
   9   0 -16    0.02    0.07
   9   0 -16   -0.04    0.11
   8   0 -16   -0.03    0.10
   8   0 -16   -0.12    0.20
   8   0 -16    0.01    0.09
   7   0 -16    1.42    0.21
   7   0 -16    1.58    0.21
   7   0 -16    1.30    0.35
   6   0 -16    1.45    0.22
   5   0 -16    0.37    0.12
   4   0 -16    0.18    0.11
   3   0 -16    2.48    0.27
   2   0 -16    1.10    0.15
   1   0 -16    1.53    0.22
   0   0 -16   10.47    0.78
  -1   0 -16    2.55    0.27
  -2   0 -16   10.06    0.75
  -3   0 -16    0.35    0.14
  13  -1 -16    0.63    0.08
  12  -1 -16    0.09    0.05
  11  -1 -16    0.94    0.12
  10  -1 -16    0.03    0.07
   9  -1 -16    0.99    0.16
   8  -1 -16    0.61    0.12
   8  -1 -16    0.62    0.13
   7  -1 -16    0.53    0.12
   6  -1 -16    1.08    0.20
   5  -1 -16    0.10    0.11
   4  -1 -16    2.69    0.27
   3  -1 -16    0.56    0.12
   2  -1 -16    0.37    0.12
   1  -1 -16    7.89    0.60
   0  -1 -16    0.75    0.13
  -1  -1 -16    4.17    0.35
  -2  -1 -16    4.80    0.39
  -3  -1 -16   -0.12    0.09
  13  -2 -16    0.96    0.10
  12  -2 -16   -0.02    0.06
  11  -2 -16    0.04    0.08
  10  -2 -16    0.33    0.09
   9  -2 -16    0.21    0.11
   8  -2 -16    0.16    0.13
   8  -2 -16    0.03    0.10
   7  -2 -16    0.07    0.10
   6  -2 -16    0.47    0.12
   5  -2 -16    0.76    0.13
   4  -2 -16    1.05    0.19
   3  -2 -16    0.10    0.10
   2  -2 -16    5.28    0.42
   1  -2 -16   -0.07    0.10
   0  -2 -16    1.04    0.18
  -1  -2 -16    1.49    0.19
  -2  -2 -16    0.01    0.09
  13  -3 -16    0.21    0.06
  12  -3 -16    0.15    0.07
  11  -3 -16    0.44    0.09
  10  -3 -16    0.09    0.09
   9  -3 -16    0.03    0.11
   8  -3 -16   -0.15    0.10
   8  -3 -16    0.11    0.14
   7  -3 -16    4.50    0.37
   6  -3 -16    1.69    0.22
   5  -3 -16   -0.07    0.10
   4  -3 -16    3.64    0.31
   3  -3 -16    2.76    0.26
   2  -3 -16    8.64    0.65
   1  -3 -16    1.73    0.20
   0  -3 -16    2.54    0.24
  -1  -3 -16    0.21    0.09
  12  -4 -16    1.78    0.17
  11  -4 -16    0.30    0.09
  10  -4 -16    0.16    0.10
   9  -4 -16   -0.03    0.11
   8  -4 -16    2.08    0.26
   7  -4 -16    3.95    0.35
   7  -4 -16    2.91    0.30
   6  -4 -16    3.36    0.30
   5  -4 -16    0.10    0.10
   4  -4 -16    5.19    0.41
   3  -4 -16    3.44    0.30
   2  -4 -16    1.05    0.16
   1  -4 -16    1.11    0.16
   0  -4 -16    0.02    0.08
  11  -5 -16    0.32    0.09
  10  -5 -16   -0.07    0.10
   9  -5 -16    0.85    0.18
   8  -5 -16   -0.02    0.14
   7  -5 -16    3.06    0.31
   7  -5 -16    2.04    0.24
   6  -5 -16    0.44    0.11
   5  -5 -16    0.02    0.09
   4  -5 -16    1.94    0.20
   3  -5 -16    0.90    0.15
   2  -5 -16    1.16    0.16
   1  -5 -16    0.46    0.09
  10  -6 -16    0.27    0.11
   9  -6 -16    0.10    0.11
   8  -6 -16    0.17    0.14
   7  -6 -16    1.17    0.23
   7  -6 -16    0.61    0.11
   6  -6 -16    0.00    0.18
   6  -6 -16    0.07    0.09
   5  -6 -16    0.03    0.08
   4  -6 -16    1.17    0.16
   3  -6 -16    0.07    0.08
   8  -7 -16    0.09    0.13
   7  -7 -16   -0.05    0.15
   6  -7 -16    0.07    0.08
   6  -7 -16   -0.08    0.16
   1  16 -17    0.31    0.13
   0  16 -17    0.03    0.12
   4  15 -17    0.30    0.12
   3  15 -17    0.21    0.12
   2  15 -17    0.61    0.14
   1  15 -17    0.90    0.23
   0  15 -17    0.08    0.13
  -1  15 -17    0.11    0.13
  -2  15 -17    0.94    0.24
   6  14 -17    0.04    0.10
   5  14 -17    0.05    0.11
   4  14 -17    0.17    0.12
   3  14 -17   -0.08    0.12
   2  14 -17    0.30    0.14
   1  14 -17    0.15    0.14
   0  14 -17    0.44    0.15
  -2  14 -17   -0.30    0.41
  -3  14 -17   -0.15    0.39
   7  13 -17   -0.01    0.14
   7  13 -17    0.03    0.10
   6  13 -17    0.70    0.19
   6  13 -17    0.54    0.25
   5  13 -17    0.04    0.12
   4  13 -17    0.01    0.12
   3  13 -17    1.48    0.26
   2  13 -17    0.15    0.19
  -1  13 -17   -0.24    0.43
  -2  13 -17    0.02    0.43
  -3  13 -17    0.37    0.42
  -4  13 -17   -0.34    0.40
   8  12 -17    1.67    0.21
   8  12 -17    1.60    0.24
   7  12 -17    0.08    0.15
   7  12 -17    0.28    0.11
   6  12 -17    1.90    0.29
   6  12 -17    2.03    0.28
   5  12 -17    0.03    0.17
   4  12 -17   -0.03    0.16
   3  12 -17    0.35    0.17
   0  12 -17   -0.34    0.43
  -1  12 -17    0.18    0.47
  -2  12 -17   -0.07    0.45
  -3  12 -17    0.14    0.44
  -4  12 -17    0.55    0.43
   9  11 -17   -0.11    0.13
   8  11 -17    1.10    0.24
   7  11 -17    0.12    0.15
   6  11 -17    2.02    0.31
   5  11 -17    2.48    0.34
   4  11 -17    1.00    0.28
   3  11 -17    0.64    0.19
   2  11 -17    1.13    0.18
   1  11 -17    0.08    0.10
   1  11 -17   -0.09    0.44
   0  11 -17    0.67    0.49
  -1  11 -17    6.58    0.88
  -2  11 -17    0.66    0.47
  -3  11 -17    0.80    0.46
  -4  11 -17    1.10    0.45
  -5  11 -17    1.68    0.44
  10  10 -17    0.09    0.13
   9  10 -17    2.88    0.31
   8  10 -17    0.06    0.16
   7  10 -17    2.38    0.31
   6  10 -17   11.57    0.89
   5  10 -17   -0.05    0.18
   4  10 -17    0.41    0.20
   4  10 -17    0.54    0.11
   3  10 -17    0.96    0.16
   3  10 -17    0.65    0.21
   2  10 -17    0.99    0.17
   2  10 -17    0.75    0.46
   1  10 -17    0.62    0.12
   1  10 -17    0.87    0.49
   0  10 -17    1.31    0.19
   0  10 -17    1.97    0.53
  -1  10 -17    0.74    0.49
  -2  10 -17    1.45    0.50
  -3  10 -17    0.26    0.46
  -4  10 -17    0.96    0.46
  -5  10 -17    0.62    0.43
  10   9 -17    0.07    0.13
   9   9 -17    0.86    0.24
   8   9 -17    0.03    0.16
   7   9 -17    0.01    0.16
   6   9 -17    0.64    0.11
   6   9 -17    0.69    0.20
   5   9 -17    2.30    0.35
   5   9 -17    2.18    0.23
   4   9 -17    9.00    0.64
   4   9 -17    8.14    0.71
   3   9 -17    3.41    0.28
   3   9 -17    2.82    0.40
   2   9 -17   -0.26    0.48
   2   9 -17    0.29    0.11
   1   9 -17    0.97    0.51
   0   9 -17    1.80    0.54
   0   9 -17    1.63    0.21
  -1   9 -17    0.27    0.52
  -2   9 -17    7.46    0.94
  -3   9 -17    1.87    0.52
  -4   9 -17    1.07    0.48
  -5   9 -17    0.37    0.46
  11   8 -17    2.76    0.28
  10   8 -17    0.49    0.15
   9   8 -17    0.06    0.15
   8   8 -17    0.75    0.19
   7   8 -17    3.98    0.32
   7   8 -17    3.70    0.39
   6   8 -17    1.08    0.30
   6   8 -17    1.20    0.17
   5   8 -17   12.63    0.89
   5   8 -17   11.65    0.95
   4   8 -17    0.70    0.23
   4   8 -17    0.82    0.13
   3   8 -17    4.91    0.54
   3   8 -17    6.20    0.45
   2   8 -17    0.20    0.51
   2   8 -17    0.33    0.12
   1   8 -17    3.04    0.80
   1   8 -17    2.40    0.26
   0   8 -17    3.08    0.77
   0   8 -17    2.07    0.24
  -1   8 -17    0.97    0.53
  -2   8 -17    2.55    0.58
  -3   8 -17    3.31    0.81
  -4   8 -17    0.62    0.49
  -5   8 -17    0.16    0.46
  11   7 -17    0.87    0.20
  10   7 -17    4.86    0.42
   9   7 -17    0.84    0.18
   8   7 -17    0.28    0.17
   8   7 -17    0.27    0.10
   7   7 -17    0.86    0.15
   7   7 -17    0.40    0.18
   6   7 -17    8.20    0.70
   6   7 -17    8.82    0.64
   5   7 -17    1.98    0.21
   5   7 -17    1.47    0.35
   4   7 -17    0.67    0.23
   4   7 -17    1.08    0.18
   3   7 -17    1.15    0.19
   3   7 -17    1.09    0.26
   2   7 -17    2.83    0.59
   2   7 -17    3.44    0.31
   1   7 -17    0.90    0.15
   1   7 -17    1.03    0.55
   0   7 -17    4.61    0.40
   0   7 -17    5.41    0.86
  -1   7 -17    0.70    0.50
  -2   7 -17    1.24    0.55
  -3   7 -17    0.92    0.54
  -4   7 -17    0.21    0.47
  -5   7 -17    0.37    0.47
  12   6 -17    0.27    0.12
  11   6 -17    1.46    0.23
  10   6 -17    0.81    0.17
   9   6 -17    0.23    0.16
   8   6 -17    4.50    0.36
   8   6 -17    4.62    0.43
   7   6 -17    9.66    0.76
   7   6 -17    9.41    0.71
   6   6 -17    4.41    0.35
   6   6 -17    4.01    0.45
   5   6 -17   -0.01    0.21
   5   6 -17    0.17    0.11
   4   6 -17    2.01    0.23
   4   6 -17    1.90    0.37
   3   6 -17    0.70    0.13
   2   6 -17    2.22    0.25
   1   6 -17    2.84    0.29
   1   6 -17    2.91    0.59
   0   6 -17   -0.13    0.53
   0   6 -17    0.03    0.12
  -1   6 -17    1.87    0.24
  -1   6 -17    2.22    0.59
  -2   6 -17    2.32    0.58
  -3   6 -17    1.04    0.53
  -4   6 -17    0.21    0.50
  -5   6 -17    0.10    0.45
  12   5 -17    0.07    0.12
  11   5 -17    3.20    0.32
  10   5 -17    1.73    0.27
   9   5 -17    1.98    0.21
   9   5 -17    2.02    0.29
   8   5 -17    7.70    0.64
   8   5 -17    7.91    0.59
   7   5 -17    1.44    0.32
   7   5 -17    1.59    0.19
   6   5 -17    2.16    0.38
   6   5 -17    2.60    0.25
   5   5 -17    1.34    0.35
   5   5 -17    2.34    0.23
   4   5 -17    1.08    0.19
   4   5 -17    0.69    0.24
   3   5 -17    0.86    0.14
   2   5 -17    2.33    0.26
   1   5 -17    1.84    0.56
   1   5 -17    1.31    0.22
   0   5 -17    1.14    0.56
  -1   5 -17    0.19    0.54
  -1   5 -17    0.24    0.12
  -2   5 -17    1.68    0.56
  -3   5 -17   -0.10    0.51
  -4   5 -17    0.82    0.49
  12   4 -17    0.21    0.12
  11   4 -17    0.81    0.22
  10   4 -17    1.13    0.16
  10   4 -17    1.49    0.25
   9   4 -17    2.03    0.21
   9   4 -17    2.18    0.31
   8   4 -17    2.22    0.23
   8   4 -17    2.20    0.33
   7   4 -17    0.19    0.11
   7   4 -17    0.10    0.20
   6   4 -17    0.41    0.11
   6   4 -17    0.23    0.21
   5   4 -17    0.22    0.11
   5   4 -17    0.08    0.21
   4   4 -17   -0.04    0.11
   3   4 -17    0.09    0.11
   2   4 -17   11.71    0.87
   1   4 -17    7.07    0.55
   0   4 -17    2.58    0.28
  -1   4 -17    1.81    0.23
  -2   4 -17    0.41    0.12
  12   3 -17    1.29    0.22
  11   3 -17    0.11    0.14
  10   3 -17    0.04    0.16
   9   3 -17   -0.02    0.09
   9   3 -17    0.05    0.17
   8   3 -17    0.40    0.11
   8   3 -17    0.20    0.20
   7   3 -17    3.50    0.30
   7   3 -17    3.22    0.42
   6   3 -17    2.55    0.40
   6   3 -17    3.17    0.28
   5   3 -17    0.10    0.11
   5   3 -17   -0.02    0.21
   4   3 -17    0.17    0.11
   3   3 -17    1.14    0.21
   2   3 -17   24.23    1.75
   1   3 -17    0.97    0.15
   0   3 -17    2.65    0.28
  -1   3 -17    0.44    0.13
  -2   3 -17    2.38    0.25
  13   2 -17    0.02    0.14
  12   2 -17    0.05    0.13
  11   2 -17    0.05    0.15
  10   2 -17    0.06    0.17
   9   2 -17    0.69    0.21
   9   2 -17    0.92    0.16
   8   2 -17    1.19    0.24
   8   2 -17    1.08    0.18
   7   2 -17    0.74    0.23
   7   2 -17    1.19    0.19
   6   2 -17    1.20    0.19
   6   2 -17    0.64    0.24
   5   2 -17    0.50    0.12
   4   2 -17    1.23    0.20
   3   2 -17    0.21    0.12
   2   2 -17    2.77    0.29
   1   2 -17   14.38    1.06
   0   2 -17    1.10    0.21
  -1   2 -17    1.59    0.22
  -2   2 -17   -0.06    0.10
  11   1 -17    0.16    0.16
  10   1 -17    0.05    0.17
   9   1 -17    1.65    0.20
   9   1 -17    1.73    0.31
   8   1 -17    0.49    0.12
   8   1 -17    0.40    0.21
   7   1 -17    1.28    0.20
   7   1 -17    0.96    0.24
   6   1 -17    0.23    0.11
   5   1 -17    0.65    0.13
   4   1 -17    3.29    0.31
   3   1 -17    0.16    0.11
   2   1 -17    2.34    0.27
   1   1 -17   11.94    0.89
   0   1 -17    0.02    0.11
  -1   1 -17    0.03    0.11
  -2   1 -17    1.04    0.17
   9   0 -17    0.32    0.11
   9   0 -17    0.23    0.20
   8   0 -17    1.59    0.20
   8   0 -17    1.79    0.18
   7   0 -17    0.05    0.11
   7   0 -17   -0.01    0.10
   6   0 -17    2.75    0.27
   5   0 -17    0.00    0.11
   4   0 -17    0.03    0.11
   3   0 -17    0.87    0.14
   2   0 -17    8.16    0.62
   1   0 -17    1.08    0.20
   0   0 -17    0.01    0.11
  -1   0 -17    0.28    0.11
  -2   0 -17    0.03    0.09
  10  -1 -17    0.05    0.06
   9  -1 -17    0.75    0.13
   8  -1 -17    0.35    0.11
   8  -1 -17    0.43    0.10
   7  -1 -17    2.40    0.25
   7  -1 -17    2.39    0.25
   6  -1 -17   -0.04    0.10
   5  -1 -17    3.34    0.30
   4  -1 -17    5.22    0.42
   3  -1 -17    4.16    0.36
   2  -1 -17    0.24    0.11
   1  -1 -17    1.04    0.18
   0  -1 -17   -0.07    0.10
  -1  -1 -17    0.14    0.10
  12  -2 -17    0.71    0.08
  11  -2 -17    0.18    0.06
  10  -2 -17    0.14    0.07
   9  -2 -17    0.36    0.10
   8  -2 -17   -0.02    0.11
   8  -2 -17    0.09    0.10
   7  -2 -17    1.76    0.23
   7  -2 -17    1.20    0.20
   6  -2 -17    0.38    0.11
   5  -2 -17    2.16    0.24
   4  -2 -17    0.59    0.12
   3  -2 -17    3.46    0.31
   2  -2 -17    0.43    0.11
   1  -2 -17    0.25    0.10
   0  -2 -17    1.40    0.18
  11  -3 -17   -0.05    0.06
  10  -3 -17    0.17    0.08
   9  -3 -17    0.33    0.10
   8  -3 -17    1.12    0.19
   8  -3 -17    0.92    0.17
   7  -3 -17    3.61    0.31
   6  -3 -17    1.04    0.18
   5  -3 -17   -0.02    0.10
   4  -3 -17    0.08    0.10
   3  -3 -17   -0.02    0.09
   2  -3 -17    0.14    0.09
   1  -3 -17    0.32    0.10
  11  -4 -17    0.65    0.11
  10  -4 -17    1.37    0.16
   9  -4 -17    0.35    0.10
   8  -4 -17    0.04    0.12
   7  -4 -17    1.45    0.18
   6  -4 -17    0.03    0.09
   5  -4 -17    0.12    0.09
   4  -4 -17    0.11    0.09
   3  -4 -17    0.00    0.08
   2  -4 -17    0.38    0.09
   9  -5 -17    0.74    0.16
   8  -5 -17    0.19    0.12
   7  -5 -17    0.16    0.09
   7  -5 -17    0.40    0.14
   6  -5 -17    0.13    0.15
   6  -5 -17   -0.02    0.08
   5  -5 -17    0.19    0.09
   4  -5 -17    0.16    0.08
   2  15 -18    0.23    0.16
   6  13 -18   -0.07    0.17
  -1  13 -18    0.06    0.40
  -2  13 -18   -0.10    0.36
   7  12 -18    0.06    0.15
   6  12 -18    0.02    0.15
   5  12 -18   -0.02    0.15
   4  12 -18    0.05    0.15
   0  12 -18    0.97    0.43
  -1  12 -18    0.07    0.40
  -2  12 -18    0.15    0.39
  -3  12 -18    0.19    0.40
   8  11 -18    0.23    0.15
   7  11 -18    0.23    0.16
   6  11 -18   -0.03    0.16
   5  11 -18    0.40    0.17
   4  11 -18    0.86    0.19
   2  11 -18    1.70    0.20
   1  11 -18    2.86    0.68
   1  11 -18    2.07    0.22
   0  11 -18    0.45    0.11
   0  11 -18    0.23    0.44
  -1  11 -18    0.24    0.42
  -2  11 -18    0.33    0.41
  -3  11 -18    0.66    0.42
   9  10 -18    0.13    0.13
   8  10 -18    2.09    0.28
   7  10 -18    2.55    0.32
   6  10 -18    0.52    0.19
   5  10 -18    0.16    0.18
   4  10 -18    1.66    0.18
   4  10 -18    0.97    0.21
   3  10 -18    0.59    0.11
   2  10 -18    0.14    0.10
   1  10 -18    3.26    0.29
   1  10 -18    3.68    0.73
   0  10 -18    0.65    0.47
   0  10 -18    0.45    0.10
  -1  10 -18    0.84    0.44
  -2  10 -18    0.10    0.42
  -3  10 -18    0.46    0.41
  -4  10 -18    1.07    0.40
  10   9 -18    0.10    0.12
   9   9 -18    0.06    0.13
   8   9 -18    3.91    0.38
   7   9 -18   13.78    1.04
   6   9 -18    0.86    0.21
   6   9 -18    1.13    0.16
   5   9 -18    0.10    0.10
   5   9 -18    0.00    0.19
   4   9 -18    3.71    0.45
   4   9 -18    5.03    0.36
   3   9 -18    0.11    0.10
   2   9 -18    4.77    0.39
   1   9 -18    0.51    0.46
   1   9 -18    0.33    0.11
   0   9 -18    0.48    0.47
  -1   9 -18    0.51    0.46
  -2   9 -18    0.48    0.43
  -3   9 -18    0.17    0.41
  -4   9 -18    0.54    0.40
  10   8 -18    0.79    0.21
   9   8 -18    3.21    0.33
   8   8 -18    0.15    0.16
   7   8 -18    3.03    0.26
   7   8 -18    2.73    0.35
   6   8 -18    1.88    0.20
   6   8 -18    2.00    0.32
   5   8 -18    4.93    0.38
   5   8 -18    4.67    0.47
   4   8 -18    0.63    0.12
   4   8 -18    0.46    0.21
   3   8 -18    4.61    0.38
   2   8 -18    0.35    0.11
   1   8 -18    0.51    0.46
   1   8 -18    0.59    0.12
   0   8 -18    0.25    0.48
   0   8 -18   -0.08    0.10
  -1   8 -18    2.98    0.75
  -2   8 -18    0.36    0.46
  -3   8 -18    0.26    0.44
  -4   8 -18   -0.07    0.41
  11   7 -18    0.66    0.19
  10   7 -18    0.19    0.13
   9   7 -18    0.01    0.14
   8   7 -18    0.22    0.17
   8   7 -18    0.29    0.09
   7   7 -18    1.53    0.18
   7   7 -18    1.46    0.30
   6   7 -18   24.68    1.87
   6   7 -18   26.40    1.83
   5   7 -18    0.06    0.10
   5   7 -18   -0.15    0.19
   4   7 -18    0.05    0.20
   4   7 -18    0.29    0.11
   3   7 -18    1.56    0.21
   2   7 -18    1.17    0.20
   1   7 -18    3.56    0.32
   0   7 -18    0.97    0.15
   0   7 -18    0.97    0.49
  -1   7 -18    0.14    0.11
  -1   7 -18    0.48    0.47
  -2   7 -18    0.97    0.48
  -3   7 -18   -0.09    0.44
  -4   7 -18    0.16    0.41
  11   6 -18    1.99    0.24
  10   6 -18    0.27    0.14
   9   6 -18    1.16    0.25
   8   6 -18    3.96    0.32
   8   6 -18    3.81    0.40
   7   6 -18    6.45    0.48
   7   6 -18    6.13    0.56
   6   6 -18    1.18    0.33
   6   6 -18    1.19    0.18
   5   6 -18    1.12    0.24
   5   6 -18    1.61    0.19
   4   6 -18    0.49    0.12
   3   6 -18    1.18    0.20
   2   6 -18    1.09    0.21
   1   6 -18    4.55    0.38
   0   6 -18    0.10    0.11
  -1   6 -18    0.97    0.49
  -1   6 -18    0.61    0.13
  -2   6 -18    0.58    0.48
  11   5 -18    0.25    0.13
  10   5 -18   -0.02    0.14
   9   5 -18    0.45    0.10
   9   5 -18    0.41    0.17
   8   5 -18    1.87    0.20
   8   5 -18    1.84    0.31
   7   5 -18    1.18    0.32
   7   5 -18    1.44    0.19
   6   5 -18    1.13    0.24
   6   5 -18    1.44    0.19
   5   5 -18    0.88    0.24
   5   5 -18    1.60    0.20
   4   5 -18    3.03    0.29
   3   5 -18    0.58    0.13
   2   5 -18    1.42    0.21
   1   5 -18    2.62    0.28
   0   5 -18    6.12    0.49
  -1   5 -18    0.32    0.11
  12   4 -18    0.51    0.13
  11   4 -18    0.24    0.13
  10   4 -18    0.35    0.15
   9   4 -18    0.36    0.09
   9   4 -18    0.52    0.18
   8   4 -18    2.89    0.26
   8   4 -18    2.84    0.37
   7   4 -18    0.45    0.20
   7   4 -18    0.76    0.12
   6   4 -18   -0.01    0.10
   6   4 -18   -0.18    0.20
   5   4 -18    0.53    0.12
   4   4 -18    1.62    0.22
   3   4 -18    0.02    0.11
   2   4 -18    3.97    0.35
   1   4 -18    8.14    0.62
   0   4 -18    0.55    0.12
  -1   4 -18    0.31    0.11
  12   3 -18    0.05    0.12
  11   3 -18   -0.03    0.14
  10   3 -18    0.01    0.15
  10   3 -18   -0.07    0.10
   9   3 -18    0.84    0.20
   9   3 -18    0.81    0.15
   8   3 -18    0.82    0.20
   8   3 -18    1.13    0.17
   7   3 -18    0.16    0.19
   7   3 -18    0.27    0.11
   6   3 -18    0.74    0.13
   5   3 -18    2.48    0.26
   4   3 -18    0.76    0.14
   3   3 -18    0.06    0.11
   2   3 -18    0.21    0.12
   1   3 -18    1.81    0.23
   0   3 -18    0.14    0.11
  -1   3 -18    0.46    0.11
  12   2 -18    0.12    0.13
  11   2 -18    0.03    0.14
  10   2 -18    0.17    0.15
   9   2 -18    2.57    0.24
   9   2 -18    2.47    0.33
   8   2 -18    1.13    0.31
   8   2 -18    1.22    0.18
   7   2 -18    1.57    0.21
   6   2 -18    0.41    0.12
   5   2 -18    2.17    0.24
   4   2 -18    3.18    0.30
   3   2 -18    0.24    0.12
   2   2 -18    0.34    0.12
   1   2 -18    1.28    0.21
   0   2 -18    0.47    0.12
  -1   2 -18    0.20    0.10
  10   1 -18    0.18    0.16
   9   1 -18    1.27    0.18
   8   1 -18    2.28    0.23
   7   1 -18    0.24    0.10
   6   1 -18    0.08    0.10
   5   1 -18    3.27    0.30
   4   1 -18    2.87    0.28
   3   1 -18    0.40    0.12
   2   1 -18    2.59    0.26
   1   1 -18    1.09    0.19
   0   1 -18    0.81    0.13
  -1   1 -18    0.07    0.09
   9   0 -18   -0.09    0.09
   8   0 -18    1.03    0.17
   7   0 -18   -0.02    0.10
   7   0 -18   -0.04    0.09
   6   0 -18    0.52    0.12
   5   0 -18    0.11    0.10
   4   0 -18    2.95    0.28
   3   0 -18    0.15    0.11
   2   0 -18    1.65    0.21
   1   0 -18   -0.04    0.10
   0   0 -18    0.37    0.10
   8  -1 -18    1.31    0.17
   8  -1 -18    1.25    0.15
   7  -1 -18   -0.09    0.09
   7  -1 -18   -0.07    0.10
   6  -1 -18   -0.01    0.10
   5  -1 -18    0.27    0.10
   4  -1 -18    0.30    0.10
   3  -1 -18    0.15    0.10
   2  -1 -18    0.27    0.10
   1  -1 -18    0.30    0.10
   0  -1 -18    0.26    0.09
   9  -2 -18    0.06    0.06
   8  -2 -18    0.98    0.14
   8  -2 -18    0.83    0.16
   7  -2 -18    0.57    0.11
   7  -2 -18    0.73    0.16
   6  -2 -18   -0.05    0.09
   5  -2 -18    0.58    0.11
   4  -2 -18    0.03    0.09
   3  -2 -18    1.11    0.17
   2  -2 -18    0.19    0.09
  10  -3 -18   -0.03    0.06
   9  -3 -18    0.08    0.07
   8  -3 -18    1.80    0.18
   8  -3 -18    1.55    0.19
   7  -3 -18    0.49    0.10
   7  -3 -18    0.58    0.13
   6  -3 -18    0.96    0.20
   5  -3 -18    0.42    0.09
   4  -3 -18    0.01    0.08
   3  -3 -18    0.30    0.09
   8  -4 -18    0.20    0.09
   7  -4 -18    0.46    0.12
   7  -4 -18    0.21    0.08
   6  -4 -18    0.10    0.12
   6  -4 -18    0.04    0.08
   5  -4 -18    0.12    0.08
   6  12 -19    1.03    0.22
  -1  12 -19    0.19    0.35
   7  11 -19   -0.14    0.14
   6  11 -19    0.01    0.14
   5  11 -19    0.92    0.25
  -1  11 -19   -0.15    0.37
  -2  11 -19    0.03    0.36
   8  10 -19    0.84    0.23
   7  10 -19    1.17    0.25
   6  10 -19    0.23    0.16
   5  10 -19    1.54    0.28
   4  10 -19    1.35    0.17
   3  10 -19    1.57    0.19
   2  10 -19    0.20    0.09
   1  10 -19    0.21    0.09
   0  10 -19    0.62    0.13
  -1  10 -19    1.09    0.40
  -2  10 -19    0.34    0.37
   9   9 -19    2.54    0.29
   8   9 -19    0.28    0.15
   7   9 -19    0.14    0.16
   6   9 -19    0.30    0.17
   6   9 -19    0.47    0.10
   5   9 -19    0.11    0.17
   5   9 -19    0.10    0.09
   4   9 -19    1.79    0.19
   3   9 -19    0.05    0.09
   2   9 -19    0.16    0.10
   1   9 -19    0.03    0.09
   0   9 -19   -0.06    0.09
  -1   9 -19    0.30    0.39
  -2   9 -19    0.02    0.38
   9   8 -19    0.22    0.14
   8   8 -19    0.50    0.17
   7   8 -19    1.47    0.29
   7   8 -19    1.63    0.18
   6   8 -19    0.04    0.09
   6   8 -19   -0.04    0.17
   5   8 -19    1.87    0.32
   5   8 -19    2.29    0.21
   4   8 -19    3.74    0.31
   3   8 -19    2.59    0.25
   2   8 -19    1.04    0.17
   1   8 -19    4.06    0.34
   0   8 -19    0.23    0.10
  10   7 -19    1.70    0.23
   9   7 -19    0.41    0.15
   8   7 -19    1.93    0.20
   8   7 -19    1.96    0.29
   7   7 -19    2.57    0.22
   7   7 -19    2.13    0.31
   6   7 -19    1.77    0.19
   6   7 -19    1.36    0.30
   5   7 -19    0.07    0.09
   4   7 -19    0.31    0.10
   3   7 -19    1.39    0.20
   2   7 -19    1.77    0.21
   1   7 -19    0.13    0.11
   0   7 -19    0.18    0.10
  10   6 -19    0.24    0.14
   9   6 -19    1.84    0.28
   8   6 -19    0.97    0.26
   8   6 -19    0.74    0.14
   7   6 -19    4.40    0.43
   7   6 -19    4.37    0.35
   6   6 -19    0.30    0.18
   6   6 -19    0.45    0.10
   5   6 -19    0.05    0.10
   4   6 -19    3.66    0.32
   3   6 -19    1.09    0.19
   2   6 -19    3.50    0.31
   1   6 -19    4.19    0.36
   0   6 -19    0.51    0.12
  10   5 -19    1.69    0.25
   9   5 -19    2.88    0.25
   9   5 -19    3.10    0.33
   8   5 -19    0.06    0.16
   8   5 -19    0.05    0.08
   7   5 -19    7.21    0.64
   7   5 -19    8.40    0.59
   6   5 -19    1.77    0.21
   5   5 -19    0.41    0.11
   4   5 -19    5.93    0.47
   3   5 -19    0.07    0.11
   2   5 -19    0.39    0.12
   1   5 -19    0.54    0.12
   0   5 -19   -0.03    0.10
  -1   5 -19    2.45    0.23
  11   4 -19    0.02    0.12
  10   4 -19    0.32    0.15
   9   4 -19    1.91    0.27
   9   4 -19    1.96    0.19
   8   4 -19    0.44    0.17
   8   4 -19    0.33    0.09
   7   4 -19    0.04    0.09
   6   4 -19    0.76    0.13
   5   4 -19    0.02    0.10
   4   4 -19    1.12    0.19
   3   4 -19    0.12    0.11
   2   4 -19    1.56    0.22
   1   4 -19    1.48    0.20
   0   4 -19    0.26    0.11
  -1   4 -19    0.80    0.12
  11   3 -19    0.15    0.12
  10   3 -19    0.41    0.15
   9   3 -19    3.20    0.26
   9   3 -19    2.93    0.34
   8   3 -19    1.76    0.19
   7   3 -19    1.19    0.17
   6   3 -19    0.01    0.10
   5   3 -19   -0.06    0.10
   4   3 -19    0.42    0.12
   3   3 -19    0.41    0.12
   2   3 -19    0.99    0.18
   1   3 -19    0.02    0.10
   0   3 -19    0.40    0.11
  -1   3 -19    0.03    0.09
  11   2 -19    0.91    0.21
   9   2 -19    3.07    0.26
   8   2 -19    0.02    0.09
   7   2 -19    0.14    0.10
   6   2 -19    0.30    0.10
   5   2 -19    0.11    0.10
   4   2 -19    1.54    0.20
   3   2 -19    0.51    0.12
   2   2 -19    0.50    0.12
   1   2 -19    0.25    0.10
   0   2 -19    0.44    0.10
   9   1 -19    1.83    0.19
   8   1 -19    0.08    0.09
   7   1 -19    0.31    0.10
   6   1 -19    0.14    0.10
   5   1 -19    0.11    0.10
   4   1 -19    0.91    0.17
   3   1 -19    0.43    0.11
   2   1 -19    0.95    0.17
   1   1 -19    0.47    0.11
   9   0 -19    0.58    0.10
   8   0 -19   -0.14    0.08
   7   0 -19    1.25    0.17
   6   0 -19    0.29    0.10
   5   0 -19    0.36    0.10
   4   0 -19    0.23    0.10
   3   0 -19    1.23    0.18
   2   0 -19    0.59    0.11
   8  -1 -19    0.27    0.09
   7  -1 -19    0.13    0.09
   6  -1 -19    0.05    0.09
   6  -1 -19    0.05    0.09
   5  -1 -19    0.38    0.10
   4  -1 -19    0.12    0.09
   3  -1 -19    1.32    0.17
   8  -2 -19   -0.03    0.08
   7  -2 -19    0.15    0.08
   7  -2 -19    0.08    0.07
   6  -2 -19   -0.02    0.09
   6  -2 -19    0.14    0.08
   5  -2 -19   -0.01    0.08
   3  10 -20   -0.04    0.08
   2  10 -20    1.08    0.15
   1  10 -20    0.71    0.10
   7   9 -20    1.26    0.24
   5   9 -20    0.06    0.08
   4   9 -20    0.05    0.08
   3   9 -20    3.16    0.27
   2   9 -20    0.04    0.08
   1   9 -20    0.80    0.11
   8   8 -20    0.10    0.13
   7   8 -20    0.13    0.15
   6   8 -20    0.85    0.14
   5   8 -20    0.96    0.15
   4   8 -20    1.01    0.16
   3   8 -20    0.15    0.09
   2   8 -20    2.83    0.25
   1   8 -20    0.20    0.09
   0   8 -20    0.16    0.08
   8   7 -20    0.48    0.15
   7   7 -20    0.54    0.16
   7   7 -20    0.74    0.13
   6   7 -20    0.46    0.09
   5   7 -20    4.73    0.37
   4   7 -20    0.05    0.09
   3   7 -20    0.14    0.09
   2   7 -20    3.11    0.28
   1   7 -20   -0.01    0.09
   0   7 -20    0.19    0.09
   9   6 -20   -0.07    0.12
   8   6 -20    0.44    0.15
   8   6 -20    0.46    0.09
   7   6 -20    0.75    0.14
   6   6 -20    1.40    0.17
   5   6 -20    0.18    0.09
   4   6 -20    0.23    0.10
   3   6 -20    1.33    0.18
   2   6 -20    1.35    0.19
   1   6 -20    1.04    0.17
   0   6 -20   -0.04    0.09
   9   5 -20    0.69    0.13
   9   5 -20    0.79    0.22
   8   5 -20    0.01    0.07
   7   5 -20    0.25    0.09
   6   5 -20    4.11    0.33
   5   5 -20    0.31    0.10
   4   5 -20    0.50    0.11
   3   5 -20    1.03    0.18
   2   5 -20    0.06    0.10
   1   5 -20    0.27    0.10
   0   5 -20    0.14    0.09
   9   4 -20    3.39    0.27
   8   4 -20    1.00    0.14
   7   4 -20    0.54    0.10
   6   4 -20    2.77    0.25
   5   4 -20    0.56    0.11
   4   4 -20    1.08    0.18
   3   4 -20    2.40    0.24
   2   4 -20   -0.04    0.09
   1   4 -20    0.45    0.10
   9   3 -20    1.04    0.14
   8   3 -20    1.11    0.15
   7   3 -20    0.54    0.10
   5   3 -20    2.60    0.25
   4   3 -20    1.51    0.19
   3   3 -20    0.25    0.10
   2   3 -20    3.20    0.28
   9   2 -20    0.24    0.07
   8   2 -20   -0.09    0.07
   7   2 -20    0.07    0.08
   6   2 -20   -0.05    0.08
   5   2 -20    0.22    0.09
   4   2 -20    0.29    0.10
   3   2 -20    1.72    0.19
   2   2 -20    0.81    0.16
   8   1 -20    0.07    0.08
   7   1 -20    0.08    0.08
   6   1 -20   -0.01    0.08
   5   1 -20    0.10    0.08
   4   1 -20    1.22    0.16
   5   8 -21    0.90    0.14
   4   8 -21    0.10    0.08
   3   8 -21    0.04    0.08
   6   7 -21    0.29    0.08
   5   7 -21    0.05    0.08
   4   7 -21    0.89    0.14
   3   7 -21    0.08    0.08
   6   6 -21    0.10    0.08
   5   6 -21    4.51    0.35
   4   6 -21    0.09    0.08
   3   6 -21    0.45    0.09
   6   5 -21    0.85    0.14
   5   5 -21    0.11    0.08
   4   5 -21   -0.01    0.08
   0   0   0    0.00    0.00
;
_shelx_hkl_checksum              10113
_shelx_fab_file
;
-16 1 6 0.7191 0.0038
-16 1 7 -2.0466 0.0913
-16 1 8 -2.6622 -0.0134
-16 1 9 -0.2851 -0.1344
-16 2 4 -0.3694 0.0007
-16 2 5 1.5596 -0.0825
-16 2 6 0.6484 -0.0132
-16 2 7 -1.6301 0.0590
-16 2 8 -0.8148 0.0829
-16 2 9 0.5626 -0.0093
-16 3 4 1.0017 0.0521
-16 3 5 2.1143 0.0201
-16 3 6 0.3994 -0.0479
-16 3 7 -1.6674 -0.0238
-16 3 8 0.1810 0.0618
-16 3 9 1.5772 0.0231
-16 4 3 0.8944 0.0907
-16 4 4 2.3988 0.0598
-16 4 5 2.9009 0.0289
-16 4 6 1.2413 -0.0144
-16 4 7 -1.1551 -0.0224
-16 4 8 -0.2376 -0.0144
-16 4 9 1.8393 -0.0116
-16 5 3 0.2171 0.0391
-16 5 4 2.0981 0.0249
-16 5 5 2.6666 -0.0575
-16 5 6 1.2180 0.0537
-16 5 7 -0.2571 0.0324
-16 5 8 0.0125 -0.0828
-16 5 9 1.2755 -0.0192
-16 6 3 0.3305 -0.0051
-16 6 4 1.2130 -0.0064
-16 6 5 1.7276 -0.1061
-16 6 6 0.2089 0.0501
-16 6 7 -0.3384 0.0134
-16 6 8 0.4075 -0.1340
-16 7 3 1.5006 -0.0420
-16 7 4 0.9291 -0.0246
-16 7 5 1.0260 -0.0257
-16 7 6 0.5633 0.0337
-16 8 5 0.0175 0.0439
-15 -3 6 1.4385 0.0816
-15 -3 7 1.4963 -0.0137
-15 -3 8 -0.1317 -0.1463
-15 -3 9 0.7932 -0.0818
-15 -3 10 1.9601 0.0512
-15 -3 11 0.1150 0.1801
-15 -2 4 -0.4953 -0.0926
-15 -2 5 0.1172 -0.0241
-15 -2 6 1.8033 0.0881
-15 -2 7 1.2304 0.0148
-15 -2 8 0.2975 -0.1179
-15 -2 9 1.6360 -0.0892
-15 -2 10 1.9369 0.0269
-15 -2 11 0.1795 0.1141
-15 -2 12 -1.1930 0.0810
-15 -1 3 -0.9860 0.0103
-15 -1 4 -0.0295 -0.1025
-15 -1 5 1.2469 -0.0404
-15 -1 6 0.7016 0.0521
-15 -1 7 -0.7292 0.0108
-15 -1 8 -0.3052 -0.0385
-15 -1 9 0.2717 -0.0548
-15 -1 10 -0.2368 -0.0155
-15 0 2 -0.9383 0.0615
-15 0 3 -1.9871 0.0561
-15 0 4 0.8673 -0.0958
-15 0 5 2.6816 -0.0287
-15 0 6 0.6339 -0.0228
-15 0 7 -0.8547 -0.0094
-15 0 8 -0.9073 0.0676
-15 0 9 -1.6157 0.0106
-15 0 10 -1.4747 -0.0329
-15 0 11 -0.0289 -0.0435
-15 0 12 0.3870 -0.0549
-15 1 1 0.0222 -0.1111
-15 1 2 -1.4399 0.0414
-15 1 3 -2.2558 -0.0020
-15 1 4 0.2211 -0.0206
-15 1 5 1.8403 0.0201
-15 1 6 1.0898 -0.0746
-15 1 7 1.2081 -0.0213
-15 1 8 0.4839 0.0876
-15 1 9 -1.2682 0.0325
-15 1 10 -0.7312 0.0007
-15 1 11 0.3952 -0.0081
-15 1 12 0.3078 -0.0485
-15 1 13 0.1052 -0.0514
-15 2 1 -1.3605 0.1226
-15 2 2 -1.7171 -0.0098
-15 2 3 -1.1424 -0.0569
-15 2 4 -0.9470 0.0569
-15 2 5 -0.3283 0.0255
-15 2 6 0.6936 -0.0500
-15 2 7 1.3283 -0.0088
-15 2 8 1.2901 0.0048
-15 2 9 0.6800 -0.0114
-15 2 10 0.2486 0.0257
-15 2 11 0.1643 0.0566
-15 2 12 0.2476 -0.0005
-15 2 13 0.5729 -0.0552
-15 3 1 -0.5506 0.2492
-15 3 2 -0.8518 -0.0663
-15 3 3 0.0563 -0.0212
-15 3 4 -0.4016 0.0566
-15 3 5 -0.1816 -0.0313
-15 3 6 1.0483 0.0309
-15 3 7 0.4059 0.0337
-15 3 8 0.0556 -0.0424
-15 3 9 1.1669 -0.0249
-15 3 10 0.6991 -0.0044
-15 3 11 -0.5074 0.0368
-15 3 12 -0.2715 0.0266
-15 3 13 0.4094 -0.0418
-15 4 1 0.5122 0.2012
-15 4 2 0.3329 -0.0848
-15 4 3 -0.5572 0.0304
-15 4 4 0.0256 0.0110
-15 4 5 0.7273 -0.0802
-15 4 6 1.2125 0.0684
-15 4 7 0.9049 0.0547
-15 4 8 -0.4295 -0.0290
-15 4 9 -0.1793 0.0110
-15 4 10 0.5652 -0.0325
-15 4 11 -0.3601 -0.0478
-15 4 12 -0.8267 -0.0273
-15 5 1 -0.9098 0.1238
-15 5 2 0.4856 -0.0412
-15 5 3 -1.0122 0.0057
-15 5 4 -0.7532 0.0097
-15 5 5 -0.0949 -0.0561
-15 5 6 0.1029 0.0202
-15 5 7 1.3811 0.0239
-15 5 8 0.6658 -0.0364
-15 5 9 -0.5937 0.0264
-15 5 10 0.2907 0.0271
-15 5 11 0.3871 -0.0243
-15 5 12 -0.3637 -0.0279
-15 6 1 -2.0703 0.0163
-15 6 2 0.3262 0.0284
-15 6 3 0.9990 -0.0511
-15 6 4 -0.5659 0.0285
-15 6 5 -0.5857 0.0272
-15 6 6 0.6763 -0.0135
-15 6 7 1.3761 -0.0090
-15 6 8 1.0182 -0.0549
-15 6 9 0.3530 0.0184
-15 6 10 0.4012 0.1199
-15 6 11 0.7318 0.0833
-15 7 1 -0.9876 -0.1814
-15 7 2 0.2260 0.0689
-15 7 3 2.2245 -0.0328
-15 7 4 -0.0076 -0.0338
-15 7 5 0.0932 0.0570
-15 7 6 2.7458 0.0141
-15 7 7 1.5501 -0.0217
-15 7 8 0.0162 -0.0393
-15 7 9 0.6616 0.0164
-15 7 10 0.5403 0.1185
-15 8 1 1.0954 -0.3145
-15 8 2 0.3570 0.0620
-15 8 3 0.6472 0.0566
-15 8 4 -0.5287 -0.1097
-15 8 5 0.4860 0.0150
-15 8 6 2.6473 0.0333
-15 8 7 0.6242 -0.0247
-15 8 8 -1.2109 0.0254
-15 8 9 0.1553 0.0482
-15 9 1 2.4095 -0.2319
-15 9 2 0.7124 0.0330
-15 9 3 -0.8085 0.1035
-15 9 4 -0.9601 -0.0636
-15 9 5 0.2607 0.0171
-15 9 6 0.5805 0.0275
-15 9 7 -1.3773 -0.0126
-15 10 1 1.6424 -0.0660
-15 10 2 0.5706 0.0085
-15 10 3 -0.3880 0.0871
-15 10 4 -0.5384 0.0520
-15 10 5 -0.1003 0.0478
-15 10 6 -0.4235 0.0246
-15 11 1 0.0915 0.0156
-15 11 2 0.6550 -0.0123
-15 11 3 0.9995 0.0904
-15 11 4 0.0901 0.1327
-14 -6 8 1.3675 -0.0355
-14 -6 9 0.2330 -0.0751
-14 -6 10 1.6569 -0.0367
-14 -6 11 1.4629 0.0295
-14 -5 5 -0.0588 -0.0123
-14 -5 6 1.7488 0.0836
-14 -5 7 2.5321 0.0513
-14 -5 8 1.2336 -0.0618
-14 -5 9 1.0612 -0.0799
-14 -5 10 1.4896 -0.0278
-14 -5 12 -0.0814 0.0263
-14 -5 13 -0.0330 -0.0786
-14 -4 3 -1.5260 0.0653
-14 -4 4 -1.9067 -0.0009
-14 -4 5 -0.4076 -0.0362
-14 -4 6 1.7465 0.0574
-14 -4 7 0.2926 0.0275
-14 -4 8 0.0935 -0.0663
-14 -4 9 2.5507 -0.0723
-14 -4 10 1.9542 -0.0192
-14 -4 11 -0.8629 0.0429
-14 -4 12 -1.9723 0.0359
-14 -4 13 -0.4955 0.0027
-14 -4 14 0.9105 0.0139
-14 -3 2 -0.9111 -0.0237
-14 -3 3 -1.6425 0.0393
-14 -3 4 -2.0753 -0.0611
-14 -3 5 -0.8295 -0.0358
-14 -3 6 0.0923 0.0127
-14 -3 7 -0.7205 0.0019
-14 -3 8 0.7801 -0.0059
-14 -3 9 3.2970 -0.0128
-14 -3 10 2.6354 -0.0056
-14 -3 11 -0.3179 -0.0182
-14 -3 12 -2.6795 -0.0095
-14 -3 13 -1.5947 0.0278
-14 -3 14 0.9193 0.0310
-14 -3 15 0.3492 0.0542
-14 -2 1 0.8552 -0.2127
-14 -2 2 -0.4278 0.0825
-14 -2 3 -0.2920 -0.0045
-14 -2 4 0.3736 -0.0824
-14 -2 5 -0.9043 0.0261
-14 -2 6 -2.6990 -0.0519
-14 -2 7 -1.1358 -0.0456
-14 -2 8 1.8151 0.0598
-14 -2 9 2.0613 0.0475
-14 -2 10 1.0619 0.0243
-14 -2 11 0.3019 -0.0182
-14 -2 12 -1.2102 -0.0323
-14 -2 13 -1.2292 0.0110
-14 -2 14 0.9850 0.0383
-14 -2 15 1.1646 0.0751
-14 -1 1 1.0226 -0.1307
-14 -1 2 -0.0967 0.0926
-14 -1 3 1.2324 -0.0393
-14 -1 4 3.0252 -0.0073
-14 -1 6 -2.6707 -0.0922
-14 -1 7 -0.2487 -0.0546
-14 -1 8 1.5251 0.0714
-14 -1 9 0.2291 0.0441
-14 -1 10 -0.5717 0.0262
-14 -1 11 -0.5483 0.0075
-14 -1 12 -0.5015 -0.0295
-14 -1 13 0.0720 -0.0101
-14 0 1 0.2623 0.0367
-14 0 2 0.5154 -0.0428
-14 0 3 1.5092 -0.0387
-14 0 4 1.8120 0.0860
-14 0 5 -0.5043 0.0355
-14 0 6 -0.8280 -0.0519
-14 0 7 1.7109 -0.0085
-14 0 8 1.2901 0.0288
-14 0 9 -0.2093 0.0028
-14 0 10 0.2393 -0.0012
-14 0 11 -0.3016 0.0052
-14 0 12 -0.8089 -0.0298
-14 0 13 0.5436 -0.0183
-14 0 14 1.1897 -0.0172
-14 0 15 0.6176 -0.1043
-14 1 1 -1.7859 0.1887
-14 1 2 0.0511 -0.1609
-14 1 3 0.8226 -0.0175
-14 1 4 -1.8531 0.0844
-14 1 5 -3.5768 -0.0245
-14 1 6 -1.0319 0.0239
-14 1 7 1.5741 0.0334
-14 1 8 0.8535 -0.0194
-14 1 9 0.4252 -0.0251
-14 1 10 1.6655 -0.0169
-14 1 11 1.0713 0.0173
-14 1 12 -0.3170 0.0104
-14 1 13 0.4524 0.0130
-14 1 14 1.2450 0.0160
-14 1 15 0.4481 -0.0723
-14 2 1 -0.8363 0.2229
-14 2 2 -0.3130 -0.1481
-14 2 3 0.6847 -0.0047
-14 2 4 -1.9368 0.0382
-14 2 5 -3.5915 -0.0569
-14 2 6 -0.3568 0.0360
-14 2 7 1.1426 0.0459
-14 2 8 -0.5172 -0.0206
-14 2 9 0.1885 -0.0239
-14 2 10 1.9225 -0.0237
-14 2 11 1.4978 0.0161
-14 2 12 0.4261 0.0393
-14 2 13 0.2508 0.0171
-14 2 14 0.8242 0.0262
-14 2 15 0.5755 0.0093
-14 3 1 2.7974 0.1936
-14 3 2 0.7100 -0.0567
-14 3 3 -0.2761 -0.0033
-14 3 4 -0.3888 0.0497
-14 3 5 -0.6565 -0.0609
-14 3 6 2.1924 -0.0150
-14 3 7 2.6523 0.0505
-14 3 8 -1.2683 -0.0106
-14 3 9 -1.3940 -0.0121
-14 3 10 1.0401 -0.0126
-14 3 11 1.1831 -0.0328
-14 3 12 0.6049 -0.0101
-14 3 13 -0.1797 -0.0383
-14 3 14 -0.1658 -0.0644
-14 4 1 3.1110 0.1252
-14 4 2 1.3171 0.0108
-14 4 3 -2.3319 -0.0019
-14 4 4 -2.2538 0.0767
-14 4 5 -0.2837 -0.0598
-14 4 6 2.1051 -0.0368
-14 4 7 2.3970 0.0600
-14 4 8 -0.5949 -0.0365
-14 4 9 -1.6346 -0.0094
-14 4 10 0.1290 0.0432
-14 4 11 1.0881 -0.0296
-14 4 12 0.8973 -0.0083
-14 4 13 -0.1106 0.0019
-14 4 14 -0.5223 -0.0706
-14 5 1 0.3339 -0.0749
-14 5 2 0.1312 0.0491
-14 5 3 -2.5741 0.0097
-14 5 4 -4.0455 0.0249
-14 5 5 -1.3819 -0.0201
-14 5 6 0.2400 0.0082
-14 5 7 -0.3273 0.0457
-14 5 8 0.1117 -0.0536
-14 5 9 0.5306 -0.0161
-14 5 10 0.3760 0.0615
-14 5 11 0.8177 0.0043
-14 5 12 1.0164 0.0531
-14 5 13 0.4086 0.1051
-14 6 1 -1.2225 -0.3569
-14 6 2 -2.2797 0.1030
-14 6 3 -2.0317 0.0395
-14 6 5 -0.8823 0.0491
-14 6 6 0.0391 0.0423
-14 6 7 -1.2203 -0.0226
-14 6 8 0.3024 -0.0258
-14 6 9 2.2753 -0.0188
-14 6 10 1.1632 -0.0076
-14 6 11 0.0266 -0.0323
-14 6 12 0.4012 0.0145
-14 6 13 0.5906 0.0608
-14 7 1 -0.4505 -0.4574
-14 7 2 -3.0175 0.1184
-14 7 4 -0.6136 -0.1313
-14 7 5 0.0478 0.0696
-14 7 6 0.4189 0.0116
-14 7 7 -0.0725 -0.0817
-14 7 8 0.5662 0.0278
-14 7 9 2.4188 0.0148
-14 7 10 1.5709 -0.0155
-14 7 11 -0.6405 0.0004
-14 7 12 -0.2425 -0.0119
-14 8 1 0.6647 -0.2338
-14 8 2 -0.7819 0.0366
-14 8 3 -1.0737 0.0315
-14 8 4 0.3097 -0.0657
-14 8 5 0.3247 0.0341
-14 8 6 -0.0116 -0.0216
-14 8 7 -0.1520 -0.0654
-14 8 8 0.3321 0.0469
-14 8 9 2.1123 0.0490
-14 8 10 1.7053 0.0647
-14 8 11 -0.6865 0.1232
-14 9 1 -0.0643 0.1049
-14 9 2 1.2143 -0.0500
-14 9 3 1.1221 -0.0396
-14 9 4 0.8209 -0.0022
-14 9 5 0.4932 -0.0168
-14 9 6 -0.3389 -0.0011
-14 9 7 -0.9808 -0.0019
-14 9 8 0.0640 0.0009
-14 9 9 1.9102 0.0251
-14 9 10 1.5544 0.0837
-14 10 1 -1.2070 0.2731
-14 10 2 1.6857 -0.0488
-14 10 3 2.0850 -0.0483
-14 10 4 1.1179 0.0228
-14 10 5 0.5718 -0.0513
-14 10 6 -0.5161 0.0274
-14 10 7 -0.6479 0.0728
-14 10 8 1.1219 -0.0051
-14 10 9 1.9236 0.0239
-14 11 1 -0.8032 0.2491
-14 11 2 1.7853 -0.0070
-14 11 3 1.7415 -0.0143
-14 11 4 0.7548 0.0605
-14 11 5 -0.2835 -0.0327
-14 11 6 -1.4959 0.0028
-14 11 7 -0.3869 0.0920
-14 11 8 1.7806 0.0500
-14 12 1 0.2160 0.1638
-14 12 2 1.2901 0.0376
-14 12 3 0.9744 -0.0063
-14 12 4 0.0811 0.0640
-14 12 5 -1.3871 0.0146
-14 12 6 -2.1079 -0.0251
-14 13 1 1.0427 0.0634
-14 13 2 0.7335 0.0763
-14 13 3 0.3822 0.0272
-13 -8 8 0.0276 -0.0699
-13 -8 9 0.6282 -0.0642
-13 -8 10 -0.3067 -0.0094
-13 -8 11 -0.4198 0.0922
-13 -8 12 0.1336 0.1189
-13 -7 5 0.6215 -0.1281
-13 -7 6 1.0331 -0.0191
-13 -7 7 0.4187 0.0337
-13 -7 8 0.8153 -0.0231
-13 -7 9 0.7661 -0.0405
-13 -7 10 0.0909 -0.0022
-13 -7 12 1.5717 0.0395
-13 -7 13 0.8536 -0.0149
-13 -7 14 1.0002 0.0102
-13 -6 3 -2.3861 0.0538
-13 -6 4 -2.3727 -0.0139
-13 -6 6 0.0218 0.0007
-13 -6 7 -0.0552 0.0310
-13 -6 8 1.8117 -0.0101
-13 -6 9 0.6418 -0.0069
-13 -6 10 -1.1709 0.0091
-13 -6 11 0.9725 0.0098
-13 -6 12 2.1657 0.0069
-13 -6 13 1.4305 -0.0018
-13 -6 14 1.0503 0.0296
-13 -6 15 0.1600 0.0971
-13 -5 1 0.3405 -0.1747
-13 -5 2 -1.1441 -0.0147
-13 -5 3 -3.5395 0.0540
-13 -5 4 -3.7605 -0.0354
-13 -5 5 -1.0872 -0.0244
-13 -5 6 -0.9352 0.0243
-13 -5 7 -1.1416 0.0086
-13 -5 8 1.3515 -0.0079
-13 -5 9 0.9034 0.0123
-13 -5 10 -1.2884 -0.0056
-13 -5 11 -0.6695 -0.0380
-13 -5 12 0.1020 0.0125
-13 -5 13 0.1852 0.0223
-13 -5 14 0.2734 0.0168
-13 -5 15 -0.8412 0.0940
-13 -5 16 -1.3492 0.0888
-13 -4 1 2.5862 -0.1762
-13 -4 2 0.8268 0.0872
-13 -4 3 -2.3020 0.0088
-13 -4 4 -2.4899 -0.0499
-13 -4 5 -0.9436 0.0296
-13 -4 6 -0.8793 -0.0142
-13 -4 7 -0.5916 -0.0169
-13 -4 8 0.6032 0.0233
-13 -4 9 0.9188 0.0226
-13 -4 10 0.9130 -0.0096
-13 -4 11 0.4346 -0.0435
-13 -4 12 -1.3830 -0.0072
-13 -4 13 -1.7222 -0.0031
-13 -4 14 -0.2102 -0.0149
-13 -4 15 -1.0273 0.0285
-13 -4 16 -2.4159 0.0316
-13 -3 1 3.3583 -0.0797
-13 -3 2 1.2743 0.1170
-13 -3 3 -1.0859 -0.0570
-13 -3 4 -0.1327 -0.0241
-13 -3 5 -0.5378 0.0710
-13 -3 6 -1.8267 -0.0366
-13 -3 7 -0.7435 -0.0321
-13 -3 8 -0.0360 0.0244
-13 -3 9 -0.0499 0.0140
-13 -3 10 1.2442 0.0284
-13 -3 12 -0.4012 -0.0224
-13 -3 13 -1.6888 -0.0249
-13 -3 14 -0.0972 -0.0044
-13 -3 15 -0.0431 -0.0076
-13 -3 16 -1.4960 0.0164
-13 -2 1 2.8062 0.0056
-13 -2 2 -0.1156 0.0109
-13 -2 3 -1.0803 -0.0585
-13 -2 4 2.3441 -0.0032
-13 -2 5 1.6312 0.0596
-13 -2 6 -1.5695 0.0150
-13 -2 7 -1.4379 -0.0239
-13 -2 8 -0.7036 -0.0175
-13 -2 9 -0.7030 -0.0196
-13 -2 10 -0.3322 0.0315
-13 -2 11 -0.1287 0.0541
-13 -2 12 -0.1953 -0.0224
-13 -2 13 -0.2487 -0.0190
-13 -2 14 0.0680 0.0003
-13 -2 15 0.2309 -0.0427
-13 -2 16 -0.1164 0.0014
-13 -2 17 0.2110 0.0269
-13 -1 1 1.9618 0.0882
-13 -1 2 -0.8918 -0.0934
-13 -1 3 -1.4795 -0.0005
-13 -1 4 2.7148 -0.0022
-13 -1 5 3.0334 0.0040
-13 -1 6 0.1326 0.0545
-13 -1 7 -0.7337 -0.0022
-13 -1 8 -0.9729 -0.0209
-13 -1 9 -0.8186 -0.0231
-13 -1 10 -0.5176 -0.0154
-13 -1 11 -1.5571 0.0090
-13 -1 12 -1.3638 -0.0142
-13 -1 13 0.2443 0.0061
-13 -1 14 0.3494 -0.0061
-13 -1 15 -0.1706 -0.0656
-13 0 1 -0.2424 0.2210
-13 0 2 -1.6686 -0.0892
-13 0 3 -1.5049 0.0161
-13 0 4 -0.2223 0.0186
-13 0 5 -0.5397 -0.0487
-13 0 6 -0.9593 0.0090
-13 0 7 -0.7003 0.0193
-13 0 8 -1.1942 0.0113
-13 0 9 -1.1071 0.0067
-13 0 10 0.0484 -0.0300
-13 0 11 -0.1193 -0.0242
-13 0 12 -0.9125 0.0191
-13 0 13 -0.0877 0.0424
-13 0 14 0.8827 0.0312
-13 0 15 0.2696 0.0132
-13 0 16 0.1801 0.0065
-13 1 1 -0.6262 0.3262
-13 1 2 -2.0035 -0.0539
-13 1 3 -0.0493 -0.0175
-13 1 4 -1.3741 0.0889
-13 1 5 -3.4530 -0.0698
-13 1 7 -0.4679 0.0448
-13 1 8 -0.8584 0.0003
-13 1 9 -0.8277 0.0087
-13 1 10 -0.1274 -0.0083
-13 1 11 0.9369 -0.0329
-13 1 12 0.6105 0.0301
-13 1 13 -0.1759 0.0247
-13 1 14 0.9157 0.0166
-13 1 15 1.0251 0.0673
-13 1 16 0.0726 0.0475
-13 2 1 1.6443 0.2800
-13 2 2 -0.5192 -0.0498
-13 2 3 0.4351 -0.0203
-13 2 4 -0.1512 0.1334
-13 2 5 -0.9329 -0.0588
-13 2 7 2.4191 0.0535
-13 2 8 1.0838 -0.0547
-13 2 9 -0.1304 -0.0026
-13 2 10 -0.7038 0.0168
-13 2 11 0.2468 -0.0533
-13 2 12 0.9866 0.0039
-13 2 13 0.1089 -0.0224
-13 2 14 0.3794 -0.0718
-13 2 15 1.0374 0.0023
-13 2 16 0.1263 -0.0109
-13 3 1 1.3136 0.0418
-13 3 2 1.6162 -0.0236
-13 3 3 -1.1833 0.0036
-13 3 4 -1.0990 0.0469
-13 3 5 1.8964 -0.0307
-13 3 6 3.6189 0.0278
-13 3 7 4.3012 0.0271
-13 3 8 3.3444 -0.0718
-13 3 9 0.5015 0.0184
-13 3 10 -0.9531 0.0527
-13 3 11 -0.1347 -0.0270
-13 3 12 0.9591 0.0300
-13 3 13 0.9735 0.0197
-13 3 14 0.4795 -0.0547
-13 3 15 0.7787 0.0113
-13 3 16 0.7248 0.0124
-13 4 1 -1.3378 -0.2700
-13 4 2 2.2947 0.0567
-13 4 3 -0.5735 -0.0071
-13 4 4 -1.7471 -0.0992
-13 4 5 1.8759 0.0193
-13 4 6 2.4970 0.0401
-13 4 7 2.5366 -0.0108
-13 4 8 3.2646 -0.0127
-13 4 9 1.2244 0.0323
-13 4 10 -0.3453 0.0440
-13 4 11 0.1192 0.0116
-13 4 12 0.9155 0.0515
-13 4 13 1.4598 0.0486
-13 4 14 0.8385 0.0008
-13 4 15 0.3757 0.0637
-13 5 1 -2.3321 -0.4437
-13 5 2 -0.2168 0.1198
-13 5 3 1.2141 -0.0242
-13 5 4 0.0454 -0.1483
-13 5 5 0.3420 0.0687
-13 5 6 0.9702 -0.0041
-13 5 7 0.8272 -0.0441
-13 5 8 1.1462 0.0512
-13 5 9 1.1816 0.0079
-13 5 10 0.4778 -0.0291
-13 5 11 -0.0626 -0.0236
-13 5 12 0.2119 -0.0297
-13 5 13 0.5972 -0.0441
-13 5 14 0.2127 -0.0671
-13 5 15 -0.3388 -0.0326
-13 6 1 -1.7529 -0.3748
-13 6 3 0.4513 0.0253
-13 6 4 0.4033 -0.0814
-13 6 5 -1.6271 0.0581
-13 6 6 0.2846 -0.0258
-13 6 7 1.3689 -0.0535
-13 6 8 0.1832 0.0605
-13 6 9 0.6613 0.0022
-13 6 10 0.7706 -0.0468
-13 6 11 -0.2966 -0.0243
-13 6 12 -0.3328 -0.0503
-13 6 13 -0.2324 -0.0500
-13 6 14 -0.4181 -0.0706
-13 7 1 -1.2275 -0.1164
-13 7 3 0.0646 0.0960
-13 7 4 -0.8227 0.0118
-13 7 5 -2.0572 0.0081
-13 7 6 0.2151 0.0058
-13 7 7 1.6745 -0.0311
-13 7 8 0.6565 0.0307
-13 7 9 0.7311 0.0119
-13 7 10 0.9976 -0.0214
-13 7 11 0.1515 0.0287
-13 7 12 -0.4196 0.0374
-13 7 13 -0.4426 0.0431
-13 8 2 1.8598 -0.0548
-13 8 3 1.2639 0.0742
-13 8 4 -0.3942 0.0555
-13 8 5 0.0227 -0.0143
-13 8 6 0.9028 0.0303
-13 8 7 1.0649 -0.0098
-13 8 8 0.8265 -0.0118
-13 8 9 0.7190 -0.0087
-13 8 10 1.3480 -0.0447
-13 8 11 1.1462 0.0134
-13 8 12 -0.3475 0.0543
-13 9 1 -0.6943 0.3443
-13 9 2 1.5969 -0.0181
-13 9 3 0.9915 -0.0196
-13 9 4 1.4046 0.0639
-13 9 5 2.2796 -0.0135
-13 9 6 1.2943 0.0080
-13 9 7 1.2243 0.0161
-13 9 8 1.3065 -0.0196
-13 9 9 0.3838 -0.0024
-13 9 10 1.1542 -0.0080
-13 9 11 1.6822 0.0331
-13 10 1 0.1628 0.2979
-13 10 2 -0.0486 -0.0308
-13 10 3 -0.4363 -0.0912
-13 10 4 2.0316 0.0726
-13 10 5 1.9359 -0.0154
-13 10 6 -0.0504 -0.0356
-13 10 7 1.1959 0.0331
-13 10 8 1.8915 -0.0094
-13 10 9 0.3423 0.0147
-13 10 10 0.4529 0.0785
-13 11 1 -0.1322 0.1444
-13 11 2 -0.8040 -0.0617
-13 11 3 -0.4650 -0.1070
-13 11 4 1.5175 0.0269
-13 11 5 0.0843 -0.0145
-13 11 6 -1.5034 -0.0333
-13 11 7 0.3122 0.0015
-13 11 8 1.2552 -0.0600
-13 11 9 0.3545 -0.0437
-13 12 1 0.1763 -0.0151
-13 12 2 0.1618 -0.0079
-13 12 3 0.7998 -0.0416
-13 12 4 1.3668 -0.0724
-13 12 5 -0.1757 -0.0265
-13 12 6 -0.6712 0.0407
-13 12 7 0.2685 -0.0052
-13 12 8 0.2710 -0.1115
-13 13 1 1.4319 -0.1312
-13 13 2 1.7262 0.0338
-13 13 3 0.9989 0.0600
-13 13 4 0.6462 -0.0911
-13 13 5 0.5297 -0.0581
-13 13 6 0.8744 0.0777
-13 14 1 1.2219 -0.1306
-13 14 2 1.7346 -0.0107
-13 14 3 0.0022 0.0862
-13 14 4 -0.7702 -0.0035
-12 -9 6 1.4897 0.0010
-12 -9 7 -0.1673 0.0189
-12 -9 8 0.0136 0.0138
-12 -9 9 -0.8600 -0.0195
-12 -9 10 -1.2603 -0.0501
-12 -9 12 0.5425 0.0306
-12 -9 13 -0.9548 0.0301
-12 -9 14 -0.4371 0.0834
-12 -8 3 -0.4677 0.0468
-12 -8 4 -0.7014 0.0366
-12 -8 5 1.6091 -0.0634
-12 -8 6 0.6111 -0.0205
-12 -8 7 -0.8096 0.0406
-12 -8 8 0.2700 0.0050
-12 -8 9 -0.9695 -0.0173
-12 -8 10 -1.6086 -0.0235
-12 -8 11 0.3921 -0.0215
-12 -8 12 0.3849 0.0043
-12 -8 13 -0.2358 -0.0090
-12 -8 14 0.4474 0.0282
-12 -8 15 1.1762 0.1142
-12 -7 2 -0.1706 -0.0125
-12 -7 3 -1.6928 0.0342
-12 -7 4 -0.8463 0.0011
-12 -7 5 -1.1720 -0.0428
-12 -7 6 -3.9560 -0.0146
-12 -7 7 -1.9740 0.0164
-12 -7 8 0.6479 0.0102
-12 -7 9 -1.9554 0.0291
-12 -7 10 -2.7894 0.0095
-12 -7 11 -0.6183 -0.0187
-12 -7 12 -0.2945 0.0022
-12 -7 13 -0.3548 -0.0411
-12 -7 14 0.9714 -0.0152
-12 -7 15 2.1414 0.0902
-12 -7 16 1.6874 0.0788
-12 -6 1 0.7215 -0.0569
-12 -6 2 -0.7414 0.0506
-12 -6 3 -0.6204 -0.0335
-12 -6 4 0.3687 -0.0450
-12 -6 5 -3.7469 0.0241
-12 -6 6 -7.1788 0.0019
-12 -6 7 -2.8288 -0.0175
-12 -6 8 0.8622 -0.0025
-12 -6 9 -0.8978 0.0266
-12 -6 10 -1.9268 0.0133
-12 -6 11 -1.4114 0.0004
-12 -6 12 -1.9765 0.0154
-12 -6 13 -1.3260 -0.0312
-12 -6 14 1.2370 -0.0199
-12 -6 15 1.7200 0.0365
-12 -6 16 0.1710 0.0287
-12 -6 17 -0.1100 0.0880
-12 -5 1 1.4217 -0.0790
-12 -5 2 -0.1079 0.0810
-12 -5 3 1.9035 -0.0404
-12 -5 4 3.0262 -0.0160
-12 -5 5 -2.6490 0.0631
-12 -5 6 -5.3350 -0.0018
-12 -5 7 -1.7376 -0.0323
-12 -5 8 0.6452 -0.0214
-12 -5 9 1.4458 -0.0184
-12 -5 10 2.0781 0.0007
-12 -5 11 0.0731 0.0117
-12 -5 12 -3.0756 0.0036
-12 -5 13 -2.0552 0.0041
-12 -5 14 1.6718 -0.0010
-12 -5 15 1.3053 -0.0357
-12 -5 16 -1.3937 -0.0377
-12 -5 17 -0.9719 0.0182
-12 -4 1 0.5171 -0.0968
-12 -4 2 -2.4160 0.0472
-12 -4 3 -0.2312 0.0129
-12 -4 4 2.7544 0.0061
-12 -4 5 -0.9138 0.0643
-12 -4 6 -3.3511 0.0092
-12 -4 7 -1.6549 -0.0368
-12 -4 8 -0.0818 -0.0109
-12 -4 9 2.3774 -0.0231
-12 -4 10 4.0538 0.0035
-12 -4 12 -1.9322 -0.0136
-12 -4 13 -1.5063 0.0318
-12 -4 14 1.3189 0.0259
-12 -4 16 -1.0177 -0.0237
-12 -4 17 -1.3743 -0.0030
-12 -4 18 0.1030 -0.0212
-12 -3 1 -1.0423 -0.1091
-12 -3 2 -7.5351 -0.0166
-12 -3 3 -6.3167 0.0350
-12 -3 4 0.4628 -0.0405
-12 -3 5 0.9331 0.0355
-12 -3 6 -2.6107 0.0285
-12 -3 7 -3.0178 -0.0296
-12 -3 8 -0.1409 0.0221
-12 -3 9 2.9373 -0.0029
-12 -3 10 2.3432 -0.0128
-12 -3 11 -0.4832 0.0066
-12 -3 12 -0.9765 -0.0215
-12 -3 13 -0.5449 0.0110
-12 -3 14 -0.3148 0.0111
-12 -3 15 0.4746 -0.0233
-12 -3 16 -0.1137 0.0092
-12 -3 17 -0.9785 -0.0038
-12 -3 18 -0.5484 -0.0492
-12 -2 1 -0.5652 0.0112
-12 -2 2 -9.3022 -0.0584
-12 -2 3 -9.6457 0.0160
-12 -2 4 -0.4506 -0.0285
-12 -2 5 3.5530 -0.0199
-12 -2 6 -0.5989 -0.0066
-12 -2 7 -2.4346 -0.0000
-12 -2 8 1.0301 0.0473
-12 -2 9 3.2425 0.0099
-12 -2 10 0.5153 -0.0377
-12 -2 11 -2.4032 -0.0181
-12 -2 12 -1.5084 -0.0119
-12 -2 13 -0.6026 -0.0137
-12 -2 14 -1.2699 -0.0067
-12 -2 15 -0.8580 -0.0024
-12 -2 16 0.0513 0.0048
-12 -2 17 0.0078 -0.0161
-12 -2 18 -0.5655 -0.0387
-12 -1 1 1.6578 0.2379
-12 -1 2 -4.9061 -0.0936
-12 -1 3 -7.2428 -0.0019
-12 -1 4 -0.9148 0.0837
-12 -1 5 3.1571 -0.0844
-12 -1 6 -0.1104 -0.0577
-12 -1 7 -1.0421 0.0408
-12 -1 8 1.9564 0.0233
-12 -1 9 1.5272 0.0249
-12 -1 10 -0.6301 -0.0045
-12 -1 11 -0.6894 -0.0165
-12 -1 12 -0.7946 0.0156
-12 -1 13 -0.9955 0.0041
-12 -1 14 -0.4811 0.0189
-12 -1 15 -0.3176 0.0408
-12 -1 16 0.4559 0.0171
-12 0 1 6.8224 0.3293
-12 0 2 3.5274 -0.1231
-12 0 3 -0.6148 -0.0015
-12 0 4 -0.0538 0.1390
-12 0 5 0.6394 -0.1123
-12 0 6 -1.7085 -0.0281
-12 0 7 -0.5837 0.0699
-12 0 8 2.1385 -0.0451
-12 0 9 -0.2342 0.0214
-12 0 10 -1.4623 0.0457
-12 0 11 1.2561 -0.0104
-12 0 12 0.8805 0.0234
-12 0 13 -0.8717 0.0024
-12 0 14 -0.0236 -0.0047
-12 0 15 0.7422 0.0353
-12 0 16 0.9144 0.0010
-12 1 1 11.6722 0.1727
-12 1 2 9.8508 -0.0666
-12 1 3 3.1867 -0.0013
-12 1 4 0.8040 0.0503
-12 1 5 -0.5838 -0.0643
-12 1 6 -2.2395 0.0429
-12 1 7 0.1891 0.0552
-12 1 8 2.1693 -0.0825
-12 1 9 -0.0587 -0.0058
-12 1 10 -0.9722 0.0368
-12 1 11 0.5560 -0.0276
-12 1 12 0.7697 0.0131
-12 1 13 -0.3492 -0.0175
-12 1 14 -0.6099 -0.0634
-12 1 15 0.6166 -0.0092
-12 1 16 1.0372 -0.0529
-12 2 1 7.7969 -0.1114
-12 2 2 9.8688 0.0700
-12 2 3 0.7223 -0.0194
-12 2 4 -2.3920 -0.0766
-12 2 5 -1.7812 0.0192
-12 2 6 -1.9707 0.0456
-12 2 7 0.5699 0.0011
-12 2 8 1.8367 -0.0483
-12 2 9 0.7255 -0.0153
-12 2 10 0.2801 0.0101
-12 2 11 -0.5841 -0.0208
-12 2 12 -0.1315 0.0228
-12 2 13 0.8622 0.0112
-12 2 14 -0.0482 -0.0230
-12 2 15 0.6267 0.0306
-12 2 16 1.7113 -0.0127
-12 2 17 0.2235 -0.0431
-12 3 1 -1.5263 -0.3493
-12 3 2 7.1743 0.1479
-12 3 3 0.0382 -0.0155
-12 3 4 -5.0467 -0.1031
-12 3 5 -2.6096 0.0713
-12 3 6 -1.3149 0.0009
-12 3 7 -0.7066 -0.0354
-12 3 8 0.2880 0.0115
-12 3 9 0.8961 -0.0029
-12 3 10 0.8969 0.0050
-12 3 11 -0.6062 0.0092
-12 3 12 -0.4254 0.0090
-12 3 13 1.5545 0.0082
-12 3 14 1.4078 0.0153
-12 3 15 1.1047 0.0494
-12 3 16 1.8748 0.0364
-12 4 1 -5.4493 -0.4323
-12 4 2 4.4134 0.1089
-12 4 3 3.0490 0.0446
-12 4 4 -2.7352 -0.0545
-12 4 5 -1.8167 0.0842
-12 4 6 -0.2066 -0.0009
-12 4 7 -2.0047 -0.0519
-12 4 8 -1.9649 0.0318
-12 4 9 0.1871 0.0055
-12 4 10 1.0205 -0.0070
-12 4 11 0.1985 0.0099
-12 4 12 -0.4272 -0.0389
-12 4 13 0.5598 -0.0498
-12 4 14 1.5498 -0.0346
-12 4 15 1.0309 -0.0231
-12 4 16 0.5073 -0.0094
-12 5 1 -2.4490 -0.3417
-12 5 2 1.8791 0.0392
-12 5 3 2.5384 0.1025
-12 5 4 -0.3058 -0.0476
-12 5 5 -1.0040 0.0712
-12 5 6 -0.2871 0.0383
-12 5 7 -1.6461 -0.0702
-12 5 8 -2.2470 0.0221
-12 5 9 -0.5512 0.0182
-12 5 10 1.4291 -0.0138
-12 5 11 1.8520 0.0169
-12 5 12 0.4359 -0.0148
-12 5 13 -0.0428 -0.0088
-12 5 14 0.9810 0.0159
-12 5 15 0.7716 0.0378
-12 6 1 1.3673 -0.1006
-12 6 2 1.7388 0.0007
-12 6 3 -0.4273 0.0756
-12 6 4 -0.4790 -0.0608
-12 6 5 -0.6166 0.0306
-12 6 6 -1.2636 0.0379
-12 6 7 -0.6768 -0.0537
-12 6 8 -0.6843 0.0325
-12 6 9 -0.6318 0.0192
-12 6 10 2.0246 -0.0289
-12 6 11 3.3520 0.0288
-12 6 12 1.3813 0.0342
-12 6 13 0.3892 0.0494
-12 6 14 0.7285 0.1083
-12 6 15 0.4356 0.1496
-12 7 1 2.2328 0.2120
-12 7 2 2.0235 -0.0281
-12 7 3 -1.3520 -0.0319
-12 7 4 -0.7763 -0.0128
-12 7 5 -0.1997 -0.0317
-12 7 6 -1.0430 -0.0264
-12 7 7 0.1227 0.0004
-12 7 8 -0.3293 0.0403
-12 7 9 -1.1508 -0.0163
-12 7 10 2.2822 -0.0639
-12 7 11 3.8837 0.0036
-12 7 12 1.2307 -0.0026
-12 7 13 0.0552 -0.0292
-12 7 14 0.1010 0.0429
-12 8 1 2.6099 0.3973
-12 8 2 0.4665 -0.0558
-12 8 3 -1.6531 -0.1014
-12 8 4 -0.7267 0.0624
-12 8 5 -0.4811 -0.0796
-12 8 6 0.0581 -0.0643
-12 8 7 1.3211 0.0565
-12 8 8 -0.8848 0.0142
-12 8 9 -2.0829 -0.0317
-12 8 10 1.7740 -0.0157
-12 8 11 3.4734 0.0237
-12 8 12 0.9866 -0.0197
-12 8 13 -0.3683 -0.0640
-12 9 1 3.7046 0.3078
-12 9 2 -0.3774 -0.0589
-12 9 3 -2.3558 -0.0589
-12 9 4 -1.7004 0.0918
-12 9 5 -1.9115 -0.0668
-12 9 6 -0.2442 -0.0310
-12 9 7 1.3534 0.0772
-12 9 8 -0.8267 -0.0236
-12 9 9 -1.7066 -0.0183
-12 9 10 0.7592 0.0732
-12 9 11 1.7434 0.0477
-12 9 12 0.8093 -0.0202
-12 10 1 2.2038 0.0558
-12 10 2 -0.0948 -0.0188
-12 10 3 -1.7746 0.0030
-12 10 4 -2.4080 0.0480
-12 10 5 -2.7866 0.0009
-12 10 6 -1.3204 0.0089
-12 10 7 -0.3581 0.0292
-12 10 8 -0.5930 -0.0466
-12 10 9 0.1603 -0.0171
-12 10 10 0.5494 0.0468
-12 10 11 0.0320 -0.0499
-12 11 1 -0.3835 -0.1548
-12 11 2 0.0225 0.0453
-12 11 3 0.0561 0.0208
-12 11 4 -0.8434 -0.0351
-12 11 5 -1.1919 0.0506
-12 11 6 -0.6014 0.0337
-12 11 7 -0.9126 -0.0254
-12 11 8 -0.1490 -0.0199
-12 11 9 1.5516 0.0251
-12 11 10 0.8906 -0.0025
-12 12 1 -0.4510 -0.2514
-12 12 2 0.3359 0.0500
-12 12 3 0.7899 0.0404
-12 12 4 0.6173 -0.0688
-12 12 5 0.7481 0.0334
-12 12 6 0.8588 0.0347
-12 12 7 0.2153 -0.0309
-12 12 8 0.5438 0.0442
-12 12 9 1.2522 0.0912
-12 13 1 0.4274 -0.2153
-12 13 2 0.7179 -0.0029
-12 13 3 0.2198 0.0468
-12 13 4 0.0125 -0.0304
-12 13 5 0.5336 0.0195
-12 13 6 0.9740 -0.0091
-12 13 7 1.0262 -0.0476
-12 13 8 0.7957 0.0829
-12 14 1 0.8006 -0.0728
-12 14 2 0.7155 0.0174
-12 14 3 0.2259 0.0074
-12 14 4 -0.2052 -0.0128
-12 14 5 -0.2449 0.0606
-12 14 6 0.4202 -0.0343
-12 15 1 0.8676 0.0335
-12 15 2 0.2702 0.0891
-12 15 3 0.4618 -0.0320
-12 15 4 0.6766 -0.0520
-11 -11 8 -0.8435 0.0139
-11 -11 9 -1.6318 0.0454
-11 -11 10 -0.9108 0.0681
-11 -11 11 -0.1615 0.0444
-11 -11 12 -0.6061 -0.0378
-11 -10 5 0.1668 -0.0639
-11 -10 6 0.3339 -0.0125
-11 -10 7 -0.5314 0.0196
-11 -10 8 0.5443 -0.0032
-11 -10 9 -0.4606 0.0267
-11 -10 10 -1.5119 0.0330
-11 -10 11 -0.2978 -0.0090
-11 -10 12 0.9230 -0.0359
-11 -10 13 1.3434 -0.0522
-11 -10 14 0.3528 0.0349
-11 -10 15 -0.2658 0.1288
-11 -9 2 1.4486 -0.0858
-11 -9 3 -1.1251 -0.0261
-11 -9 4 -1.6988 -0.0340
-11 -9 5 0.1804 -0.0323
-11 -9 7 0.8261 0.0337
-11 -9 8 1.0982 -0.0227
-11 -9 9 0.2945 -0.0054
-11 -9 10 -1.6672 -0.0203
-11 -9 11 -1.6346 -0.0392
-11 -9 12 1.0524 -0.0120
-11 -9 13 1.5668 -0.0340
-11 -9 14 -0.1293 0.0134
-11 -9 15 0.0177 0.0681
-11 -9 16 0.4625 0.0059
-11 -8 1 1.4158 -0.0089
-11 -8 2 0.2855 0.0536
-11 -8 3 0.6819 -0.0033
-11 -8 4 0.3146 -0.0105
-11 -8 5 -2.2733 0.0268
-11 -8 6 -1.1759 0.0210
-11 -8 7 1.8294 0.0084
-11 -8 8 1.0612 -0.0097
-11 -8 9 -0.7187 -0.0069
-11 -8 10 -1.6218 -0.0093
-11 -8 11 -1.2091 0.0028
-11 -8 12 0.8532 0.0138
-11 -8 13 1.1550 -0.0213
-11 -8 14 0.1533 -0.0047
-11 -8 15 0.4737 -0.0044
-11 -8 16 0.7522 -0.0308
-11 -8 17 0.1337 0.0794
-11 -7 1 -0.2163 -0.0110
-11 -7 2 0.1088 0.1067
-11 -7 3 4.7073 -0.0347
-11 -7 4 3.3783 -0.0245
-11 -7 5 -4.1298 0.0450
-11 -7 6 -4.2969 0.0045
-11 -7 7 0.7018 -0.0133
-11 -7 8 0.8934 -0.0125
-11 -7 9 -1.1926 -0.0096
-11 -7 10 -0.8972 0.0292
-11 -7 11 0.6589 0.0404
-11 -7 12 1.3830 0.0049
-11 -7 13 1.2643 -0.0057
-11 -7 14 1.0679 -0.0014
-11 -7 15 0.8929 -0.0407
-11 -7 16 0.9735 -0.0468
-11 -7 17 0.6866 0.0586
-11 -7 18 -0.1557 0.0878
-11 -6 1 -1.3974 -0.0813
-11 -6 2 1.6234 0.0769
-11 -6 3 9.1430 -0.0190
-11 -6 4 7.5381 -0.0544
-11 -6 5 -1.9899 0.0437
-11 -6 6 -3.9860 0.0256
-11 -6 7 -0.2163 -0.0184
-11 -6 8 0.2177 -0.0171
-11 -6 9 -0.4452 -0.0283
-11 -6 10 1.0071 0.0161
-11 -6 11 2.2474 0.0180
-11 -6 12 1.9437 -0.0241
-11 -6 13 1.4702 0.0122
-11 -6 14 1.6072 0.0154
-11 -6 15 1.6595 -0.0312
-11 -6 16 1.0491 -0.0309
-11 -6 17 0.5725 0.0047
-11 -6 18 0.5064 -0.0076
-11 -5 1 -2.7168 -0.1607
-11 -5 2 1.3093 0.0403
-11 -5 4 7.2953 -0.0716
-11 -5 5 -0.4027 0.0500
-11 -5 6 -2.7033 0.0148
-11 -5 7 -0.7865 -0.0297
-11 -5 8 -0.8786 0.0335
-11 -5 9 -0.1636 -0.0043
-11 -5 10 1.9785 -0.0126
-11 -5 13 1.3124 0.0167
-11 -5 14 1.1905 0.0304
-11 -5 15 2.7346 0.0064
-11 -5 16 1.4696 0.0142
-11 -5 17 -0.1272 0.0034
-11 -5 18 0.4371 -0.0408
-11 -4 1 -3.4087 -0.0872
-11 -4 2 -1.2627 0.0086
-11 -4 3 2.3874 -0.0033
-11 -4 4 2.6356 -0.0443
-11 -4 5 -1.1452 0.0245
-11 -4 6 -3.0959 -0.0399
-11 -4 7 -2.1133 -0.0344
-11 -4 8 -0.8980 0.0775
-11 -4 9 0.4714 0.0336
-11 -4 10 1.5588 -0.0169
-11 -4 12 3.4934 -0.0060
-11 -4 13 0.5907 -0.0143
-11 -4 14 -0.2285 0.0102
-11 -4 15 2.0228 0.0119
-11 -4 16 1.1498 0.0271
-11 -4 17 -0.9138 0.0208
-11 -4 18 -0.8293 -0.0300
-11 -4 19 -0.2475 -0.0291
-11 -3 1 -1.7434 0.1569
-11 -3 2 -2.9573 -0.0565
-11 -3 3 -2.7525 0.0010
-11 -3 4 -0.0386 0.0536
-11 -3 5 0.2681 -0.0382
-11 -3 6 -2.4687 -0.0561
-11 -3 7 -2.3076 -0.0056
-11 -3 8 0.4191 0.0339
-11 -3 9 1.5352 0.0206
-11 -3 10 2.0062 -0.0146
-11 -3 11 2.9644 0.0107
-11 -3 12 1.8703 0.0029
-11 -3 13 -0.7018 -0.0297
-11 -3 14 -1.1024 -0.0108
-11 -3 15 -0.0616 -0.0051
-11 -3 16 -0.2637 0.0071
-11 -3 17 -1.2176 0.0161
-11 -3 18 -1.3705 -0.0118
-11 -3 19 -0.6884 -0.0151
-11 -2 1 0.4370 0.3190
-11 -2 2 -2.9681 -0.1417
-11 -2 3 -5.3605 0.0227
-11 -2 4 0.2951 0.1288
-11 -2 5 3.2171 -0.0736
-11 -2 6 -0.8277 0.0000
-11 -2 7 -1.0387 0.0318
-11 -2 8 1.1598 -0.0518
-11 -2 9 0.6248 -0.0060
-11 -2 10 2.5220 0.0014
-11 -2 11 4.0445 -0.0123
-11 -2 12 0.6707 0.0129
-11 -2 13 -1.2684 0.0064
-11 -2 14 -0.3966 -0.0010
-11 -2 15 -0.5399 0.0020
-11 -2 16 -0.9578 0.0010
-11 -2 17 -0.7026 0.0052
-11 -2 18 -0.0647 0.0155
-11 -2 19 0.2435 0.0255
-11 -1 1 4.2929 0.2289
-11 -1 2 -0.1435 -0.1315
-11 -1 3 -3.3118 0.0033
-11 -1 4 2.8729 0.0843
-11 -1 5 5.0050 -0.0506
-11 -1 6 0.2180 0.0547
-11 -1 7 -0.2584 0.0515
-11 -1 8 0.4221 -0.0862
-11 -1 9 -1.1531 -0.0104
-11 -1 10 1.3328 0.0295
-11 -1 11 3.8866 -0.0264
-11 -1 12 1.5254 0.0240
-11 -1 13 -0.5407 0.0282
-11 -1 14 -0.2458 -0.0170
-11 -1 15 -0.2189 0.0016
-11 -1 16 -1.0356 -0.0119
-11 -1 17 -0.6882 -0.0209
-11 0 1 9.7835 0.0161
-11 0 2 3.9117 0.0175
-11 0 3 0.7148 -0.0304
-11 0 4 5.4256 -0.0064
-11 0 5 5.3467 -0.0076
-11 0 6 0.7811 0.0348
-11 0 7 -0.6809 0.0521
-11 0 8 -1.1395 -0.0509
-11 0 9 -1.4347 -0.0187
-11 0 10 -0.1164 0.0250
-11 0 11 1.5300 -0.0274
-11 0 12 2.3608 0.0247
-11 0 13 0.5826 0.0131
-11 0 14 -1.4399 -0.0442
-11 0 15 -0.8617 -0.0017
-11 0 16 -1.1698 -0.0175
-11 1 1 9.5523 -0.1896
-11 1 2 4.5787 0.1474
-11 1 3 -0.1159 -0.0139
-11 1 4 2.8342 -0.0549
-11 1 5 3.9200 0.0124
-11 1 6 0.8951 -0.0154
-11 1 7 -1.3887 0.0228
-11 1 8 -2.0204 0.0027
-11 1 9 -1.2602 -0.0181
-11 1 10 -0.9388 -0.0017
-11 1 11 -0.3083 -0.0196
-11 1 12 2.2049 0.0114
-11 1 13 1.6154 0.0088
-11 1 14 -1.3964 -0.0143
-11 1 15 -0.8901 0.0301
-11 1 16 -0.1985 0.0299
-11 2 1 3.0330 -0.3758
-11 2 2 2.8620 0.1337
-11 2 3 -2.4506 0.0497
-11 2 4 -1.7582 -0.0842
-11 2 5 2.4474 0.0223
-11 2 6 1.4773 -0.0076
-11 2 7 -1.1550 -0.0260
-11 2 8 -1.5936 0.0382
-11 2 9 -1.9165 0.0136
-11 2 10 -2.0678 -0.0055
-11 2 11 -0.9401 0.0036
-11 2 12 0.9022 -0.0113
-11 2 13 1.3619 0.0002
-11 2 14 -0.0206 0.0040
-11 2 15 -0.0003 0.0139
-11 2 16 0.6904 0.0324
-11 2 17 -0.6348 0.0188
-11 3 1 -1.4490 -0.4364
-11 3 2 0.4479 0.0627
-11 3 3 -1.7183 0.0763
-11 3 4 -1.8048 -0.1138
-11 3 5 1.9597 0.0532
-11 3 6 2.0657 0.0249
-11 3 7 -0.1756 -0.0703
-11 3 8 -1.4668 0.0479
-11 3 9 -2.9945 0.0253
-11 3 10 -2.4568 -0.0113
-11 3 11 -0.8150 0.0233
-11 3 12 -0.8317 -0.0187
-11 3 13 -0.2568 -0.0179
-11 3 14 0.7880 -0.0203
-11 3 15 0.7691 -0.0424
-11 3 16 0.0217 -0.0264
-11 3 17 -1.0214 -0.0489
-11 4 1 -0.1221 -0.2393
-11 4 2 -2.3821 0.0315
-11 4 3 -1.5974 0.0139
-11 4 4 0.8601 -0.0963
-11 4 5 1.1864 0.0781
-11 4 6 0.8036 0.0056
-11 4 7 0.5087 -0.0804
-11 4 8 -1.8576 0.0401
-11 4 9 -3.3587 -0.0012
-11 4 10 -0.8696 -0.0296
-11 4 11 0.6257 0.0270
-11 4 12 -0.5639 0.0037
-11 4 13 -0.1179 0.0072
-11 4 14 1.6184 0.0175
-11 4 15 1.7076 0.0061
-11 4 16 -0.1167 0.0184
-11 4 17 -1.3693 -0.0123
-11 5 1 2.8714 0.1321
-11 5 2 -2.5057 -0.0024
-11 5 3 -2.2063 -0.0511
-11 5 4 2.0854 0.0055
-11 5 5 0.5325 0.0417
-11 5 6 -0.8910 -0.0354
-11 5 7 0.1573 -0.0277
-11 5 8 -2.0134 0.0330
-11 5 9 -2.6031 -0.0145
-11 5 10 0.7990 -0.0252
-11 5 11 1.4260 0.0161
-11 5 12 0.5583 -0.0000
-11 5 13 2.0309 0.0172
-11 5 14 2.7955 0.0448
-11 5 15 1.6829 0.0303
-11 5 16 0.3534 0.0590
-11 6 1 1.8816 0.4267
-11 6 2 -1.4302 -0.0711
-11 6 3 -1.2485 -0.0430
-11 6 4 1.2059 0.1149
-11 6 5 0.2274 -0.0394
-11 6 6 -0.5284 -0.0441
-11 6 7 -0.7143 0.0347
-11 6 8 -2.7112 0.0116
-11 6 9 -1.7893 -0.0084
-11 6 10 1.2018 -0.0058
-11 6 11 0.5145 -0.0035
-11 6 12 0.0722 -0.0321
-11 6 13 2.9920 -0.0208
-11 6 14 3.1228 -0.0225
-11 6 15 0.0350 -0.0928
-11 7 1 -0.7920 0.4552
-11 7 2 -1.9361 -0.0869
-11 7 3 -0.6693 -0.0183
-11 7 4 -0.7038 0.1157
-11 7 5 -0.4832 -0.0716
-11 7 6 1.0131 -0.0090
-11 7 7 -0.6043 0.0552
-11 7 8 -3.2141 -0.0262
-11 7 9 -1.5616 -0.0001
-11 7 10 0.7546 0.0304
-11 7 11 -0.3779 0.0076
-11 7 12 -0.5559 0.0002
-11 7 13 2.5188 0.0078
-11 7 14 2.5177 -0.0179
-11 7 15 -1.0873 -0.0927
-11 8 1 -0.1339 0.2311
-11 8 2 -0.9772 -0.0132
-11 8 3 -1.2921 -0.0305
-11 8 4 -2.4871 0.0360
-11 8 5 -1.2273 -0.0258
-11 8 6 0.9958 0.0296
-11 8 7 -0.5331 0.0596
-11 8 8 -2.2889 -0.0449
-11 8 9 -1.0997 -0.0045
-11 8 10 -0.5707 0.0605
-11 8 11 -1.6534 0.0109
-11 8 12 -0.7572 0.0166
-11 8 13 1.9270 0.0226
-11 8 14 1.6314 0.0246
-11 9 1 0.5654 -0.0630
-11 9 2 1.0229 0.0393
-11 9 3 -1.5095 -0.0559
-11 9 4 -2.9158 -0.0180
-11 9 5 -1.0125 0.0188
-11 9 6 -0.4396 0.0052
-11 9 7 -1.6771 0.0315
-11 9 8 -0.6628 -0.0405
-11 9 9 0.5720 -0.0251
-11 9 10 -1.1702 0.0310
-11 9 11 -2.8468 -0.0493
-11 9 12 -1.3005 -0.0808
-11 10 1 -0.9715 -0.2600
-11 10 2 0.3874 0.0203
-11 10 3 -1.0201 -0.0352
-11 10 4 -1.0340 -0.0336
-11 10 5 0.4878 0.0277
-11 10 6 -0.9074 -0.0287
-11 10 7 -1.9402 -0.0260
-11 10 8 0.8774 -0.0124
-11 10 9 2.3212 -0.0104
-11 10 10 -0.1292 -0.0014
-11 10 11 -2.0153 -0.0650
-11 10 12 -1.1869 -0.1163
-11 11 1 -1.2611 -0.3259
-11 11 2 -1.4443 0.0008
-11 11 3 -0.9840 0.0444
-11 11 4 0.9650 -0.0423
-11 11 5 1.4058 0.0315
-11 11 6 -0.7101 -0.0006
-11 11 7 -0.7492 -0.0408
-11 11 8 1.7487 0.0360
-11 11 9 2.2632 0.0118
-11 11 10 0.3915 -0.0198
-11 12 1 -0.0616 -0.2566
-11 12 2 -1.4616 0.0164
-11 12 3 -0.9664 0.0841
-11 12 4 0.8715 -0.0288
-11 12 5 0.4605 0.0403
-11 12 6 -0.8387 0.0004
-11 12 7 0.2763 -0.0274
-11 12 8 1.7142 0.0626
-11 12 9 1.4024 -0.0396
-11 13 1 0.8633 -0.0621
-11 13 2 -0.0974 0.0427
-11 13 3 0.2016 0.0186
-11 13 4 0.3852 0.0092
-11 13 5 -0.5019 0.0445
-11 13 6 -0.4908 -0.0650
-11 13 7 0.6693 -0.0342
-11 13 8 1.1179 0.0540
-11 13 9 0.9507 -0.0953
-11 14 1 0.9523 0.1138
-11 14 2 0.6278 0.0245
-11 14 3 1.0430 -0.0613
-11 14 4 0.3649 0.0356
-11 14 5 -0.3473 0.0123
-11 14 6 0.2093 -0.1029
-11 14 7 0.6175 -0.0248
-11 15 1 -0.0518 0.1635
-11 15 2 0.7098 -0.0442
-11 15 3 0.8962 -0.0564
-11 15 4 0.0095 0.0648
-11 15 5 0.0550 -0.0370
-11 16 1 -1.0663 0.1556
-11 16 2 0.9945 -0.0601
-11 16 3 1.0574 0.0001
-10 -12 7 -1.7770 0.0448
-10 -12 8 -0.0722 -0.0374
-10 -12 9 0.4238 -0.0584
-10 -12 10 1.3759 -0.0375
-10 -12 11 1.5514 -0.0002
-10 -12 12 0.7349 0.0420
-10 -12 13 0.1508 0.0047
-10 -11 4 0.7011 -0.0108
-10 -11 5 -0.0457 -0.0290
-10 -11 6 -2.5067 0.0196
-10 -11 7 -2.6474 0.0096
-10 -11 8 -0.4363 -0.0136
-10 -11 9 -0.1814 -0.0051
-10 -11 10 -0.4852 -0.0141
-10 -11 11 1.3611 0.0177
-10 -11 12 2.1379 0.0444
-10 -11 13 0.0370 -0.0286
-10 -11 14 -0.9592 -0.0568
-10 -11 15 0.0886 -0.0347
-10 -11 16 0.3886 -0.0387
-10 -10 2 0.6078 0.0830
-10 -10 3 1.8298 0.0098
-10 -10 4 0.1325 -0.0313
-10 -10 5 -1.4006 -0.0061
-10 -10 6 -1.0341 0.0100
-10 -10 7 -2.0533 0.0284
-10 -10 8 -1.5018 0.0148
-10 -10 9 -0.2654 -0.0088
-10 -10 10 -1.8647 -0.0185
-10 -10 11 -0.7832 0.0058
-10 -10 12 1.1784 0.0180
-10 -10 13 -1.1433 -0.0271
-10 -10 14 -1.9447 -0.0321
-10 -10 15 -0.3102 -0.0091
-10 -10 16 -0.1736 -0.0172
-10 -10 17 -0.3083 0.0052
-10 -9 1 -0.1813 -0.0206
-10 -9 2 -0.2376 0.0717
-10 -9 3 1.8746 -0.0236
-10 -9 4 -0.1047 -0.0031
-10 -9 5 -2.1440 0.0042
-10 -9 6 -0.0282 -0.0047
-10 -9 7 -0.4758 0.0378
-10 -9 8 -2.1629 0.0072
-10 -9 9 -1.2509 -0.0282
-10 -9 10 -0.7829 0.0046
-10 -9 11 -0.2952 0.0098
-10 -9 12 -0.0101 0.0031
-10 -9 13 -1.3990 0.0149
-10 -9 14 -1.5534 0.0103
-10 -9 15 -0.1203 -0.0069
-10 -9 16 0.2746 -0.0180
-10 -9 17 -0.7011 0.0112
-10 -9 18 -1.0693 -0.0145
-10 -8 1 -0.4979 -0.0644
-10 -8 2 -1.6963 0.0730
-10 -8 3 0.5020 0.0104
-10 -8 4 0.7392 -0.0203
-10 -8 5 -1.6768 0.0162
-10 -8 6 -1.4832 0.0013
-10 -8 7 -0.7437 -0.0003
-10 -8 8 -2.8609 -0.0092
-10 -8 9 -3.4672 -0.0161
-10 -8 10 -0.0950 0.0354
-10 -8 11 2.0517 0.0208
-10 -8 12 0.7547 -0.0061
-10 -8 13 -0.6135 0.0311
-10 -8 14 -0.1638 0.0258
-10 -8 15 1.1807 -0.0148
-10 -8 16 0.9427 -0.0270
-10 -8 17 -0.8737 -0.0013
-10 -8 18 -1.1293 -0.0611
-10 -7 1 -0.3730 -0.1175
-10 -7 2 -2.6600 0.1057
-10 -7 3 0.3635 0.0286
-10 -7 4 3.4121 -0.0645
-10 -7 5 0.8096 0.0512
-10 -7 6 -1.4456 0.0104
-10 -7 7 -1.8794 -0.0327
-10 -7 8 -4.4147 0.0116
-10 -7 9 -5.0602 -0.0074
-10 -7 10 -1.1332 0.0093
-10 -7 11 1.9751 0.0083
-10 -7 12 1.1815 -0.0253
-10 -7 13 -0.6659 0.0042
-10 -7 14 0.3647 0.0191
-10 -7 15 2.0542 -0.0081
-10 -7 16 0.2023 -0.0039
-10 -7 17 -1.5139 0.0039
-10 -7 18 -0.4847 -0.0778
-10 -7 19 0.1521 -0.1386
-10 -6 1 -2.2087 -0.1076
-10 -6 2 -3.4863 0.0543
-10 -6 3 -0.3661 -0.0232
-10 -6 4 2.4856 -0.0464
-10 -6 5 1.2538 0.0635
-10 -6 6 0.3036 -0.0252
-10 -6 7 -2.2474 -0.0389
-10 -6 8 -6.0588 0.0504
-10 -6 9 -5.1654 -0.0051
-10 -6 10 -1.6214 -0.0294
-10 -6 11 0.7143 0.0068
-10 -6 12 0.6916 -0.0225
-10 -6 13 -0.5863 -0.0099
-10 -6 14 1.2087 0.0227
-10 -6 15 2.5685 0.0025
-10 -6 16 -0.4368 0.0263
-10 -6 17 -1.6660 0.0310
-10 -6 18 0.0684 -0.0320
-10 -6 19 0.5209 -0.0354
-10 -5 1 -4.2419 0.0138
-10 -5 2 -2.2297 -0.0784
-10 -5 3 -1.3195 -0.0389
-10 -5 4 -2.0978 0.0436
-10 -5 5 -1.2629 0.0272
-10 -5 6 0.4847 -0.0502
-10 -5 7 -2.6492 -0.0379
-10 -5 8 -6.4178 0.0340
-10 -5 9 -4.0503 0.0025
-10 -5 13 0.8250 -0.0026
-10 -5 14 2.5006 0.0175
-10 -5 15 2.0528 -0.0116
-10 -5 16 -0.2692 0.0140
-10 -5 17 -0.9042 0.0292
-10 -5 18 -0.0789 0.0050
-10 -5 19 0.2687 0.0236
-10 -4 1 -1.7723 0.1785
-10 -4 2 1.5211 -0.1620
-10 -4 3 -0.1472 0.0208
-10 -4 4 -2.2854 0.1058
-10 -4 5 -0.6292 -0.0215
-10 -4 6 0.1877 -0.0058
-10 -4 7 -2.8849 -0.0119
-10 -4 8 -5.3724 -0.0227
-10 -4 9 -2.2662 -0.0028
-10 -4 10 2.2938 -0.0063
-10 -4 11 1.2109 0.0077
-10 -4 12 -0.6110 0.0052
-10 -4 13 1.9860 0.0020
-10 -4 14 2.7351 -0.0044
-10 -4 15 0.3097 -0.0239
-10 -4 16 -0.5160 -0.0119
-10 -4 17 -0.3314 0.0064
-10 -4 18 -0.5285 0.0065
-10 -4 19 -0.7135 -0.0076
-10 -3 1 0.9989 0.2434
-10 -3 2 1.8489 -0.1365
-10 -3 3 -0.4828 0.0194
-10 -3 4 1.2144 0.0724
-10 -3 5 3.2369 -0.0516
-10 -3 6 0.6935 0.0328
-10 -3 7 -2.3999 0.0455
-10 -3 8 -3.6051 -0.0333
-10 -3 9 -0.9020 -0.0075
-10 -3 10 3.3054 -0.0022
-10 -3 11 1.7141 -0.0297
-10 -3 12 -0.5646 0.0002
-10 -3 13 1.8289 0.0047
-10 -3 14 2.1588 -0.0129
-10 -3 15 -0.1993 -0.0051
-10 -3 16 -0.8207 -0.0175
-10 -3 17 -0.4749 -0.0101
-10 -3 18 -0.6868 0.0052
-10 -3 19 -1.1987 -0.0261
-10 -2 1 -0.6162 0.1804
-10 -2 2 -1.5615 -0.0235
-10 -2 3 -1.9319 -0.0475
-10 -2 4 3.0355 0.0158
-10 -2 5 4.9849 -0.0655
-10 -2 6 0.7368 0.0010
-10 -2 7 -2.0529 0.0879
-10 -2 8 -1.5479 -0.0041
-10 -2 9 -0.0188 0.0033
-10 -2 10 1.2548 0.0178
-10 -2 11 1.0711 -0.0343
-10 -2 12 0.6524 0.0076
-10 -2 13 0.8781 0.0099
-10 -2 14 1.1943 -0.0077
-10 -2 15 0.5906 0.0131
-10 -2 16 -1.2124 -0.0172
-10 -2 17 -1.7834 -0.0206
-10 -2 18 -1.2430 -0.0006
-10 -1 1 -3.3171 0.0171
-10 -1 2 -3.1452 0.0916
-10 -1 3 -0.5652 -0.0353
-10 -1 4 3.1954 -0.0006
-10 -1 5 3.4555 -0.0597
-10 -1 6 -0.3851 -0.0390
-10 -1 7 -2.3802 0.0663
-10 -1 8 -0.3350 -0.0035
-10 -1 9 0.4871 -0.0006
-10 -1 10 -1.0974 0.0332
-10 -1 11 -0.3204 -0.0114
-10 -1 12 1.1387 0.0103
-10 -1 13 0.2150 0.0117
-10 -1 14 0.6175 -0.0071
-10 -1 15 1.1563 0.0090
-10 -1 16 -1.7998 -0.0050
-10 -1 17 -3.6856 -0.0065
-10 -1 18 -2.2426 0.0084
-10 0 1 -4.2261 -0.2491
-10 0 2 -2.1564 0.1125
-10 0 3 0.3795 0.0381
-10 0 4 1.4888 -0.0446
-10 0 5 0.8424 -0.0075
-10 0 6 -1.3226 -0.0168
-10 0 7 -1.7532 -0.0175
-10 0 8 -0.0086 -0.0189
-10 0 9 -0.0227 -0.0104
-10 0 10 -1.1449 0.0206
-10 0 11 -0.4764 0.0006
-10 0 12 0.4481 -0.0102
-10 0 13 0.6660 0.0093
-10 0 14 1.6825 -0.0094
-10 0 15 1.9680 0.0040
-10 0 16 -0.9705 0.0224
-10 1 1 -2.9959 -0.4633
-10 1 2 0.1014 0.0768
-10 1 3 -0.5834 0.0588
-10 1 4 -1.8221 -0.1197
-10 1 5 -0.6897 0.0832
-10 1 6 0.3050 0.0392
-10 1 7 1.1263 -0.0868
-10 1 8 0.7803 0.0006
-10 1 9 -0.7254 0.0086
-10 1 10 -0.5633 0.0130
-10 1 11 -0.7703 0.0112
-10 1 12 -1.3947 -0.0242
-10 1 13 0.7216 0.0049
-10 1 14 2.6249 -0.0104
-10 1 15 2.0003 -0.0039
-10 1 16 0.0619 0.0181
-10 1 17 -1.6571 -0.0201
-10 2 1 -0.9407 -0.3805
-10 2 2 1.0908 0.0578
-10 2 3 -0.9551 0.0331
-10 2 4 -3.9601 -0.0983
-10 2 5 -1.2675 0.1230
-10 2 6 3.2769 0.0422
-10 2 7 3.7973 -0.0792
-10 2 8 1.2502 0.0283
-10 2 9 -0.2358 0.0144
-10 2 10 -0.3221 -0.0008
-10 2 11 -2.2908 0.0181
-10 2 12 -3.5397 -0.0150
-10 2 13 -0.5895 -0.0019
-10 2 14 1.7187 -0.0022
-10 2 15 0.6176 -0.0114
-10 2 16 -0.5968 -0.0039
-10 2 17 -0.5780 -0.0469
-10 3 1 0.5393 -0.0524
-10 3 2 -0.2582 0.0102
-10 3 3 -1.1437 0.0197
-10 3 4 -3.4290 0.0200
-10 3 5 -1.2309 0.0523
-10 3 6 4.1096 -0.0078
-10 3 7 3.7392 -0.0220
-10 3 8 0.7825 0.0279
-10 3 9 1.0000 -0.0089
-10 3 10 0.2542 -0.0321
-10 3 11 -2.8339 0.0074
-10 3 12 -3.3952 -0.0027
-10 3 13 -0.9968 0.0002
-10 3 14 0.4672 0.0250
-10 3 15 -0.1616 0.0136
-10 3 16 -0.6320 0.0318
-10 3 17 0.0799 0.0140
-10 3 18 0.1526 -0.0230
-10 4 1 1.9312 0.2163
-10 4 2 0.4292 -0.0747
-10 4 3 -0.7098 0.0356
-10 4 4 -1.2627 0.0857
-10 4 5 0.2977 -0.0528
-10 4 6 2.7329 -0.0213
-10 4 7 1.4298 0.0277
-10 4 8 0.4552 0.0214
-10 4 9 1.7149 -0.0034
-10 4 10 -0.3309 -0.0273
-10 4 11 -3.4721 0.0025
-10 4 12 -2.4088 -0.0019
-10 4 13 -0.1138 0.0049
-10 4 14 -0.3692 0.0218
-10 4 15 -0.9951 0.0072
-10 4 16 0.2181 0.0414
-10 4 17 1.2182 0.0225
-10 5 1 1.2579 0.2866
-10 5 2 2.1194 -0.1007
-10 5 3 0.4605 0.0323
-10 5 4 -0.2860 0.0488
-10 5 5 1.3277 -0.0933
-10 5 6 0.9880 -0.0050
-10 5 7 -1.3188 0.0308
-10 5 8 0.1166 0.0034
-10 5 9 1.8306 0.0068
-10 5 10 -1.6192 -0.0040
-10 5 11 -4.9978 -0.0009
-10 5 12 -3.1456 -0.0023
-10 5 13 0.1617 0.0037
-10 5 14 -0.5966 -0.0191
-10 5 15 -2.4313 -0.0616
-10 5 16 -0.3985 -0.0670
-10 6 1 -0.8655 0.2539
-10 6 2 0.7908 -0.0412
-10 6 3 0.5264 -0.0441
-10 6 4 -0.8187 0.0019
-10 6 5 0.1816 -0.0608
-10 6 6 -0.3312 -0.0100
-10 6 7 -2.2564 0.0200
-10 6 8 -0.2549 -0.0285
-10 6 9 1.4747 -0.0101
-10 6 10 -1.4148 -0.0010
-10 6 11 -4.2671 -0.0116
-10 6 12 -3.3212 0.0243
-10 6 13 -0.2332 0.0209
-10 6 14 0.1259 -0.0054
-10 6 15 -1.8765 -0.0496
-10 6 16 -0.9934 -0.1289
-10 7 1 0.2303 0.1750
-10 7 2 0.2139 0.0244
-10 7 3 -0.1072 -0.1103
-10 7 4 -0.8933 0.0084
-10 7 5 -1.1074 -0.0126
-10 7 6 -1.5777 -0.0030
-10 7 7 -1.5282 0.0499
-10 7 8 -0.0136 -0.0347
-10 7 9 0.2510 -0.0114
-10 7 10 -1.1868 0.0090
-10 7 11 -2.2210 -0.0200
-10 7 12 -2.2365 0.0343
-10 7 13 -0.7916 0.0113
-10 7 14 0.3898 0.0055
-10 7 15 -0.0751 0.0138
-10 8 1 2.2374 -0.0002
-10 8 2 1.9348 0.0370
-10 8 3 -0.5409 -0.0546
-10 8 4 -0.7866 0.0197
-10 8 5 -1.3349 0.0054
-10 8 6 -2.5795 0.0132
-10 8 7 -0.9655 0.0464
-10 8 8 0.5433 -0.0275
-10 8 9 -0.4380 -0.0014
-10 8 10 -0.8171 0.0187
-10 8 11 -0.9139 -0.0301
-10 8 12 -1.6569 -0.0103
-10 8 13 -0.9397 -0.0324
-10 8 14 0.2360 -0.0606
-10 9 1 1.9981 -0.2301
-10 9 2 1.9394 0.0340
-10 9 3 -0.9697 0.0561
-10 9 4 -0.6945 -0.0243
-10 9 5 -1.0284 0.0309
-10 9 6 -2.2693 0.0176
-10 9 7 -0.4536 -0.0386
-10 9 8 0.5561 -0.0154
-10 9 9 0.0881 0.0138
-10 9 10 1.2244 0.0216
-10 9 11 0.7979 -0.0078
-10 9 12 -0.9258 -0.0010
-10 9 13 -0.1367 0.0345
-10 9 14 0.6438 -0.0276
-10 10 1 2.3468 -0.3408
-10 10 2 0.3685 0.0609
-10 10 3 -1.4814 0.0872
-10 10 4 -0.4106 -0.0943
-10 10 5 -0.9178 0.0735
-10 10 6 -1.3484 0.0354
-10 10 7 0.0145 -0.0856
-10 10 8 -0.3067 0.0242
-10 10 9 -0.0225 0.0363
-10 10 10 1.9750 0.0134
-10 10 11 1.3569 0.0342
-10 10 12 -0.0483 0.0720
-10 11 1 3.1063 -0.2198
-10 11 2 -0.1223 0.0716
-10 11 3 -1.5312 0.0365
-10 11 4 -0.7114 -0.1045
-10 11 5 -1.0596 0.0503
-10 11 6 -0.5727 0.0279
-10 11 7 0.2634 -0.0444
-10 11 8 -0.4600 0.0489
-10 11 9 -0.0631 0.0086
-10 11 10 0.8057 -0.0441
-10 11 11 0.1182 0.0236
-10 11 12 0.0091 0.0721
-10 12 1 2.2105 0.0456
-10 12 2 0.4408 0.0281
-10 12 3 -0.6511 -0.0044
-10 12 4 -1.0911 -0.0269
-10 12 5 -0.5633 -0.0237
-10 12 6 0.5471 -0.0143
-10 12 7 0.7697 0.0086
-10 12 8 0.7217 0.0262
-10 12 9 0.8382 -0.0513
-10 13 1 0.7976 0.2331
-10 13 2 0.8698 -0.0333
-10 13 3 -0.3052 -0.0020
-10 13 4 -1.3060 0.0508
-10 13 5 0.3544 -0.0603
-10 13 6 1.2583 -0.0100
-10 13 7 0.9592 0.0537
-10 13 8 1.3738 -0.0080
-10 14 1 -0.1252 0.2422
-10 14 2 1.2886 -0.0679
-10 14 3 -1.0072 0.0096
-10 14 4 -1.8894 0.0659
-10 14 5 0.7146 -0.0654
-10 14 6 1.0987 0.0335
-10 14 7 0.8641 0.1061
-10 15 1 -0.5973 0.1674
-10 15 2 1.5817 -0.0493
-10 15 3 -1.2406 0.0159
-10 15 4 -2.1897 0.0596
-10 15 5 0.2059 -0.0623
-10 15 6 0.4190 0.0432
-10 16 1 -0.3759 0.0486
-10 16 2 0.9264 -0.0149
-10 16 3 -0.9309 0.0209
-10 16 4 -1.5234 0.0392
-10 17 1 0.3837 -0.1066
-9 -13 6 0.2235 0.0343
-9 -13 7 0.6809 0.0495
-9 -13 8 -0.0237 0.0598
-9 -13 9 0.7890 0.0016
-9 -13 10 3.5295 -0.0737
-9 -13 13 0.8224 0.0631
-9 -13 14 0.3068 0.0470
-9 -12 3 1.0894 0.0741
-9 -12 4 -0.0704 0.0842
-9 -12 5 0.2481 0.0398
-9 -12 6 1.9806 -0.0065
-9 -12 7 1.2236 0.0422
-9 -12 8 -0.5987 0.0368
-9 -12 9 -0.3181 -0.0294
-9 -12 10 2.3530 -0.0400
-9 -12 11 4.3020 0.0104
-9 -12 12 2.0685 0.0504
-9 -12 13 0.1041 0.0418
-9 -12 14 1.2401 0.0195
-9 -12 15 0.8420 -0.0076
-9 -12 16 -0.1283 -0.0384
-9 -11 1 0.1883 0.0578
-9 -11 2 1.6118 0.0986
-9 -11 3 2.8295 0.1002
-9 -11 4 -0.6852 0.0844
-9 -11 5 -0.0772 -0.0100
-9 -11 6 3.5338 -0.0051
-9 -11 7 1.1698 0.0409
-9 -11 8 -1.3434 -0.0143
-9 -11 9 -0.7111 -0.0285
-9 -11 10 0.3150 0.0107
-9 -11 11 1.6825 0.0041
-9 -11 12 0.1655 0.0092
-9 -11 13 -1.7564 0.0091
-9 -11 14 -0.1578 0.0013
-9 -11 15 0.2468 0.0249
-9 -11 16 -0.9387 -0.0021
-9 -11 17 -1.1731 -0.0203
-9 -10 1 -0.0802 -0.0598
-9 -10 2 0.2841 0.0553
-9 -10 3 1.5739 0.0646
-9 -10 4 -0.6287 -0.0288
-9 -10 5 -0.5778 -0.0295
-9 -10 6 2.5798 0.0270
-9 -10 7 0.9892 0.0094
-9 -10 8 -2.2873 -0.0456
-9 -10 9 -1.2891 -0.0139
-9 -10 10 0.1470 0.0261
-9 -10 11 -1.0360 -0.0251
-9 -10 12 -2.2861 -0.0279
-9 -10 13 -1.7401 0.0046
-9 -10 14 -0.1988 0.0169
-9 -10 15 0.3870 0.0428
-9 -10 16 -0.5933 0.0160
-9 -10 17 -1.5756 -0.0049
-9 -10 18 -1.4822 -0.0083
-9 -9 1 0.0009 -0.1772
-9 -9 2 -2.6992 0.0755
-9 -9 3 -2.2583 -0.0079
-9 -9 4 -0.6828 -0.1064
-9 -9 5 -0.9651 0.0415
-9 -9 6 -0.4132 0.0294
-9 -9 7 -0.6405 -0.0391
-9 -9 8 -3.5344 -0.0172
-9 -9 9 -3.5796 0.0005
-9 -9 10 -1.7239 0.0156
-9 -9 11 -2.7199 -0.0104
-9 -9 12 -3.1521 -0.0276
-9 -9 13 -0.9230 0.0064
-9 -9 14 1.4279 0.0282
-9 -9 15 1.7879 0.0177
-9 -9 16 0.1868 0.0008
-9 -9 17 -0.4681 0.0011
-9 -9 18 -0.0785 -0.0233
-9 -9 19 -0.1598 -0.0443
-9 -8 1 1.4670 -0.1436
-9 -8 2 -3.3521 0.0837
-9 -8 3 -3.2408 -0.0597
-9 -8 4 0.6513 -0.0678
-9 -8 5 1.6266 0.0870
-9 -8 6 -0.4923 -0.0149
-9 -8 7 -2.8721 -0.0552
-9 -8 8 -4.2231 0.0287
-9 -8 9 -5.1239 0.0024
-9 -8 10 -6.2341 -0.0005
-9 -8 11 -5.7387 0.0177
-9 -8 12 -3.8779 -0.0238
-9 -8 13 -1.6261 -0.0115
-9 -8 14 1.3132 0.0057
-9 -8 15 1.6458 -0.0200
-9 -8 16 -0.3238 -0.0010
-9 -8 17 -0.0909 0.0098
-9 -8 18 0.6466 -0.0100
-9 -8 19 -0.0969 -0.0155
-9 -7 1 0.9788 -0.0175
-9 -7 2 -2.6741 -0.0225
-9 -7 3 -3.3791 -0.0564
-9 -7 4 0.3497 0.0036
-9 -7 5 4.3796 0.0301
-9 -7 6 2.0104 -0.0457
-9 -7 7 -3.6222 -0.0372
-9 -7 8 -3.7763 0.0376
-9 -7 9 -3.3945 0.0028
-9 -7 10 -7.1087 -0.0095
-9 -7 11 -7.6659 0.0191
-9 -7 12 -4.3795 -0.0201
-9 -7 13 -1.5399 -0.0139
-9 -7 14 0.4970 -0.0124
-9 -7 15 0.6902 -0.0342
-9 -7 16 -0.2351 0.0061
-9 -7 17 -0.1726 0.0095
-9 -7 18 0.4057 0.0162
-9 -7 19 0.2519 0.0522
-9 -6 1 -2.1482 0.1037
-9 -6 2 -2.3285 -0.1198
-9 -6 3 -4.7007 0.0134
-9 -6 4 -2.7207 0.0433
-9 -6 5 2.6852 -0.0223
-9 -6 6 1.8652 -0.0055
-9 -6 7 -3.2603 -0.0085
-9 -6 8 -3.3541 0.0159
-9 -6 9 -0.9442 0.0131
-9 -6 10 -3.0055 -0.0071
-9 -6 11 -6.0051 0.0002
-9 -6 12 -3.5382 -0.0040
-9 -6 13 0.3925 0.0085
-9 -6 14 0.3850 -0.0061
-9 -6 15 0.1857 -0.0223
-9 -6 16 0.9626 -0.0043
-9 -6 17 0.1476 -0.0139
-9 -6 18 0.1499 0.0071
-9 -6 19 0.8061 0.0678
-9 -6 20 -0.0261 0.0745
-9 -5 1 -2.1120 0.1976
-9 -5 2 -0.9634 -0.0970
-9 -5 3 -3.3119 0.0490
-9 -5 4 -2.3194 0.0428
-9 -5 5 0.2514 -0.0359
-9 -5 6 -0.5042 0.0314
-9 -5 7 -2.8769 0.0299
-9 -5 8 -3.6246 -0.0024
-9 -5 9 -0.7537 0.0119
-9 -5 12 -1.7895 0.0105
-9 -5 13 1.5281 0.0157
-9 -5 14 0.0555 -0.0023
-9 -5 15 -0.3699 -0.0011
-9 -5 16 0.9982 -0.0057
-9 -5 17 0.1706 -0.0147
-9 -5 18 0.0351 -0.0117
-9 -5 19 0.6369 0.0090
-9 -5 20 0.4328 0.0229
-9 -4 1 0.5887 0.2565
-9 -4 2 -0.6304 -0.0297
-9 -4 3 -2.0533 -0.0158
-9 -4 4 0.2411 0.0276
-9 -4 5 0.4819 -0.0792
-9 -4 6 -1.7291 -0.0132
-9 -4 7 -2.7933 0.0667
-9 -4 8 -3.2605 -0.0073
-9 -4 9 -1.7717 -0.0036
-9 -4 10 0.2412 0.0113
-9 -4 11 0.0356 -0.0102
-9 -4 12 0.6108 0.0140
-9 -4 13 1.3180 0.0005
-9 -4 14 0.3456 -0.0080
-9 -4 15 0.3028 0.0123
-9 -4 16 0.6111 0.0093
-9 -4 17 0.2564 0.0108
-9 -4 18 0.2400 -0.0030
-9 -4 19 0.1999 -0.0388
-9 -4 20 0.1712 -0.0591
-9 -3 1 1.3190 0.2229
-9 -3 2 -1.3132 0.0326
-9 -3 3 -3.9286 -0.0424
-9 -3 4 -1.1851 0.0401
-9 -3 5 0.8063 -0.0933
-9 -3 6 -1.6749 -0.0465
-9 -3 7 -2.8507 0.0640
-9 -3 8 -1.4247 -0.0224
-9 -3 9 -1.5930 -0.0135
-9 -3 10 -1.4105 0.0237
-9 -3 11 1.2403 0.0027
-9 -3 12 2.0087 0.0114
-9 -3 13 0.9159 -0.0026
-9 -3 14 1.5856 -0.0065
-9 -3 15 1.9630 0.0156
-9 -3 16 0.8503 0.0186
-9 -3 17 0.5220 0.0137
-9 -3 18 0.5040 0.0048
-9 -3 19 0.0929 -0.0262
-9 -3 20 -0.0436 -0.0509
-9 -2 1 0.9923 -0.0011
-9 -2 2 0.0007 0.0857
-9 -2 3 -3.9603 0.0262
-9 -2 4 -3.3999 0.0331
-9 -2 5 -0.0400 0.0007
-9 -2 6 -1.4310 0.0086
-9 -2 7 -2.5970 0.0119
-9 -2 8 -0.0139 -0.0464
-9 -2 9 0.0346 -0.0249
-9 -2 10 -0.9120 0.0204
-9 -2 11 0.4038 -0.0015
-9 -2 12 0.5830 -0.0018
-9 -2 13 0.9538 0.0099
-9 -2 14 2.8587 -0.0090
-9 -2 15 2.5957 0.0072
-9 -2 16 0.6552 0.0157
-9 -2 17 0.0860 -0.0014
-9 -2 18 0.3211 0.0035
-9 -2 19 -0.0084 -0.0068
-9 -2 20 -0.1975 -0.0000
-9 -1 1 1.4608 -0.3273
-9 -1 2 1.3179 0.0858
-9 -1 3 -1.7382 0.0322
-9 -1 4 -2.4620 -0.0554
-9 -1 5 -0.6425 0.1149
-9 -1 6 -0.9259 0.0589
-9 -1 7 -1.5557 -0.0449
-9 -1 8 -0.1070 -0.0304
-9 -1 9 1.7550 -0.0280
-9 -1 10 2.1577 0.0047
-9 -1 11 -0.2876 -0.0124
-9 -1 12 -1.4017 -0.0155
-9 -1 13 1.9963 0.0146
-9 -1 14 4.0064 -0.0185
-9 -1 15 2.3939 -0.0018
-9 -1 16 0.6748 0.0060
-9 -1 17 -0.0319 -0.0110
-9 -1 18 0.1518 0.0205
-9 -1 19 0.1445 -0.0009
-9 0 1 2.8117 -0.4403
-9 0 2 1.2619 0.0442
-9 0 3 -1.1158 -0.0317
-9 0 4 -1.6929 -0.1230
-9 0 5 -0.6513 0.1294
-9 0 6 0.1901 0.0414
-9 0 7 -0.2066 -0.0571
-9 0 8 0.2421 0.0268
-9 0 9 3.0979 0.0069
-9 0 10 3.6223 0.0021
-9 0 11 -0.9192 0.0032
-9 0 12 -1.9035 -0.0065
-9 0 13 2.8897 0.0106
-9 0 14 3.6736 -0.0032
-9 0 15 0.9711 0.0066
-9 0 16 0.8600 0.0029
-9 0 17 0.8268 -0.0216
-9 0 18 -0.0677 0.0197
-9 0 19 0.1424 0.0167
-9 1 1 3.2248 -0.2418
-9 1 2 0.5745 -0.0077
-9 1 3 -2.1004 -0.0107
-9 1 4 -3.3737 -0.0692
-9 1 5 -1.0409 0.0391
-9 1 6 0.9466 0.0009
-9 1 7 0.1474 -0.0433
-9 1 8 1.7695 0.0487
-9 1 9 4.4620 0.0342
-9 1 10 2.3038 -0.0121
-9 1 11 -1.9071 0.0189
-9 1 12 -1.2477 -0.0033
-9 1 13 2.5703 -0.0065
-9 1 14 1.8092 0.0203
-9 1 15 -1.2647 0.0021
-9 1 16 -0.0572 0.0033
-9 1 17 1.1046 -0.0203
-9 2 1 1.3417 0.0206
-9 2 2 -0.7316 -0.0642
-9 2 3 -2.5504 0.0579
-9 2 4 -3.6103 0.0080
-9 2 5 -0.5477 -0.0575
-9 2 6 1.1369 -0.0299
-9 2 7 0.2616 -0.0431
-9 2 8 3.2843 0.0242
-9 2 9 4.9945 0.0154
-9 2 10 1.2515 -0.0398
-9 2 11 -0.7230 0.0123
-9 2 12 0.9984 -0.0177
-9 2 13 2.1708 -0.0223
-9 2 14 0.5748 0.0175
-9 2 15 -1.4147 -0.0209
-9 2 16 -0.4168 0.0060
-9 2 17 0.6194 0.0089
-9 2 18 -0.6047 -0.0410
-9 3 1 -0.3793 0.1924
-9 3 2 -0.2103 -0.0559
-9 3 3 -0.8375 0.0416
-9 3 4 -0.2286 0.0213
-9 3 5 2.1197 -0.0582
-9 3 6 1.6889 -0.0315
-9 3 7 1.0549 -0.0237
-9 3 8 3.8550 0.0163
-9 3 9 3.4685 0.0021
-9 3 10 0.1490 -0.0171
-9 3 11 0.9587 0.0166
-9 3 12 2.9666 -0.0073
-9 3 13 1.8074 -0.0074
-9 3 14 -0.2623 0.0038
-9 3 15 -0.6149 -0.0151
-9 3 16 0.2392 0.0114
-9 3 17 0.2798 0.0034
-9 3 18 -0.1031 -0.0422
-9 4 1 -1.8359 0.3071
-9 4 2 1.0198 0.0184
-9 4 3 1.1764 -0.0287
-9 4 4 2.0861 0.0351
-9 4 5 3.6687 -0.0085
-9 4 6 2.0522 -0.0066
-9 4 7 1.1489 0.0328
-9 4 8 3.0475 0.0034
-9 4 9 1.5968 -0.0019
-9 4 10 -1.0577 0.0209
-9 4 11 0.5336 0.0081
-9 4 12 2.2180 0.0080
-9 4 13 1.1791 0.0047
-9 4 14 -0.3444 -0.0018
-9 4 15 -0.8268 0.0074
-9 4 16 -0.1891 -0.0143
-9 4 17 0.0019 -0.0810
-9 5 1 -2.8963 0.3091
-9 5 2 -0.3086 0.0189
-9 5 3 1.1694 -0.0607
-9 5 4 2.0474 0.0712
-9 5 5 3.0742 -0.0157
-9 5 6 2.0285 0.0174
-9 5 7 0.8567 0.0720
-9 5 8 1.6236 -0.0378
-9 5 9 0.8749 -0.0085
-9 5 10 -0.2345 0.0129
-9 5 11 0.6263 -0.0259
-9 5 12 0.5014 0.0081
-9 5 13 0.4687 -0.0005
-9 5 14 1.1838 0.0144
-9 5 15 -0.1079 0.0244
-9 5 16 -0.9614 -0.0594
-9 5 17 -0.1176 -0.1451
-9 6 1 -0.3424 0.1051
-9 6 2 -1.2701 -0.0464
-9 6 3 0.4108 -0.0291
-9 6 4 3.2884 0.0475
-9 6 5 3.3410 -0.0440
-9 6 6 1.6861 0.0390
-9 6 7 1.0947 0.0566
-9 6 8 0.4771 -0.0425
-9 6 9 -0.5626 0.0168
-9 6 10 0.2897 0.0070
-9 6 11 0.9403 -0.0278
-9 6 12 -1.0751 0.0188
-9 6 13 -1.1088 -0.0004
-9 6 14 1.1167 0.0151
-9 6 15 0.4446 0.0300
-9 6 16 -0.8342 -0.0701
-9 7 1 2.1770 -0.2172
-9 7 2 -0.6856 -0.0223
-9 7 3 -0.2150 0.0307
-9 7 4 4.4969 -0.0455
-9 7 5 3.6935 -0.0101
-9 7 6 0.5711 0.0294
-9 7 7 0.9638 -0.0148
-9 7 8 -0.1973 -0.0120
-9 7 9 -1.7536 0.0245
-9 7 10 0.0207 0.0064
-9 7 11 -0.1374 -0.0136
-9 7 12 -2.5731 0.0108
-9 7 13 -2.0645 -0.0114
-9 7 14 -0.6698 -0.0340
-9 7 15 -1.0252 0.0061
-9 8 1 0.4974 -0.4298
-9 8 2 -1.2560 0.0743
-9 8 3 -0.2954 0.0564
-9 8 4 3.6526 -0.0992
-9 8 5 2.4570 0.0693
-9 8 6 0.1152 -0.0164
-9 8 7 0.5138 -0.0866
-9 8 8 -0.8804 0.0191
-9 8 9 -0.6230 -0.0053
-9 8 10 1.8666 -0.0159
-9 8 11 -0.0632 -0.0050
-9 8 12 -2.4024 -0.0080
-9 8 13 -0.8144 0.0006
-9 8 14 -0.5806 -0.0079
-9 8 15 -1.6484 0.0159
-9 9 1 -1.4411 -0.3832
-9 9 2 -2.0807 0.0975
-9 9 3 0.6256 0.0443
-9 9 4 2.2903 -0.0659
-9 9 5 0.9282 0.1081
-9 9 6 0.8041 -0.0232
-9 9 7 -0.1081 -0.0845
-9 9 8 -2.2554 0.0607
-9 9 9 0.1289 0.0045
-9 9 10 2.9226 -0.0325
-9 9 11 0.7154 0.0228
-9 9 12 -0.9333 0.0042
-9 9 13 0.2511 0.0489
-9 9 14 0.1756 0.1293
-9 10 1 -2.0042 -0.1438
-9 10 2 -1.5670 0.0283
-9 10 3 1.2925 0.0473
-9 10 4 0.8187 -0.0173
-9 10 5 -0.0453 0.0454
-9 10 6 0.9872 0.0018
-9 10 7 -0.7535 -0.0453
-9 10 8 -2.3667 0.0705
-9 10 9 0.1410 0.0220
-9 10 10 1.5587 -0.0558
-9 10 12 0.2582 0.0013
-9 10 13 0.2138 0.0412
-9 11 1 -2.7311 0.1046
-9 11 2 -0.5049 -0.0384
-9 11 3 1.2773 0.0526
-9 11 4 -0.3315 0.0098
-9 11 5 -0.4381 -0.0422
-9 11 6 0.2465 -0.0060
-9 11 7 -0.7702 -0.0265
-9 11 8 -0.3693 0.0281
-9 11 9 1.0645 -0.0037
-9 11 10 1.0376 -0.0614
-9 11 12 0.8914 -0.0138
-9 12 1 -2.6823 0.2457
-9 12 2 0.1673 -0.0608
-9 12 3 0.7995 -0.0067
-9 12 4 -0.0896 0.0310
-9 12 5 0.1098 -0.0511
-9 12 6 -0.5861 -0.0156
-9 12 7 -0.8433 0.0062
-9 12 8 0.4100 -0.0135
-9 13 1 -1.9714 0.2852
-9 13 2 0.2985 -0.0603
-9 13 3 -0.1074 -0.0923
-9 13 4 0.7913 0.0399
-9 13 5 1.3542 -0.0264
-9 13 6 -0.5050 0.0102
-9 13 7 -0.9745 0.0594
-9 14 1 -1.7651 0.2494
-9 14 2 -0.4130 -0.0353
-9 14 3 -0.7839 -0.0905
-9 14 4 0.8866 0.0310
-9 14 5 1.4063 -0.0280
-9 14 6 -0.4298 0.0415
-9 15 1 -1.2226 0.0911
-9 15 2 -1.8963 0.0029
-9 15 3 -1.1020 -0.0135
-9 15 4 0.4726 -0.0135
-9 15 5 0.0181 -0.0315
-9 15 6 -1.4148 0.0518
-9 16 1 0.3947 -0.1441
-9 16 2 -2.0634 0.0189
-9 16 3 -0.8253 0.0450
-9 16 4 0.7783 -0.0789
-9 16 5 -0.1092 -0.0195
-9 17 1 1.3269 -0.2298
-9 17 2 -0.5782 0.0306
-8 -14 6 1.4823 -0.1421
-8 -14 7 -1.5529 -0.0252
-8 -14 8 -3.8263 0.0435
-8 -14 9 -1.8370 0.0355
-8 -14 10 -0.9575 0.0296
-8 -14 11 -2.6073 0.0018
-8 -14 12 -1.9576 -0.0408
-8 -14 13 0.7543 -0.0604
-8 -14 14 1.0861 -0.0390
-8 -13 3 -1.9413 -0.0333
-8 -13 4 -2.7005 -0.0028
-8 -13 5 1.8327 -0.0981
-8 -13 6 3.7224 -0.0544
-8 -13 7 -1.1291 0.0298
-8 -13 8 -3.2321 0.0063
-8 -13 9 -1.4463 -0.0007
-8 -13 10 -0.6215 0.0202
-8 -13 13 0.4053 -0.0275
-8 -13 14 2.6331 -0.0128
-8 -13 15 0.6246 0.0275
-8 -13 16 -0.8272 0.0149
-8 -12 1 -0.4434 -0.1312
-8 -12 2 0.5925 -0.0253
-8 -12 3 -0.5297 0.0485
-8 -12 4 -2.0813 -0.0443
-8 -12 5 2.5209 -0.0321
-8 -12 6 4.5592 0.0308
-8 -12 7 -0.4460 0.0006
-8 -12 8 -2.1581 -0.0373
-8 -12 9 -0.1502 -0.0062
-8 -12 10 0.0835 0.0171
-8 -12 11 -0.6518 0.0058
-8 -12 12 -1.2685 0.0068
-8 -12 13 -0.3265 -0.0199
-8 -12 14 1.3653 -0.0120
-8 -12 15 0.2071 0.0285
-8 -12 16 -1.7314 0.0120
-8 -12 17 -1.1127 0.0427
-8 -11 1 -0.2136 -0.1542
-8 -11 2 0.1610 0.1031
-8 -11 3 0.0615 -0.0140
-8 -11 4 0.1296 -0.1124
-8 -11 5 1.8889 0.0346
-8 -11 6 2.7888 0.0230
-8 -11 7 -0.4981 -0.0424
-8 -11 8 -1.9138 -0.0264
-8 -11 9 1.4617 -0.0084
-8 -11 10 2.1108 0.0089
-8 -11 11 0.2240 0.0082
-8 -11 12 0.3529 -0.0085
-8 -11 13 0.5217 -0.0254
-8 -11 14 0.1578 -0.0211
-8 -11 15 -0.8140 -0.0043
-8 -11 16 -1.9985 0.0071
-8 -11 17 -0.9073 0.0424
-8 -11 18 0.0361 0.0575
-8 -10 1 0.0027 -0.0726
-8 -10 2 -0.9075 0.1157
-8 -10 3 -2.0902 -0.0990
-8 -10 4 -0.1807 -0.0848
-8 -10 5 0.5993 0.0701
-8 -10 6 -0.4949 -0.0105
-8 -10 7 -1.8989 -0.0254
-8 -10 8 -1.5637 0.0265
-8 -10 9 1.1995 -0.0090
-8 -10 10 2.1953 0.0043
-8 -10 11 1.2448 0.0189
-8 -10 12 1.0553 -0.0205
-8 -10 13 0.9581 -0.0146
-8 -10 14 0.3189 -0.0155
-8 -10 15 -1.2598 -0.0371
-8 -10 16 -1.7799 -0.0173
-8 -10 17 0.0363 0.0161
-8 -10 18 0.2980 0.0323
-8 -10 19 -0.6162 -0.0246
-8 -9 1 2.8507 -0.0054
-8 -9 2 1.4351 0.0036
-8 -9 3 -3.0301 -0.0574
-8 -9 4 -0.8776 0.0029
-8 -9 5 1.9667 0.0523
-8 -9 6 -1.5572 -0.0142
-8 -9 7 -3.1371 -0.0167
-8 -9 8 -0.3155 0.0385
-8 -9 9 -0.6292 0.0037
-8 -9 10 -1.6975 0.0051
-8 -9 11 -0.3186 0.0271
-8 -9 12 -0.5409 -0.0075
-8 -9 13 -1.1850 0.0027
-8 -9 14 -0.8856 -0.0034
-8 -9 15 -1.7297 -0.0331
-8 -9 16 -1.8523 -0.0291
-8 -9 17 -0.5585 -0.0032
-8 -9 18 0.0499 0.0351
-8 -9 19 -0.1251 -0.0376
-8 -8 1 5.9858 -0.0045
-8 -8 2 3.2201 -0.0952
-8 -8 3 -3.4090 0.0389
-8 -8 4 -0.3358 0.0303
-8 -8 5 4.5138 0.0088
-8 -8 6 0.3758 -0.0054
-8 -8 7 -2.1573 -0.0462
-8 -8 8 0.5657 0.0087
-8 -8 9 -0.7467 0.0182
-8 -8 10 -3.3429 0.0016
-8 -8 11 -2.7646 0.0191
-8 -8 12 -2.2858 0.0102
-8 -8 13 -2.4596 0.0137
-8 -8 14 -2.0519 0.0126
-8 -8 15 -0.9637 -0.0037
-8 -8 16 -0.7286 -0.0166
-8 -8 17 -1.2690 -0.0020
-8 -8 18 -0.0319 0.0264
-8 -8 19 0.6792 -0.0300
-8 -8 20 -0.4493 -0.0880
-8 -7 1 5.0484 0.0473
-8 -7 2 0.2092 -0.0699
-8 -7 3 -4.8886 0.0721
-8 -7 4 -0.7078 0.0367
-8 -7 5 2.9688 -0.0011
-8 -7 6 1.4583 0.0034
-8 -7 7 -0.2168 -0.0245
-8 -7 8 -0.7954 0.0042
-8 -7 9 0.0332 0.0157
-8 -7 10 -0.3408 -0.0112
-8 -7 11 -3.0539 -0.0053
-8 -7 12 -3.0283 0.0085
-8 -7 13 -1.7284 0.0134
-8 -7 14 -1.4113 0.0289
-8 -7 15 0.3752 0.0222
-8 -7 16 0.5001 -0.0013
-8 -7 17 -0.7542 -0.0038
-8 -7 18 0.3959 -0.0094
-8 -7 19 0.8081 -0.0270
-8 -7 20 -0.0134 -0.0384
-8 -6 1 2.7188 0.1681
-8 -6 2 -2.6685 -0.0271
-8 -6 3 -3.1660 0.0296
-8 -6 4 0.0785 0.0735
-8 -6 5 -0.2443 -0.0318
-8 -6 6 0.1416 -0.0118
-8 -6 7 -0.1101 0.0478
-8 -6 8 -3.1464 0.0082
-8 -6 9 -1.3357 -0.0071
-8 -6 12 -3.9751 -0.0033
-8 -6 13 -1.7950 0.0030
-8 -6 14 -0.5679 0.0230
-8 -6 15 -0.4048 0.0264
-8 -6 16 -1.0486 0.0112
-8 -6 17 -0.6598 -0.0018
-8 -6 18 0.1055 -0.0194
-8 -6 19 -0.5879 -0.0185
-8 -6 20 -0.2459 -0.0175
-8 -5 1 1.1796 0.2063
-8 -5 2 -3.1895 -0.0548
-8 -5 3 -0.9269 -0.0056
-8 -5 4 1.8347 0.0882
-8 -5 5 -0.0629 -0.0943
-8 -5 6 -2.0473 -0.0318
-8 -5 7 -2.5333 0.0733
-8 -5 8 -3.5378 -0.0148
-8 -5 9 -3.4017 -0.0240
-8 -5 10 -2.1214 -0.0105
-8 -5 11 -2.8900 -0.0180
-8 -5 12 -4.0809 -0.0016
-8 -5 13 -1.8661 -0.0053
-8 -5 14 0.2919 -0.0054
-8 -5 15 -1.5839 0.0078
-8 -5 16 -2.6850 0.0111
-8 -5 17 -0.4783 0.0081
-8 -5 18 -0.1136 0.0166
-8 -5 19 -1.7578 0.0018
-8 -5 20 -1.3184 -0.0186
-8 -4 1 -0.3573 0.0615
-8 -4 2 -3.4103 -0.0406
-8 -4 3 -3.3537 0.0105
-8 -4 4 0.6091 0.0420
-8 -4 5 1.6068 -0.0532
-8 -4 6 -3.6678 0.0085
-8 -4 7 -5.1527 0.0375
-8 -4 8 -1.9281 -0.0289
-8 -4 9 -3.0393 -0.0148
-8 -4 10 -4.9708 0.0108
-8 -4 11 -4.0123 0.0023
-8 -4 12 -3.0526 0.0091
-8 -4 13 -0.6337 -0.0022
-8 -4 14 0.6911 -0.0234
-8 -4 15 -1.5151 -0.0019
-8 -4 16 -1.4341 -0.0004
-8 -4 17 1.0924 0.0009
-8 -4 18 0.9009 0.0380
-8 -4 19 -1.0500 0.0226
-8 -4 20 -1.3143 -0.0002
-8 -3 1 -1.1693 -0.2066
-8 -3 2 -3.5760 0.0403
-8 -3 3 -4.6154 -0.0124
-8 -3 4 -0.7124 -0.0586
-8 -3 5 1.4649 0.0629
-8 -3 6 -3.4429 0.0553
-8 -3 7 -4.9497 -0.0042
-8 -3 8 -0.6475 -0.0168
-8 -3 9 -0.4705 -0.0041
-8 -3 10 -4.0515 0.0227
-8 -3 11 -5.2829 0.0037
-8 -3 12 -2.6543 0.0076
-8 -3 13 0.5593 0.0029
-8 -3 14 -0.1726 -0.0232
-8 -3 15 -1.6325 0.0019
-8 -3 16 0.2484 -0.0108
-8 -3 17 2.1300 -0.0197
-8 -3 18 1.6189 0.0063
-8 -3 19 0.0630 0.0026
-8 -3 20 -0.4001 0.0149
-8 -2 1 -2.6202 -0.3767
-8 -2 2 -5.5164 0.0761
-8 -2 3 -1.0239 -0.0727
-8 -2 4 1.5780 -0.1419
-8 -2 5 0.0548 0.0679
-8 -2 6 -1.7486 0.0131
-8 -2 7 -2.2754 -0.0299
-8 -2 8 -0.6307 -0.0019
-8 -2 9 1.4532 -0.0089
-8 -2 10 -0.7771 0.0155
-8 -2 11 -4.4338 0.0005
-8 -2 12 -2.0524 -0.0023
-8 -2 13 1.4522 0.0025
-8 -2 14 -0.4086 -0.0135
-8 -2 15 -1.3071 -0.0059
-8 -2 16 0.9389 -0.0158
-8 -2 17 1.4465 -0.0180
-8 -2 18 0.9776 -0.0141
-8 -2 19 0.5684 -0.0420
-8 -2 20 0.0089 -0.0366
-8 -1 1 -5.3287 -0.2765
-8 -1 2 -7.9893 0.0656
-8 -1 3 1.9784 -0.0081
-8 -1 4 3.2379 -0.1109
-8 -1 5 -1.4052 -0.0116
-8 -1 6 -1.0681 -0.0361
-8 -1 7 -0.7179 -0.0430
-8 -1 8 -0.8408 0.0196
-8 -1 9 0.9970 0.0002
-8 -1 10 -0.0106 -0.0031
-8 -1 11 -2.6074 0.0193
-8 -1 12 -0.6976 -0.0062
-8 -1 13 1.8565 0.0033
-8 -1 14 0.1162 0.0114
-8 -1 15 -0.5518 -0.0106
-8 -1 16 1.1354 0.0044
-8 -1 17 0.4044 0.0077
-8 -1 18 -0.1248 0.0081
-8 -1 19 0.8123 -0.0259
-8 -1 20 0.1374 -0.0784
-8 0 1 -7.0096 -0.0404
-8 0 2 -6.7345 0.0495
-8 0 3 1.3733 0.1373
-8 0 4 0.5601 -0.0092
-8 0 5 -2.6177 -0.0207
-8 0 6 -2.0380 -0.0014
-8 0 7 -1.6382 -0.0423
-8 0 8 -0.3156 0.0433
-8 0 9 0.1974 0.0170
-8 0 10 -1.8605 -0.0259
-8 0 11 -2.2319 0.0270
-8 0 12 -0.1614 -0.0202
-8 0 13 1.2548 -0.0048
-8 0 14 0.2642 0.0216
-8 0 15 -0.7210 -0.0164
-8 0 16 0.0189 0.0246
-8 0 17 -0.3355 0.0111
-8 0 18 -0.6837 -0.0110
-8 0 19 0.2903 0.0064
-8 1 1 -6.4206 0.1395
-8 1 2 -2.8457 0.0070
-8 1 3 -0.3859 0.1205
-8 1 4 -2.2889 0.0508
-8 1 5 -1.8474 0.0242
-8 1 6 -1.7228 0.0261
-8 1 7 -2.0369 -0.0208
-8 1 8 0.6891 0.0408
-8 1 9 0.7183 0.0095
-8 1 10 -1.9684 -0.0320
-8 1 11 -1.4245 0.0071
-8 1 12 -0.1674 -0.0244
-8 1 13 0.1095 -0.0105
-8 1 14 0.5219 0.0085
-8 1 15 -0.3936 -0.0267
-8 1 16 -1.4183 0.0034
-8 1 17 -0.9970 0.0002
-8 1 18 -0.2845 -0.0416
-8 1 19 -0.3055 -0.0098
-8 2 1 -3.3944 0.2759
-8 2 2 0.3493 -0.0435
-8 2 3 -1.2399 -0.0397
-8 2 4 -1.8252 0.0770
-8 2 5 0.7515 0.0229
-8 2 6 0.0128 -0.0036
-8 2 7 -1.0837 0.0274
-8 2 8 0.7581 0.0119
-8 2 9 0.1531 0.0032
-8 2 10 -1.4878 -0.0035
-8 2 11 -0.2949 -0.0008
-8 2 12 -0.4404 0.0200
-8 2 13 -1.6141 0.0081
-8 2 14 -0.3207 0.0094
-8 2 15 0.1320 0.0003
-8 2 16 -1.4680 -0.0096
-8 2 17 -1.3741 0.0207
-8 2 18 0.2705 0.0207
-8 2 19 0.2975 0.0206
-8 3 1 -0.8021 0.3156
-8 3 2 0.1040 -0.0828
-8 3 3 -2.5765 -0.1022
-8 3 4 -1.2421 0.0840
-8 3 5 0.8989 -0.0449
-8 3 6 -0.5972 -0.0120
-8 3 7 -1.0565 0.0597
-8 3 8 0.0747 -0.0356
-8 3 9 -1.1535 0.0047
-8 3 10 -1.8107 0.0080
-8 3 11 -0.4493 -0.0124
-8 3 12 -1.2005 0.0420
-8 3 13 -2.5039 0.0002
-8 3 14 -1.5264 -0.0058
-8 3 15 -0.6283 0.0282
-8 3 16 -0.9516 0.0126
-8 3 17 -0.9214 0.0237
-8 3 18 0.2756 0.0559
-8 4 1 -0.0967 0.1231
-8 4 2 -3.6696 -0.1064
-8 4 3 -4.4266 -0.0318
-8 4 4 -0.6880 0.0225
-8 4 5 -0.7274 -0.1025
-8 4 6 -2.2241 0.0147
-8 4 7 -0.3676 0.0323
-8 4 8 0.7795 -0.0665
-8 4 9 -0.2094 -0.0022
-8 4 10 0.1467 -0.0124
-8 4 11 0.3826 -0.0332
-8 4 12 -1.3770 0.0127
-8 4 13 -1.6524 -0.0256
-8 4 14 -0.4898 -0.0369
-8 4 15 -0.6480 0.0205
-8 4 16 -0.6406 0.0215
-8 4 17 0.1112 -0.0298
-8 4 18 0.3484 -0.0354
-8 5 1 1.5812 -0.1524
-8 5 2 -6.1441 -0.0262
-8 5 3 -4.4483 0.0229
-8 5 4 2.1821 -0.0591
-8 5 5 0.0035 -0.0402
-8 5 6 -1.4693 0.0303
-8 5 7 2.1467 -0.0089
-8 5 8 1.9650 -0.0347
-8 5 9 0.5630 0.0050
-8 5 10 1.9038 0.0037
-8 5 11 1.3347 -0.0133
-8 5 12 -1.4485 0.0192
-8 5 13 -1.8708 0.0024
-8 5 14 -0.2034 -0.0262
-8 5 15 0.0303 0.0299
-8 5 16 -0.2685 0.0065
-8 5 17 0.5555 -0.0621
-8 6 1 1.6090 -0.2581
-8 6 2 -5.3627 0.1423
-8 6 3 -3.0966 0.0063
-8 6 4 3.2011 -0.0725
-8 6 5 0.8418 0.0888
-8 6 6 -0.2045 0.0169
-8 6 7 2.9319 -0.0244
-8 6 8 1.6277 0.0035
-8 6 9 -0.0032 0.0006
-8 6 10 0.8704 0.0283
-8 6 11 0.1257 0.0077
-8 6 12 -1.7415 0.0233
-8 6 13 -2.6879 0.0114
-8 6 14 -1.8609 -0.0203
-8 6 15 -0.3848 0.0287
-8 6 16 0.1380 -0.0156
-8 7 1 -2.3885 -0.2264
-8 7 2 -2.9607 0.1823
-8 7 3 -0.8091 -0.0172
-8 7 4 0.5563 -0.0488
-8 7 5 -0.1780 0.1162
-8 7 6 0.5625 -0.0096
-8 7 7 1.3113 -0.0375
-8 7 8 0.5628 0.0068
-8 7 9 0.8784 -0.0227
-8 7 10 0.8484 0.0118
-8 7 11 -0.4404 0.0081
-8 7 12 -1.3087 -0.0350
-8 7 13 -1.8468 -0.0355
-8 7 14 -1.4915 -0.0104
-8 7 15 -0.1725 -0.0044
-8 7 16 0.4079 -0.0202
-8 8 1 -4.6666 -0.1699
-8 8 2 0.3862 0.0419
-8 8 3 2.1052 0.0049
-8 8 4 -1.3971 -0.0477
-8 8 5 -0.4057 0.0454
-8 8 6 1.9035 -0.0099
-8 8 7 -0.1134 -0.0515
-8 8 8 -0.7320 0.0335
-8 8 9 1.1212 -0.0030
-8 8 10 1.1344 0.0015
-8 8 11 0.2197 0.0415
-8 8 12 -0.9467 -0.0685
-8 8 13 -1.7014 -0.0192
-8 8 14 -0.3027 0.0950
-8 8 15 1.0384 0.0230
-8 9 1 -3.1887 -0.0368
-8 9 2 2.6661 -0.0708
-8 9 3 2.7565 0.0345
-8 9 4 -1.6987 -0.0476
-8 9 5 0.2645 -0.0087
-8 9 6 2.3894 0.0057
-8 9 7 -0.4711 -0.0440
-8 9 8 -1.1422 0.0614
-8 9 9 0.0815 0.0199
-8 9 10 -0.1962 -0.0085
-8 9 11 0.0812 0.0461
-8 9 12 -0.4271 -0.0511
-8 9 13 -1.8813 0.0459
-8 9 14 -0.6996 0.1795
-8 10 1 -0.8992 0.2013
-8 10 2 2.6564 -0.0638
-8 10 3 1.4632 0.0046
-8 10 4 -1.2842 0.0091
-8 10 5 0.2003 -0.0280
-8 10 6 0.8432 -0.0082
-8 10 7 -0.6437 0.0057
-8 10 8 0.2271 0.0337
-8 10 9 1.0919 -0.0065
-8 10 10 -0.2875 -0.0265
-8 10 11 -0.1887 -0.0073
-8 10 12 0.9443 -0.0170
-8 10 13 -0.0135 0.0580
-8 11 1 1.1085 0.3974
-8 11 2 1.4123 -0.0479
-8 11 3 0.4318 -0.0628
-8 11 4 -0.0699 0.1061
-8 11 5 -0.0204 -0.0438
-8 11 6 -1.0341 -0.0330
-8 11 7 -1.3376 0.0764
-8 11 8 0.9168 -0.0096
-8 11 11 -0.3001 0.0038
-8 11 12 1.5489 0.0552
-8 12 1 1.2621 0.3886
-8 12 2 -0.4767 -0.0687
-8 12 3 -0.7884 -0.0790
-8 12 4 0.3470 0.1468
-8 12 5 0.1894 -0.0516
-8 12 6 -0.9056 -0.0302
-8 12 7 -1.0484 0.0927
-8 13 1 -0.8040 0.1801
-8 13 2 -2.2019 -0.0569
-8 13 3 -1.4584 -0.0301
-8 13 4 -0.9108 0.0924
-8 13 5 -1.0228 -0.0290
-8 13 6 -0.4042 -0.0151
-8 13 7 0.1438 0.0307
-8 14 1 -1.9759 -0.0914
-8 14 2 -2.6971 -0.0074
-8 14 3 -0.1168 0.0035
-8 14 4 -1.5639 -0.0008
-8 14 5 -3.7056 0.0154
-8 14 6 -2.1416 -0.0144
-8 14 7 -0.3058 -0.0545
-8 15 1 -0.8705 -0.2670
-8 15 2 -1.7907 0.0205
-8 15 3 1.7994 0.0011
-8 15 4 -0.0213 -0.0584
-8 15 5 -3.8581 0.0489
-8 15 6 -3.0676 -0.0115
-8 16 1 -0.2035 -0.2379
-8 16 2 -0.8755 0.0283
-8 16 3 1.9004 0.0120
-8 16 4 1.1950 -0.0480
-8 16 5 -1.5821 0.0623
-8 17 1 -0.9042 -0.0593
-8 17 2 -0.9898 0.0470
-8 17 3 0.7674 0.0128
-7 -15 7 -1.6651 0.0413
-7 -15 8 2.1844 -0.0226
-7 -15 9 3.6343 -0.0289
-7 -15 10 1.1361 0.0025
-7 -15 11 -0.6384 0.0188
-7 -15 12 -0.3589 0.0251
-7 -15 13 0.8370 -0.0244
-7 -14 3 -0.0629 0.0305
-7 -14 4 -0.9851 -0.0678
-7 -14 6 -1.6294 0.0255
-7 -14 7 -0.4466 0.0275
-7 -14 8 4.4136 -0.0092
-7 -14 9 4.9519 -0.0076
-7 -14 10 1.4955 -0.0016
-7 -14 11 -1.2661 -0.0014
-7 -14 12 -1.3290 0.0019
-7 -14 13 1.2894 -0.0207
-7 -14 14 2.2638 -0.0150
-7 -14 15 0.3485 -0.0376
-7 -14 16 -0.6305 -0.1026
-7 -13 1 2.0822 -0.1059
-7 -13 2 2.8047 0.0578
-7 -13 3 0.8222 -0.0338
-7 -13 4 -0.7715 -0.0521
-7 -13 5 -1.7144 0.0329
-7 -13 6 -1.9892 0.0225
-7 -13 7 0.2650 0.0151
-7 -13 8 3.7965 0.0020
-7 -13 9 3.5757 -0.0250
-7 -13 10 -0.6392 -0.0062
-7 -13 13 0.6329 0.0043
-7 -13 14 1.9383 0.0110
-7 -13 15 0.7098 -0.0353
-7 -13 16 -1.0626 -0.0734
-7 -13 17 -0.3087 -0.0438
-7 -12 1 2.3356 -0.0516
-7 -12 2 0.6632 0.0644
-7 -12 3 1.7139 -0.0422
-7 -12 4 1.2500 0.0028
-7 -12 5 -2.6982 0.0449
-7 -12 6 -2.5544 -0.0082
-7 -12 7 -0.2099 0.0038
-7 -12 8 1.3456 -0.0111
-7 -12 9 1.2170 -0.0447
-7 -12 10 -2.5485 0.0105
-7 -12 11 -3.4706 0.0342
-7 -12 12 -0.0851 0.0113
-7 -12 13 1.3964 0.0288
-7 -12 14 1.5113 0.0108
-7 -12 15 0.8363 -0.0173
-7 -12 16 -0.1838 -0.0066
-7 -12 17 0.3436 -0.0265
-7 -12 18 -0.0658 -0.0608
-7 -11 1 1.2038 -0.0082
-7 -11 2 -1.6109 0.0459
-7 -11 3 0.3293 0.0275
-7 -11 4 1.6463 0.0052
-7 -11 5 -2.2048 0.0144
-7 -11 6 -3.3449 0.0061
-7 -11 7 -0.9134 -0.0019
-7 -11 8 0.3493 -0.0030
-7 -11 9 -0.0006 -0.0185
-7 -11 10 -1.0514 0.0175
-7 -11 11 -0.6168 0.0234
-7 -11 12 1.8204 0.0019
-7 -11 13 3.2591 0.0289
-7 -11 14 2.4521 0.0161
-7 -11 15 1.1435 0.0117
-7 -11 16 0.9914 0.0230
-7 -11 17 1.1215 -0.0141
-7 -11 18 0.0782 -0.0499
-7 -11 19 -0.6417 -0.0891
-7 -10 1 1.9760 -0.0124
-7 -10 2 0.5409 0.0345
-7 -10 3 0.5579 0.0651
-7 -10 4 1.2451 -0.0382
-7 -10 5 -1.0033 0.0275
-7 -10 6 -3.3504 0.0332
-7 -10 7 -0.9019 -0.0307
-7 -10 8 0.5577 0.0217
-7 -10 9 -0.8685 0.0167
-7 -10 10 0.2141 -0.0130
-7 -10 11 1.4926 -0.0122
-7 -10 12 1.7355 -0.0184
-7 -10 13 2.5585 0.0083
-7 -10 14 1.6589 0.0303
-7 -10 15 0.5178 0.0302
-7 -10 16 0.4729 0.0167
-7 -10 17 0.0672 0.0061
-7 -10 18 0.1633 -0.0082
-7 -10 19 0.1070 -0.0495
-7 -9 1 3.4204 0.0296
-7 -9 3 2.3315 -0.0107
-7 -9 4 1.6993 -0.0313
-7 -9 5 0.0365 0.0497
-7 -9 6 -0.5260 0.0031
-7 -9 7 1.0860 -0.0434
-7 -9 8 0.8756 0.0312
-7 -9 9 -0.0876 0.0180
-7 -9 10 0.6204 -0.0345
-7 -9 11 0.7451 -0.0274
-7 -9 12 1.1698 -0.0248
-7 -9 13 1.2760 -0.0062
-7 -9 14 -0.2744 0.0233
-7 -9 15 -0.3018 0.0100
-7 -9 16 0.1391 0.0146
-7 -9 17 -0.4465 0.0333
-7 -9 18 -0.0053 0.0056
-7 -9 19 0.5245 -0.0099
-7 -9 20 0.7293 0.0135
-7 -8 1 2.1945 0.1785
-7 -8 2 -0.5968 -0.0698
-7 -8 3 0.8151 -0.0815
-7 -8 4 0.2603 0.0617
-7 -8 5 -0.9056 0.0066
-7 -8 6 2.6368 -0.0347
-7 -8 7 3.7578 0.0232
-7 -8 8 0.9595 0.0297
-7 -8 9 1.6187 0.0056
-7 -8 10 1.7692 -0.0127
-7 -8 11 -0.1422 -0.0102
-7 -8 12 1.2069 -0.0134
-7 -8 13 1.6507 -0.0093
-7 -8 14 -0.9175 -0.0061
-7 -8 15 -1.1530 -0.0257
-7 -8 16 0.8634 0.0158
-7 -8 17 1.3229 0.0379
-7 -8 18 -0.2047 -0.0106
-7 -8 19 -0.0815 -0.0063
-7 -8 20 2.0060 0.0308
-7 -7 1 1.6063 0.2578
-7 -7 2 -2.9536 -0.1437
-7 -7 3 -1.2088 -0.0450
-7 -7 4 -0.8967 0.1084
-7 -7 5 -2.0737 -0.0903
-7 -7 6 1.8148 -0.0319
-7 -7 7 4.2263 0.0772
-7 -7 8 1.4074 0.0046
-7 -7 9 0.5852 -0.0024
-7 -7 10 0.8318 0.0138
-7 -7 11 -0.6669 0.0084
-7 -7 12 -0.0253 0.0060
-7 -7 13 1.3144 -0.0052
-7 -7 14 -1.0154 -0.0273
-7 -7 15 -2.8276 -0.0306
-7 -7 16 0.4436 0.0083
-7 -7 17 2.3749 0.0083
-7 -7 18 -1.0119 -0.0233
-7 -7 19 -1.6906 -0.0050
-7 -7 20 1.6126 0.0348
-7 -6 1 2.7347 0.1302
-7 -6 2 -2.3446 -0.1200
-7 -6 3 -1.4151 0.0236
-7 -6 4 1.4385 0.0308
-7 -6 5 -0.5733 -0.1122
-7 -6 6 -2.2018 -0.0063
-7 -6 7 1.9107 0.0325
-7 -6 8 2.6377 -0.0381
-7 -6 11 -1.5212 0.0082
-7 -6 12 -1.4316 0.0177
-7 -6 13 0.1999 0.0047
-7 -6 14 -0.6347 -0.0261
-7 -6 15 -2.6085 -0.0134
-7 -6 16 0.2491 -0.0082
-7 -6 17 1.9628 -0.0234
-7 -6 18 -1.1318 -0.0204
-7 -6 19 -2.1440 0.0056
-7 -6 20 -0.1228 0.0412
-7 -5 1 1.3715 -0.0620
-7 -5 2 -2.7116 0.0402
-7 -5 3 -2.0420 0.0172
-7 -5 4 2.7918 -0.0629
-7 -5 5 0.8303 -0.0072
-7 -5 6 -4.5569 0.0206
-7 -5 7 -0.9129 -0.0208
-7 -5 8 2.7913 -0.0465
-7 -5 9 -2.0000 -0.0169
-7 -5 10 -4.5888 0.0109
-7 -5 11 -2.6500 -0.0056
-7 -5 12 -1.5973 0.0116
-7 -5 13 -0.8044 0.0092
-7 -5 14 -0.8432 -0.0108
-7 -5 15 -0.3854 0.0055
-7 -5 16 1.8422 -0.0151
-7 -5 17 1.9813 -0.0278
-7 -5 18 0.4249 -0.0044
-7 -5 19 -0.1320 0.0195
-7 -5 20 -0.3597 0.0351
-7 -4 1 -2.6994 -0.1708
-7 -4 2 -2.8398 0.1684
-7 -4 3 -0.1551 -0.0349
-7 -4 4 0.5874 -0.0840
-7 -4 5 -1.2024 0.0702
-7 -4 6 -2.7394 0.0260
-7 -4 7 -1.4614 -0.0133
-7 -4 8 0.9788 -0.0178
-7 -4 9 0.1984 0.0004
-7 -4 10 -2.7558 0.0136
-7 -4 11 -3.2690 -0.0156
-7 -4 12 -1.9449 -0.0003
-7 -4 13 -2.4695 0.0061
-7 -4 14 -3.0214 0.0039
-7 -4 15 -0.1992 0.0196
-7 -4 16 2.2887 0.0002
-7 -4 17 1.6744 -0.0173
-7 -4 18 1.3903 -0.0055
-7 -4 19 1.4990 0.0108
-7 -4 20 0.3485 0.0194
-7 -3 1 -7.1064 -0.2095
-7 -3 2 -2.1449 0.1405
-7 -3 3 4.3577 0.0121
-7 -3 4 -1.6785 -0.0386
-7 -3 5 -4.3225 0.0442
-7 -3 6 -0.1547 0.0125
-7 -3 7 -0.7140 -0.0100
-7 -3 10 0.5348 0.0108
-7 -3 11 -1.9001 -0.0064
-7 -3 12 -2.4720 -0.0089
-7 -3 13 -3.8312 0.0065
-7 -3 14 -4.0021 0.0101
-7 -3 15 -0.8332 0.0093
-7 -3 16 1.0549 0.0141
-7 -3 17 0.3935 -0.0045
-7 -3 18 0.9004 -0.0126
-7 -3 19 1.1817 -0.0216
-7 -3 20 -0.1442 -0.0049
-7 -2 1 -8.8121 -0.2154
-7 -2 2 -2.0956 0.0329
-7 -2 3 4.6892 0.1309
-7 -2 4 -1.9744 0.0216
-7 -2 5 -4.1840 0.0405
-7 -2 6 -0.9939 0.0129
-7 -2 7 -2.5693 -0.0475
-7 -2 10 0.8386 -0.0071
-7 -2 11 -0.1508 0.0157
-7 -2 12 -2.5129 -0.0152
-7 -2 13 -4.2143 0.0105
-7 -2 14 -2.3594 0.0136
-7 -2 15 0.3218 -0.0098
-7 -2 16 0.4871 0.0188
-7 -2 17 -0.3022 0.0169
-7 -2 18 0.6118 0.0224
-7 -2 19 0.9275 0.0018
-7 -2 20 -0.4310 -0.0162
-7 -1 1 -5.8668 -0.1499
-7 -1 2 -1.2796 -0.0819
-7 -1 3 0.2605 0.0905
-7 -1 4 -0.5156 0.0234
-7 -1 5 0.2656 0.0688
-7 -1 6 -3.1173 0.0111
-7 -1 7 -6.0106 -0.0677
-7 -1 10 -1.0052 -0.0235
-7 -1 11 0.0023 0.0185
-7 -1 12 -2.0555 -0.0180
-7 -1 13 -3.6417 -0.0035
-7 -1 14 -0.5070 0.0088
-7 -1 15 1.0299 -0.0151
-7 -1 16 -0.0155 0.0138
-7 -1 17 0.0486 0.0211
-7 -1 18 0.7345 0.0286
-7 -1 19 0.7453 0.0438
-7 -1 20 0.2364 -0.0062
-7 0 1 -1.1573 0.0629
-7 0 2 -0.0183 -0.1566
-7 0 3 -2.6336 -0.0858
-7 0 4 2.9982 -0.0028
-7 0 5 6.3461 0.0035
-7 0 6 -1.7168 -0.0201
-7 0 7 -5.4225 -0.0301
-7 0 10 -0.2308 -0.0258
-7 0 11 0.5212 -0.0039
-7 0 12 -0.6480 -0.0065
-7 0 13 -1.8100 -0.0235
-7 0 14 0.8120 0.0117
-7 0 15 0.6879 -0.0085
-7 0 16 -0.9028 -0.0132
-7 0 17 0.4771 0.0081
-7 0 18 0.8149 -0.0232
-7 0 19 -0.2146 -0.0002
-7 1 1 2.0918 0.3216
-7 1 2 -0.4268 -0.1177
-7 1 3 -1.2659 -0.1091
-7 1 4 6.7291 0.0325
-7 1 5 8.0413 -0.1031
-7 1 6 0.4508 -0.0260
-7 1 7 -1.4281 0.0336
-7 1 8 2.6927 -0.0295
-7 1 9 3.0697 0.0193
-7 1 10 1.0542 -0.0162
-7 1 11 1.2091 -0.0152
-7 1 12 0.4749 0.0223
-7 1 13 -0.7323 -0.0119
-7 1 14 0.4296 0.0358
-7 1 15 0.6183 0.0114
-7 1 16 -0.2762 -0.0372
-7 1 17 0.6395 0.0134
-7 1 18 0.9062 0.0090
-7 1 19 -0.3619 -0.0069
-7 2 1 1.7092 0.3360
-7 2 2 -3.3497 -0.0080
-7 2 3 1.9127 0.0206
-7 2 4 7.2681 0.0607
-7 2 5 1.1874 -0.1078
-7 2 6 -2.7633 0.0167
-7 2 7 0.4506 0.0606
-7 2 8 1.5122 -0.0352
-7 2 9 0.5091 0.0142
-7 2 10 0.5726 -0.0059
-7 2 12 0.7383 0.0261
-7 2 13 -0.6016 0.0013
-7 2 14 -1.2059 0.0048
-7 2 15 0.5420 0.0079
-7 2 16 1.6414 -0.0369
-7 2 17 1.0236 -0.0048
-7 2 18 0.6155 0.0837
-7 2 19 0.3754 0.0922
-7 3 1 -1.8901 0.0819
-7 3 2 -6.5054 0.0623
-7 3 3 5.2258 0.0458
-7 3 4 6.1217 0.0015
-7 3 5 -7.3388 -0.0327
-7 3 6 -7.2481 0.0263
-7 3 7 0.7183 0.0392
-7 3 8 0.6059 -0.0275
-7 3 9 0.5670 -0.0117
-7 3 10 2.5377 0.0101
-7 3 12 1.3241 0.0118
-7 3 13 0.1034 0.0013
-7 3 14 -0.7639 -0.0696
-7 3 15 0.9503 -0.0072
-7 3 16 2.2863 -0.0101
-7 3 17 1.2456 -0.0551
-7 3 18 -0.0916 0.0216
-7 4 1 -4.2617 -0.1201
-7 4 2 -5.4692 0.0859
-7 4 3 6.9441 -0.0422
-7 4 4 4.6582 -0.0358
-7 4 5 -8.4330 0.0369
-7 4 6 -5.8202 -0.0045
-7 4 7 1.3937 0.0210
-7 4 8 0.9642 -0.0193
-7 4 9 2.5705 -0.0126
-7 4 10 4.6431 0.0330
-7 4 11 3.2883 -0.0200
-7 4 12 0.9962 0.0385
-7 4 13 -1.0947 0.0256
-7 4 14 -0.1314 -0.0533
-7 4 15 1.6703 0.0380
-7 4 16 1.1754 0.0356
-7 4 17 0.4140 -0.0490
-7 4 18 -0.5574 -0.0754
-7 5 1 -5.8846 -0.1632
-7 5 2 -1.2540 0.0751
-7 5 3 3.9801 -0.0612
-7 5 4 -0.4510 -0.0137
-7 5 5 -4.4945 0.0644
-7 5 6 -1.3244 -0.0036
-7 5 7 0.4150 0.0044
-7 5 8 0.6596 -0.0027
-7 5 9 2.3544 0.0075
-7 5 10 2.1706 0.0124
-7 5 11 1.6865 -0.0010
-7 5 13 -3.3709 0.0180
-7 5 14 -1.4484 0.0008
-7 5 15 1.3705 0.0573
-7 5 16 0.2721 0.0329
-7 5 17 -0.4102 -0.0132
-7 6 1 -8.7205 -0.2099
-7 6 2 1.6875 0.0221
-7 6 3 -0.4992 0.0147
-7 6 4 -5.6936 -0.0402
-7 6 5 -0.6367 0.0455
-7 6 6 1.3267 0.0101
-7 6 7 -1.4343 -0.0461
-7 6 8 0.8538 0.0264
-7 6 9 1.9367 0.0003
-7 6 10 -0.4579 -0.0363
-7 6 11 0.1454 0.0225
-7 6 14 -1.2875 -0.0098
-7 6 15 0.6313 -0.0154
-7 6 16 -0.1317 -0.0123
-7 7 1 -9.1032 -0.2016
-7 7 2 1.5780 -0.0112
-7 7 3 -1.8782 0.0823
-7 7 4 -4.6842 -0.0638
-7 7 5 2.0833 0.0344
-7 7 6 1.8136 -0.0085
-7 7 7 -1.3082 -0.0769
-7 7 8 1.3538 0.0680
-7 7 9 0.8476 -0.0103
-7 7 10 -1.3621 -0.0268
-7 7 12 -0.1590 -0.0415
-7 7 13 -1.4353 -0.0408
-7 7 14 -0.0322 0.0136
-7 7 15 0.2034 -0.0056
-7 7 16 -0.8892 0.0245
-7 8 1 -6.9211 0.0427
-7 8 2 -1.7847 -0.0121
-7 8 3 -2.5443 0.0626
-7 8 4 -1.1193 0.0190
-7 8 5 2.2505 0.0346
-7 8 6 0.9325 -0.0278
-7 8 7 0.5568 -0.0339
-7 8 8 1.4545 0.0606
-7 8 9 -1.5750 -0.0031
-7 8 10 -3.1328 0.0018
-7 8 11 -0.5132 0.0502
-7 8 12 0.1395 -0.0304
-7 8 13 -1.0521 -0.0104
-7 8 14 -0.4000 0.0797
-7 8 15 -0.3373 0.1153
-7 9 1 -4.9493 0.3843
-7 9 2 -5.1319 -0.0622
-7 9 3 -2.8778 -0.0328
-7 9 4 0.9247 0.1070
-7 9 5 0.9506 -0.0332
-7 9 6 0.0540 -0.0161
-7 9 7 2.0360 0.0386
-7 9 8 2.2952 -0.0217
-7 9 9 -1.1940 0.0000
-7 9 10 -3.7890 -0.0139
-7 9 11 -1.9786 -0.0458
-7 9 12 0.9465 -0.0268
-7 9 13 0.7195 -0.0231
-7 9 14 -0.5775 0.0591
-7 10 1 -2.8665 0.5054
-7 10 2 -5.1610 -0.1269
-7 10 3 -1.4055 -0.0994
-7 10 4 2.1168 0.0961
-7 10 5 0.8991 -0.1174
-7 10 6 0.1913 0.0069
-7 10 7 1.5676 0.0774
-7 10 8 2.3993 -0.0775
-7 10 9 1.0297 -0.0004
-7 10 10 -2.4373 -0.0101
-7 10 11 -3.2060 -0.0551
-7 10 12 0.0231 0.0212
-7 10 13 1.6366 -0.0036
-7 11 1 -1.7086 0.3252
-7 11 2 -3.8883 -0.0915
-7 11 3 -1.6695 -0.0816
-7 11 4 0.1016 0.0461
-7 11 5 0.6240 -0.0870
-7 11 6 1.3068 0.0124
-7 11 7 0.9256 0.0706
-7 11 8 1.1301 -0.0538
-7 11 12 -1.0234 0.0996
-7 12 1 -2.3647 0.0335
-7 12 2 -2.6970 0.0026
-7 12 3 -3.6525 -0.0418
-7 12 4 -5.5066 0.0175
-7 12 5 -2.4755 0.0058
-7 12 6 1.8558 -0.0045
-7 12 7 1.2205 0.0404
-7 12 8 -0.2848 -0.0218
-7 13 1 -2.5513 -0.1804
-7 13 2 -0.5098 0.0312
-7 13 3 -2.5862 -0.0180
-7 13 4 -8.4202 -0.0087
-7 13 5 -5.9238 0.0286
-7 13 6 0.2392 -0.0143
-7 13 7 -0.0609 -0.0007
-7 14 1 -1.1017 -0.2729
-7 14 2 1.7991 0.0051
-7 14 3 0.5439 0.0318
-7 14 4 -5.6696 -0.0362
-7 14 5 -5.0049 0.0150
-7 14 6 -1.0491 0.0278
-7 14 7 -1.9817 -0.0359
-7 15 1 -0.0859 -0.2435
-7 15 2 2.0318 0.0184
-7 15 3 0.7095 0.0912
-7 15 4 -2.7318 -0.0415
-7 15 5 -1.7522 0.0465
-7 15 6 -0.3935 0.0950
-7 16 1 -0.9953 -0.0876
-7 16 2 0.0300 0.0794
-7 16 3 -1.4352 0.0737
-7 16 4 -2.5175 -0.0312
-7 16 5 -0.9897 0.0765
-7 17 1 -1.8308 0.0954
-7 17 2 -1.6232 0.1160
-7 17 3 -1.5448 -0.0074
-6 -16 8 -1.5427 -0.0108
-6 -16 9 -4.4484 -0.0190
-6 -16 11 -1.8748 -0.0067
-6 -16 12 -0.3897 0.0735
-6 -15 4 -0.0466 0.0518
-6 -15 6 1.0052 -0.0053
-6 -15 7 2.0902 0.0075
-6 -15 8 0.0713 0.0135
-6 -15 9 -1.7557 0.0007
-6 -15 10 -1.7623 -0.0244
-6 -15 11 -1.0575 -0.0103
-6 -15 12 0.3731 0.0238
-6 -15 13 1.1272 0.0229
-6 -15 14 0.5776 0.0165
-6 -15 15 0.1896 0.0203
-6 -14 1 1.3228 0.0428
-6 -14 2 1.3947 0.0622
-6 -14 3 1.8356 0.0517
-6 -14 5 -2.3530 -0.0049
-6 -14 6 1.9792 -0.0077
-6 -14 7 2.9209 0.0287
-6 -14 8 0.3686 0.0181
-6 -14 9 -0.8049 -0.0001
-6 -14 10 -2.2594 0.0093
-6 -14 11 -2.1706 -0.0114
-6 -14 12 -0.8217 -0.0273
-6 -14 13 -0.9297 0.0047
-6 -14 14 -0.4350 0.0210
-6 -14 15 0.3378 0.0384
-6 -14 16 0.1925 0.0590
-6 -14 17 0.2110 0.0514
-6 -13 1 0.4843 -0.0874
-6 -13 2 1.2870 0.0242
-6 -13 5 -2.7601 -0.0160
-6 -13 6 2.6868 0.0166
-6 -13 7 3.8219 -0.0008
-6 -13 8 1.1844 -0.0057
-6 -13 9 -1.0569 -0.0007
-6 -13 10 -4.2238 0.0204
-6 -13 12 -2.2449 -0.0355
-6 -13 13 -2.9869 -0.0125
-6 -13 14 -1.9648 0.0012
-6 -13 15 0.5574 0.0389
-6 -13 16 0.6987 0.0493
-6 -13 17 -0.1027 0.0245
-6 -13 18 -0.2659 0.0625
-6 -12 1 -1.0839 -0.1663
-6 -12 2 0.9702 0.0384
-6 -12 4 -1.1441 -0.0873
-6 -12 5 -1.9399 0.0370
-6 -12 6 2.0801 0.0218
-6 -12 7 4.2265 -0.0527
-6 -12 8 2.4926 0.0032
-6 -12 9 -0.0405 0.0241
-6 -12 10 -2.2358 0.0225
-6 -12 11 -2.5811 0.0010
-6 -12 12 -1.2688 -0.0306
-6 -12 13 -1.5956 -0.0231
-6 -12 14 -1.1696 -0.0131
-6 -12 15 1.8143 0.0049
-6 -12 16 2.2732 0.0062
-6 -12 17 0.8797 -0.0001
-6 -12 18 0.7346 0.0419
-6 -12 19 0.0609 0.0753
-6 -11 1 -2.1273 -0.0212
-6 -11 2 3.6191 0.0396
-6 -11 3 1.8904 -0.0650
-6 -11 4 -2.6224 -0.0435
-6 -11 5 -3.0952 0.0766
-6 -11 6 -0.8534 -0.0157
-6 -11 7 1.5314 -0.0532
-6 -11 8 0.7192 0.0340
-6 -11 9 -0.5808 0.0365
-6 -11 10 -0.3597 0.0144
-6 -11 11 -0.7686 0.0027
-6 -11 12 -0.6420 -0.0235
-6 -11 13 -0.9458 -0.0153
-6 -11 14 -0.7555 -0.0078
-6 -11 15 2.0042 -0.0222
-6 -11 16 2.3257 -0.0216
-6 -11 17 1.0221 -0.0200
-6 -11 18 1.6090 0.0190
-6 -11 19 0.7590 0.0685
-6 -10 1 -3.5224 0.2115
-6 -10 2 5.8808 -0.0822
-6 -10 3 5.0617 -0.1109
-6 -10 4 -2.5390 0.0654
-6 -10 5 -5.1796 0.0039
-6 -10 6 -2.7913 -0.0611
-6 -10 7 -0.8558 -0.0072
-6 -10 8 -1.0929 0.0215
-6 -10 9 -1.2004 0.0143
-6 -10 10 -0.8322 -0.0005
-6 -10 11 -0.4948 -0.0002
-6 -10 12 -0.4888 0.0028
-6 -10 13 -1.8074 0.0104
-6 -10 14 -1.6423 -0.0052
-6 -10 15 1.0430 -0.0237
-6 -10 16 1.7346 -0.0119
-6 -10 17 0.5172 -0.0303
-6 -10 18 0.6620 -0.0009
-6 -10 19 1.2756 0.0617
-6 -9 1 -5.2937 0.2950
-6 -9 2 2.8071 -0.1943
-6 -9 3 4.4048 -0.0209
-6 -9 4 -3.1543 0.1260
-6 -9 5 -7.4768 -0.0998
-6 -9 6 -3.3148 -0.0515
-6 -9 7 0.1965 0.0282
-6 -9 8 0.2363 -0.0206
-6 -9 9 0.1313 -0.0143
-6 -9 10 0.1583 -0.0125
-6 -9 11 0.7353 0.0001
-6 -9 12 0.4132 0.0279
-6 -9 13 -1.5327 0.0221
-6 -9 14 -2.0085 -0.0091
-6 -9 15 -0.0295 -0.0150
-6 -9 16 1.8155 -0.0051
-6 -9 17 0.7345 -0.0205
-6 -9 18 -0.7627 -0.0003
-6 -9 19 0.9361 0.0257
-6 -8 1 -3.7841 0.1633
-6 -8 2 -0.7968 -0.1227
-6 -8 3 0.5492 0.0950
-6 -8 4 -4.0140 0.0779
-6 -8 5 -9.2738 -0.0937
-6 -8 6 -5.0391 -0.0038
-6 -8 7 1.8441 0.0235
-6 -8 8 1.4324 -0.0341
-6 -8 9 -0.0290 -0.0265
-6 -8 10 2.3612 -0.0193
-6 -8 11 2.7019 -0.0023
-6 -8 12 0.0018 0.0259
-6 -8 13 -1.4838 0.0119
-6 -8 14 -2.0549 -0.0017
-6 -8 15 -1.4227 0.0037
-6 -8 16 0.6186 -0.0129
-6 -8 17 0.1107 -0.0104
-6 -8 18 -1.3852 0.0094
-6 -8 19 0.0076 -0.0048
-6 -8 20 0.8758 -0.0694
-6 -7 1 -1.0256 -0.0228
-6 -7 2 -1.3591 0.0584
-6 -7 3 -0.6180 0.0796
-6 -7 4 -2.1843 0.0020
-6 -7 5 -7.3116 0.0103
-6 -7 6 -5.7497 0.0333
-6 -7 7 0.8217 0.0206
-6 -7 8 0.0953 -0.0155
-6 -7 9 -1.2409 -0.0174
-6 -7 10 3.6348 -0.0079
-6 -7 11 3.6243 -0.0149
-6 -7 12 -1.3136 0.0058
-6 -7 13 -2.0852 0.0030
-6 -7 14 -1.1342 0.0043
-6 -7 15 -1.0134 0.0164
-6 -7 16 -0.9095 -0.0084
-6 -7 17 -1.3418 -0.0088
-6 -7 18 -0.6196 0.0026
-6 -7 19 0.3296 -0.0156
-6 -7 20 -0.4620 -0.0869
-6 -7 21 -0.9226 -0.1442
-6 -6 1 -2.2957 -0.1000
-6 -6 2 -1.2339 0.1520
-6 -6 3 -0.7527 -0.0092
-6 -6 4 -1.7956 -0.0249
-6 -6 5 -2.0698 0.0605
-6 -6 6 -1.7772 0.0483
-6 -6 7 -2.4470 0.0402
-6 -6 9 0.3189 0.0044
-6 -6 10 4.2345 0.0180
-6 -6 11 2.7098 -0.0189
-6 -6 12 -1.7825 -0.0065
-6 -6 13 -2.4816 0.0006
-6 -6 14 -0.2584 -0.0034
-6 -6 15 0.7925 0.0122
-6 -6 16 -0.9305 0.0137
-6 -6 17 -2.1841 0.0107
-6 -6 18 0.6157 0.0179
-6 -6 19 2.5421 -0.0071
-6 -6 20 0.1786 -0.0612
-6 -6 21 -1.2876 -0.0514
-6 -5 1 -4.4350 -0.1355
-6 -5 2 0.5704 0.0955
-6 -5 3 -1.4927 -0.0272
-6 -5 4 -5.3669 -0.0536
-6 -5 5 1.4102 0.0016
-6 -5 6 3.5608 0.0396
-6 -5 7 -4.5354 0.0210
-6 -5 10 4.7412 0.0294
-6 -5 11 0.8824 0.0065
-6 -5 12 -1.9882 0.0021
-6 -5 13 -3.1667 -0.0002
-6 -5 14 -1.9242 -0.0080
-6 -5 15 -0.3017 0.0103
-6 -5 16 -1.5894 0.0320
-6 -5 17 -3.0822 0.0303
-6 -5 18 0.0960 0.0422
-6 -5 19 3.4151 0.0082
-6 -5 20 1.2543 -0.0076
-6 -5 21 -1.0293 0.0566
-6 -4 1 -2.8242 -0.2207
-6 -4 2 2.0834 0.0069
-6 -4 3 -2.8000 0.0250
-6 -4 4 -7.2016 -0.0904
-6 -4 5 0.4799 -0.0164
-6 -4 6 2.0654 0.0186
-6 -4 11 0.5422 0.0306
-6 -4 12 -2.3148 -0.0003
-6 -4 13 -3.8550 -0.0041
-6 -4 14 -3.4334 -0.0056
-6 -4 15 -2.5790 0.0028
-6 -4 16 -3.0367 0.0209
-6 -4 17 -3.5169 0.0112
-6 -4 18 -0.9957 0.0051
-6 -4 19 1.7764 -0.0092
-6 -4 20 0.4722 0.0440
-6 -3 1 1.2333 -0.2286
-6 -3 2 -1.7763 -0.0402
-6 -3 3 -6.1925 0.0142
-6 -3 4 -3.6493 -0.0703
-6 -3 5 -2.1924 0.0609
-6 -3 6 -7.0365 -0.0041
-6 -3 11 1.2764 0.0218
-6 -3 12 -2.9583 -0.0257
-6 -3 13 -4.9716 -0.0127
-6 -3 14 -2.5652 0.0041
-6 -3 15 -1.7773 -0.0150
-6 -3 16 -2.5291 -0.0087
-6 -3 17 -2.0344 -0.0137
-6 -3 18 -0.3093 -0.0392
-6 -3 19 0.8764 -0.0125
-6 -2 1 2.7948 -0.0037
-6 -2 2 -8.2725 -0.0857
-6 -2 3 -8.5041 -0.0714
-6 -2 4 2.1041 -0.0088
-6 -2 5 -2.7716 0.0581
-6 -2 6 -13.1468 -0.0208
-6 -2 11 1.3706 0.0059
-6 -2 12 -2.9371 -0.0253
-6 -2 13 -5.6108 -0.0193
-6 -2 14 -1.5816 0.0192
-6 -2 15 -0.0696 -0.0227
-6 -2 16 -0.7927 -0.0209
-6 -2 17 -0.0362 -0.0126
-6 -2 18 0.3319 -0.0416
-6 -2 19 0.8727 0.0265
-6 -2 20 1.4031 0.0523
-6 -1 1 -2.6288 0.3354
-6 -1 2 -11.3982 -0.0869
-6 -1 3 -4.8476 -0.0466
-6 -1 4 5.2864 0.0519
-6 -1 5 -1.8102 -0.0700
-6 -1 6 -8.6831 -0.0090
-6 -1 11 0.5745 0.0001
-6 -1 12 -1.1563 0.0060
-6 -1 13 -3.2253 -0.0178
-6 -1 14 -1.0412 0.0236
-6 -1 15 -0.2389 -0.0146
-6 -1 16 -0.3823 -0.0063
-6 -1 17 0.6233 0.0036
-6 -1 18 -0.3142 -0.0469
-6 -1 19 -0.3952 0.0030
-6 -1 20 1.4122 -0.0107
-6 0 1 -11.4839 0.4399
-6 0 2 -9.3972 -0.0064
-6 0 3 2.7396 0.0872
-6 0 4 3.2076 0.0939
-6 0 5 -4.0197 -0.1305
-6 0 6 -0.3815 0.0176
-6 0 11 -2.7855 -0.0095
-6 0 12 -0.4148 0.0266
-6 0 13 -0.4351 0.0008
-6 0 14 -1.2065 0.0136
-6 0 15 -1.3684 0.0156
-6 0 16 -1.0479 0.0102
-6 0 17 0.2466 0.0174
-6 0 18 -0.2890 -0.0114
-6 0 19 -1.1421 -0.0537
-6 1 1 -16.3171 0.2021
-6 1 2 -4.3714 0.0407
-6 1 3 8.6659 0.0678
-6 1 4 -2.0034 0.0754
-6 1 5 -9.8480 -0.0522
-6 1 6 2.1209 0.0093
-6 1 7 6.4365 0.0586
-6 1 11 -6.7745 -0.0332
-6 1 12 -0.8588 0.0298
-6 1 13 0.5579 0.0204
-6 1 14 -2.0013 -0.0245
-6 1 15 -2.1999 0.0420
-6 1 16 -1.1371 -0.0099
-6 1 17 -0.0543 -0.0186
-6 1 18 0.1470 0.0707
-6 1 19 -0.1407 0.0002
-6 2 1 -14.0327 -0.0551
-6 2 2 1.6679 0.0147
-6 2 3 11.1486 -0.0958
-6 2 4 -3.4259 0.0146
-6 2 5 -10.7422 0.0267
-6 2 6 0.6431 -0.0150
-6 2 7 4.0837 0.0402
-6 2 8 -2.5548 -0.0577
-6 2 9 -6.3454 -0.0142
-6 2 11 -5.3063 -0.0523
-6 2 12 1.1644 0.0330
-6 2 13 2.1041 0.0185
-6 2 14 -0.7289 -0.0653
-6 2 15 -1.7872 0.0331
-6 2 16 -0.7815 -0.0335
-6 2 17 -0.1149 -0.0686
-6 2 18 -0.7232 0.0727
-6 2 19 -0.0643 0.0733
-6 3 1 -5.3153 -0.1367
-6 3 2 8.3644 0.0178
-6 3 3 9.0976 -0.1015
-6 3 4 -1.1725 -0.0133
-6 3 5 -3.2009 0.0491
-6 3 6 0.5325 0.0114
-6 3 7 0.5290 0.0011
-6 3 8 -0.9046 -0.0542
-6 3 9 -3.9319 0.0091
-6 3 10 -5.6615 0.0319
-6 3 11 -0.5359 -0.0267
-6 3 12 3.4826 0.0303
-6 3 13 2.2240 0.0090
-6 3 14 1.0152 -0.0337
-6 3 15 -0.2335 0.0242
-6 3 16 -0.7298 0.0066
-6 3 17 -0.4079 -0.0223
-6 3 18 -1.5530 0.0106
-6 4 1 2.6961 -0.2295
-6 4 2 11.9995 0.0624
-6 4 3 1.1766 0.0503
-6 4 4 -3.3727 -0.0467
-6 4 5 3.1373 0.0699
-6 4 6 0.9783 0.0473
-6 4 7 -2.0299 -0.0579
-6 4 8 0.3001 0.0198
-6 4 9 -2.9691 0.0312
-6 4 10 -4.8537 -0.0134
-6 4 11 1.5072 0.0204
-6 4 12 3.3632 -0.0091
-6 4 13 -0.2341 -0.0098
-6 4 14 0.0172 0.0220
-6 4 15 0.8978 0.0099
-6 4 16 -0.1724 0.0349
-6 4 17 -0.2032 0.0348
-6 4 18 -0.6079 -0.0042
-6 5 1 3.3570 -0.3355
-6 5 2 8.9396 0.0833
-6 5 3 -5.5657 0.0936
-6 5 4 -6.9973 -0.1224
-6 5 5 3.0561 0.0753
-6 5 6 1.0872 0.0005
-6 5 7 -0.7129 -0.1016
-6 5 8 2.2973 0.0893
-6 5 9 -1.1851 -0.0019
-6 5 10 -2.8866 -0.0511
-6 5 11 1.9607 0.0388
-6 5 12 2.5422 -0.0511
-6 5 13 -1.0953 -0.0303
-6 5 14 -0.9936 0.0162
-6 5 15 0.6834 -0.0314
-6 5 16 0.4444 -0.0270
-6 5 17 0.6836 -0.0282
-6 6 1 0.0733 -0.1726
-6 6 2 1.5597 0.0539
-6 6 3 -4.7317 0.0136
-6 6 4 -3.8873 -0.1006
-6 6 5 0.7268 0.0349
-6 6 6 0.8486 -0.0654
-6 6 7 2.7346 -0.0636
-6 6 8 3.6594 0.0840
-6 6 9 0.5648 -0.0399
-6 6 10 0.5940 -0.0471
-6 6 11 2.4147 0.0458
-6 6 12 0.7583 -0.0234
-6 6 13 -1.0623 -0.0257
-6 6 14 -0.3035 0.0137
-6 6 15 -0.0335 -0.0170
-6 6 16 -0.1732 -0.0561
-6 7 1 -2.9216 0.2172
-6 7 2 -5.9098 -0.0495
-6 7 3 -2.5149 -0.0324
-6 7 4 0.2274 0.0493
-6 7 5 -2.3139 -0.0289
-6 7 6 -0.8305 -0.0392
-6 7 7 4.0168 0.0233
-6 7 8 2.6005 0.0294
-6 7 9 -0.3003 -0.0147
-6 7 10 1.3594 -0.0265
-6 7 11 1.8084 0.0380
-6 7 12 -1.0644 0.0161
-6 7 13 -1.7412 -0.0346
-6 7 14 0.0301 0.0456
-6 7 15 -0.0643 0.0617
-6 7 16 -0.4376 0.0278
-6 8 1 -4.4410 0.4673
-6 8 2 -9.0169 -0.1627
-6 8 3 -2.6865 -0.0371
-6 8 4 -0.0898 0.1246
-6 8 5 -4.4552 -0.0881
-6 8 6 -1.8778 0.0228
-6 8 7 3.5077 0.0578
-6 8 8 2.1332 -0.0273
-6 8 9 0.3311 0.0246
-6 8 10 1.1213 -0.0155
-6 8 11 0.1087 -0.0049
-6 8 12 -1.3870 -0.0030
-6 8 13 -0.8806 -0.0467
-6 8 14 -0.1202 0.0420
-6 8 15 -0.1526 0.0769
-6 9 1 -3.1543 0.4306
-6 9 2 -6.5174 -0.1288
-6 9 3 -1.7426 -0.0501
-6 9 4 -0.1766 0.0777
-6 9 5 -2.3225 -0.0882
-6 9 6 -0.2961 0.0224
-6 9 7 2.0173 0.0527
-6 9 8 2.0442 -0.0476
-6 9 9 3.5092 0.0147
-6 9 10 2.5556 0.0149
-6 9 12 -2.8506 0.0067
-6 9 13 -0.0310 0.0353
-6 9 14 0.1113 0.0193
-6 10 1 -0.8669 0.2159
-6 10 2 -2.6717 0.0153
-6 10 3 -0.8462 -0.0555
-6 10 4 0.3738 0.0537
-6 10 5 1.6628 -0.0116
-6 10 6 2.1821 -0.0103
-6 10 7 0.0342 0.0622
-6 10 8 0.8690 -0.0350
-6 10 9 5.5345 -0.0146
-6 10 10 4.0547 0.0490
-6 10 11 -2.9049 -0.0190
-6 10 12 -4.0874 0.0883
-6 10 13 -0.5761 0.1551
-6 11 1 0.3288 -0.0615
-6 11 2 0.7282 0.0681
-6 11 3 -0.8614 -0.0270
-6 11 4 -1.1370 0.0480
-6 11 5 2.6896 0.0372
-6 11 6 3.1115 -0.0135
-6 11 7 -0.7488 0.0392
-6 11 8 0.4603 -0.0362
-6 12 1 0.6850 -0.2937
-6 12 2 3.8494 0.0225
-6 12 3 1.1461 0.0401
-6 12 4 -1.3766 -0.0268
-6 12 5 1.6184 0.0083
-6 12 6 1.5943 0.0082
-6 12 7 -1.0781 -0.0440
-6 12 8 0.6163 -0.0431
-6 13 1 0.6111 -0.3798
-6 13 2 4.5979 0.0200
-6 13 3 3.6898 0.0974
-6 13 4 1.7474 -0.1075
-6 13 5 2.0511 0.0068
-6 13 6 -0.2225 0.0371
-6 13 7 -1.3163 -0.0967
-6 13 8 0.7410 -0.0002
-6 14 1 1.0981 -0.2831
-6 14 2 3.4735 0.0578
-6 14 3 3.2951 0.0686
-6 14 4 3.2898 -0.1062
-6 14 5 2.4062 0.0595
-6 14 6 -0.6586 0.0503
-6 14 7 -0.5768 -0.0715
-6 15 1 2.2532 -0.0495
-6 15 2 3.0048 0.0543
-6 15 3 1.7027 -0.0219
-6 15 4 1.2628 -0.0520
-6 15 5 0.1740 0.0667
-6 15 6 -0.8556 0.0182
-6 15 7 0.1913 -0.0457
-6 16 1 2.7918 0.1684
-6 16 2 2.9355 0.0238
-6 16 3 1.9047 -0.0721
-6 16 4 0.4929 -0.0023
-6 16 5 -1.1649 0.0333
-6 17 1 2.1244 0.2101
-6 17 2 1.8145 -0.0055
-6 17 3 2.1388 -0.0768
-6 18 1 0.8727 0.1191
-5 -16 5 0.4474 -0.0507
-5 -16 6 1.9641 0.0118
-5 -16 7 1.3512 0.0508
-5 -16 8 2.2608 0.0097
-5 -16 9 4.1357 -0.0353
-5 -16 10 2.7111 -0.0242
-5 -16 11 1.0911 0.0114
-5 -16 12 0.9126 0.0243
-5 -16 13 0.4181 -0.0148
-5 -16 14 0.0853 -0.0603
-5 -15 2 1.6024 0.0989
-5 -15 3 1.5261 0.0387
-5 -15 4 -1.4352 -0.0646
-5 -15 5 -1.0038 -0.0190
-5 -15 6 -0.1333 0.0289
-5 -15 7 -1.4520 0.0185
-5 -15 8 0.9784 -0.0158
-5 -15 9 3.9196 -0.0228
-5 -15 10 2.7375 0.0266
-5 -15 11 1.3200 0.0266
-5 -15 12 0.4203 -0.0030
-5 -15 13 -0.5400 -0.0200
-5 -15 14 -0.5059 -0.0313
-5 -15 15 -0.6306 -0.0141
-5 -15 16 -0.8849 -0.0381
-5 -14 1 0.2514 -0.0137
-5 -14 2 2.3435 0.1504
-5 -14 5 -0.8496 0.0368
-5 -14 6 -1.7257 0.0186
-5 -14 7 -1.6576 -0.0270
-5 -14 8 1.3726 -0.0150
-5 -14 9 3.2338 -0.0118
-5 -14 10 2.4935 0.0277
-5 -14 11 1.7165 0.0304
-5 -14 12 0.0466 0.0000
-5 -14 13 -2.1488 -0.0006
-5 -14 14 -1.6027 0.0064
-5 -14 15 -0.4667 -0.0112
-5 -14 16 -1.3483 -0.0549
-5 -14 17 -0.8966 -0.0439
-5 -13 1 3.2387 0.0029
-5 -13 2 1.4008 0.0552
-5 -13 3 -1.8471 -0.1047
-5 -13 4 0.3123 -0.0447
-5 -13 5 0.1174 0.0653
-5 -13 6 -2.2543 -0.0154
-5 -13 7 -0.2315 -0.0455
-5 -13 8 2.8064 -0.0114
-5 -13 9 4.2960 -0.0098
-5 -13 11 4.0227 0.0103
-5 -13 12 2.4384 0.0056
-5 -13 13 -0.6393 0.0290
-5 -13 14 -0.6385 0.0151
-5 -13 15 1.2437 -0.0285
-5 -13 16 -0.0289 -0.0295
-5 -13 17 0.3717 -0.0130
-5 -12 1 5.8175 0.0983
-5 -12 2 1.7701 -0.1024
-5 -12 3 -3.3103 -0.0717
-5 -12 4 -0.1882 0.0598
-5 -12 5 -0.2166 0.0196
-5 -12 6 -3.2291 -0.0128
-5 -12 7 -2.1802 -0.0146
-5 -12 8 -0.4027 -0.0178
-5 -12 9 1.5104 -0.0088
-5 -12 10 3.7499 -0.0105
-5 -12 13 -0.1191 0.0294
-5 -12 14 0.2108 0.0037
-5 -12 15 1.3895 -0.0180
-5 -12 16 0.1181 0.0100
-5 -12 17 0.9077 0.0020
-5 -12 18 2.2722 -0.0252
-5 -11 1 4.5494 0.1387
-5 -11 2 2.7114 -0.1803
-5 -11 3 1.1886 0.0310
-5 -11 4 1.3473 0.0760
-5 -11 5 -0.3784 -0.0527
-5 -11 6 -3.0280 0.0238
-5 -11 7 -3.8446 0.0239
-5 -11 8 -3.4660 -0.0146
-5 -11 9 -2.5189 -0.0005
-5 -11 10 0.4070 -0.0194
-5 -11 11 2.1370 -0.0209
-5 -11 12 -0.4089 -0.0005
-5 -11 13 -1.4339 0.0020
-5 -11 14 0.6881 -0.0060
-5 -11 15 0.4723 0.0152
-5 -11 16 -0.7698 0.0236
-5 -11 17 -0.0075 -0.0047
-5 -11 18 1.1555 -0.0216
-5 -11 19 1.4911 -0.0598
-5 -10 1 1.6951 0.1007
-5 -10 2 0.6766 -0.0831
-5 -10 3 3.4155 0.0839
-5 -10 4 2.0513 0.0399
-5 -10 5 -1.3366 -0.0405
-5 -10 6 -2.5286 0.0352
-5 -10 7 -2.4536 0.0349
-5 -10 8 -2.0697 0.0076
-5 -10 9 -1.6917 0.0057
-5 -10 10 0.5126 -0.0143
-5 -10 11 1.0961 -0.0104
-5 -10 12 -2.0182 -0.0009
-5 -10 13 -1.0118 -0.0158
-5 -10 14 2.0577 0.0018
-5 -10 15 0.4031 0.0244
-5 -10 16 -1.0579 0.0091
-5 -10 17 -0.3867 0.0101
-5 -10 18 0.4827 0.0021
-5 -10 19 1.7906 -0.0184
-5 -9 1 1.9755 0.0616
-5 -9 2 -0.8211 0.0696
-5 -9 3 0.6942 0.0203
-5 -9 4 0.0319 0.0238
-5 -9 5 -2.9316 0.0137
-5 -9 6 -3.3847 -0.0009
-5 -9 7 -2.2787 0.0395
-5 -9 8 -1.6381 0.0246
-5 -9 9 0.5584 0.0036
-5 -9 10 2.8088 0.0057
-5 -9 11 0.3029 0.0042
-5 -9 12 -2.4048 0.0036
-5 -9 13 0.5018 -0.0076
-5 -9 14 2.4732 0.0182
-5 -9 15 -0.4066 0.0197
-5 -9 16 -2.1557 0.0000
-5 -9 17 -0.6813 0.0332
-5 -9 18 1.0647 0.0355
-5 -9 19 1.1265 0.0207
-5 -9 20 0.0162 0.0456
-5 -8 1 2.4961 0.0070
-5 -8 2 0.3959 0.0795
-5 -8 3 -1.5140 -0.0613
-5 -8 4 -0.2403 0.0049
-5 -8 5 0.6203 -0.0136
-5 -8 6 -2.2662 -0.0249
-5 -8 7 -4.9640 0.0485
-5 -8 8 -3.6495 0.0116
-5 -8 9 1.1114 0.0064
-5 -8 10 2.9978 0.0186
-5 -8 11 -0.3243 0.0043
-5 -8 12 -1.0046 0.0124
-5 -8 13 2.1575 0.0010
-5 -8 14 2.1761 0.0050
-5 -8 15 -1.0851 0.0137
-5 -8 16 -3.0920 0.0055
-5 -8 17 -1.1659 0.0154
-5 -8 18 2.1040 0.0259
-5 -8 19 1.3472 0.0204
-5 -8 20 -0.9810 0.0395
-5 -8 21 -0.5016 0.0819
-5 -7 1 -0.8108 -0.1098
-5 -7 2 -0.1393 -0.0001
-5 -7 3 -3.5168 -0.0185
-5 -7 4 1.3653 -0.0495
-5 -7 5 9.2954 -0.0799
-5 -7 6 2.6411 -0.0016
-5 -7 7 -7.1343 0.0155
-5 -7 8 -4.0247 -0.0250
-5 -7 9 1.6174 0.0013
-5 -7 10 0.6687 0.0060
-5 -7 11 -0.0994 -0.0044
-5 -7 12 2.4512 0.0038
-5 -7 13 3.5644 -0.0080
-5 -7 14 1.9713 -0.0256
-5 -7 15 -0.1327 -0.0058
-5 -7 16 -2.1742 0.0023
-5 -7 17 -1.5773 -0.0114
-5 -7 18 2.3918 -0.0032
-5 -7 19 3.0052 -0.0164
-5 -7 20 -0.2553 0.0224
-5 -7 21 -0.6286 0.0808
-5 -6 1 -3.0155 -0.2395
-5 -6 2 -2.6747 0.0065
-5 -6 3 -5.4341 0.0724
-5 -6 4 2.5267 -0.0984
-5 -6 5 13.5835 -0.0382
-5 -6 7 -4.3201 -0.0555
-5 -6 10 -1.7651 -0.0081
-5 -6 11 0.7646 0.0068
-5 -6 12 5.0714 -0.0109
-5 -6 13 3.4099 -0.0078
-5 -6 14 0.7709 -0.0192
-5 -6 15 0.0370 -0.0205
-5 -6 16 -1.7522 -0.0134
-5 -6 17 -2.7396 -0.0153
-5 -6 18 0.8119 -0.0094
-5 -6 19 3.2879 -0.0267
-5 -6 20 0.6512 0.0060
-5 -6 21 -0.4816 0.0482
-5 -5 1 -0.7851 -0.2356
-5 -5 2 -5.3902 0.0756
-5 -5 3 -3.9540 0.0400
-5 -5 4 4.5179 -0.0657
-5 -5 5 7.3748 0.1010
-5 -5 6 3.2206 0.0062
-5 -5 11 2.4430 0.0180
-5 -5 12 4.7969 -0.0163
-5 -5 13 2.1150 0.0077
-5 -5 14 0.1476 0.0097
-5 -5 15 -0.9902 -0.0224
-5 -5 16 -2.8970 -0.0194
-5 -5 17 -3.3351 -0.0205
-5 -5 18 -0.6385 -0.0346
-5 -5 19 1.4712 -0.0129
-5 -5 20 0.2245 -0.0043
-5 -5 21 -0.6451 -0.0164
-5 -4 1 2.3941 -0.0380
-5 -4 2 -7.6342 0.0458
-5 -4 3 -0.1993 -0.0637
-5 -4 4 6.2785 0.0218
-5 -4 5 -3.2285 0.1320
-5 -4 6 -4.2202 -0.0116
-5 -4 11 3.4705 0.0024
-5 -4 12 1.5404 -0.0182
-5 -4 13 -0.5143 0.0136
-5 -4 14 0.5185 0.0265
-5 -4 15 -1.1018 -0.0182
-5 -4 16 -3.2283 0.0005
-5 -4 17 -1.8507 -0.0090
-5 -4 18 0.2041 -0.0509
-5 -4 19 0.6301 0.0039
-5 -4 20 0.1274 0.0028
-5 -3 1 2.5309 0.2083
-5 -3 2 -6.1709 -0.0735
-5 -3 3 2.8457 -0.0378
-5 -3 4 3.7795 0.0672
-5 -3 5 -7.6144 -0.0160
-5 -3 12 -1.2823 -0.0034
-5 -3 13 -3.4122 0.0100
-5 -3 14 -0.5982 0.0327
-5 -3 15 -0.5116 -0.0058
-5 -3 16 -1.4573 0.0216
-5 -3 17 0.1829 0.0210
-5 -3 18 0.8962 -0.0044
-5 -3 19 0.6806 0.0397
-5 -3 20 0.7831 0.0187
-5 -2 1 -2.7301 0.3131
-5 -2 2 -1.6016 -0.1102
-5 -2 3 3.4646 0.1016
-5 -2 4 -3.4340 0.0693
-5 -2 5 -4.5133 -0.1351
-5 -2 12 -0.8792 0.0198
-5 -2 13 -3.3048 0.0019
-5 -2 14 -2.3568 0.0073
-5 -2 15 -0.4096 0.0017
-5 -2 16 0.8221 0.0110
-5 -2 17 1.5430 0.0225
-5 -2 18 -0.0686 0.0328
-5 -2 19 -0.7854 0.0340
-5 -2 20 0.1932 0.0049
-5 -1 1 -8.8202 0.2138
-5 -1 2 1.1734 -0.0626
-5 -1 3 -0.3392 0.0956
-5 -1 4 -11.8647 0.0745
-5 -1 5 -1.7557 -0.0968
-5 -1 12 -1.9611 0.0335
-5 -1 13 -2.5715 -0.0067
-5 -1 14 -3.2171 -0.0401
-5 -1 15 -1.1397 0.0176
-5 -1 16 1.1703 -0.0079
-5 -1 17 1.9518 0.0166
-5 -1 18 -0.2854 0.0378
-5 -1 19 -1.8275 -0.0496
-5 -1 20 -0.9532 -0.0600
-5 0 1 -7.5870 0.0289
-5 0 2 1.0956 -0.0479
-5 0 3 -7.4061 -0.0853
-5 0 4 -15.9777 0.0702
-5 0 5 -2.2715 -0.0187
-5 0 12 -6.0129 0.0474
-5 0 13 -3.9465 -0.0065
-5 0 14 -3.2570 -0.0564
-5 0 15 -1.8337 0.0494
-5 0 16 0.0467 -0.0143
-5 0 17 0.8851 0.0094
-5 0 18 0.1546 0.0547
-5 0 19 -0.4242 -0.0934
-5 1 1 1.9379 -0.0918
-5 1 2 1.3813 -0.0053
-5 1 3 -11.2519 -0.1348
-5 1 4 -9.4424 0.0189
-5 1 5 0.7403 0.0069
-5 1 6 -0.9496 -0.0095
-5 1 11 -5.9284 -0.0254
-5 1 12 -7.0589 0.0349
-5 1 13 -4.1308 -0.0038
-5 1 14 -1.4478 -0.0405
-5 1 15 -0.9804 0.0402
-5 1 16 -0.4152 -0.0145
-5 1 17 -0.7247 -0.0339
-5 1 18 -0.8021 0.0311
-5 1 19 0.4992 -0.0434
-5 2 1 13.4913 -0.2187
-5 2 2 4.2268 0.1156
-5 2 3 -8.8734 0.0166
-5 2 4 3.5338 -0.0852
-5 2 5 7.9750 0.0338
-5 2 6 -5.5892 0.0202
-5 2 7 -3.5533 -0.0407
-5 2 8 4.6846 -0.0022
-5 2 9 0.0953 -0.0071
-5 2 10 -3.2167 -0.0027
-5 2 11 -3.1755 0.0065
-5 2 12 -5.4996 -0.0182
-5 2 13 -3.3851 0.0018
-5 2 14 0.9453 -0.0144
-5 2 15 1.0570 -0.0099
-5 2 16 -0.4104 0.0107
-5 2 17 -1.3009 -0.0442
-5 2 18 -1.4252 -0.0283
-5 2 19 -0.3898 -0.0122
-5 3 1 16.8127 -0.4026
-5 3 2 6.4970 0.1645
-5 3 3 -4.9442 0.0801
-5 3 4 7.1788 -0.1719
-5 3 5 7.6887 0.0918
-5 3 6 -6.0374 0.0023
-5 3 7 -3.8902 -0.1109
-5 3 8 0.2387 0.0645
-5 3 9 -5.1977 -0.0236
-5 3 10 -5.4685 -0.0230
-5 3 11 -3.0333 0.0399
-5 3 12 -4.5963 -0.0527
-5 3 13 -3.3693 0.0058
-5 3 14 1.6412 0.0119
-5 3 15 2.5167 -0.0274
-5 3 16 -0.4136 0.0330
-5 3 17 -0.5324 0.0103
-5 3 18 0.2919 -0.0196
-5 4 1 8.6968 -0.3590
-5 4 2 5.3073 0.0802
-5 4 3 -0.4114 -0.0124
-5 4 4 -0.0559 -0.1357
-5 4 5 -2.3911 0.1094
-5 4 6 -4.0491 -0.0414
-5 4 7 -1.6165 -0.1050
-5 4 8 -3.7784 0.0802
-5 4 9 -5.8920 -0.0017
-5 4 10 -3.4094 -0.0158
-5 4 11 -2.5922 0.0385
-5 4 12 -3.2198 -0.0305
-5 4 13 -1.4894 -0.0044
-5 4 14 1.8648 0.0360
-5 4 15 2.0323 -0.0031
-5 4 16 -0.4511 -0.0090
-5 4 17 0.4238 0.0206
-5 4 18 1.7956 0.0244
-5 5 1 -0.3129 0.0423
-5 5 2 2.6970 -0.0227
-5 5 3 5.7137 -0.0307
-5 5 4 -3.8990 0.0114
-5 5 5 -9.5165 0.0479
-5 5 6 -1.3225 -0.0173
-5 5 7 1.1351 -0.0427
-5 5 9 -3.1285 0.0368
-5 5 10 1.3858 -0.0354
-5 5 11 -1.1084 0.0164
-5 5 12 -2.7144 0.0159
-5 5 13 0.5860 -0.0117
-5 5 14 2.3053 0.0619
-5 5 15 0.2780 0.0127
-5 5 16 -1.0231 -0.0605
-5 5 17 0.3468 -0.0253
-5 6 1 -2.7584 0.4034
-5 6 2 0.3769 -0.0938
-5 6 3 7.1834 0.0462
-5 6 4 -1.8637 0.1208
-5 6 5 -8.1036 -0.0316
-5 6 6 -1.0554 0.0405
-5 6 7 -0.1483 0.0217
-5 6 8 -5.3066 0.0233
-5 6 9 -1.9693 0.0429
-5 6 10 2.9278 -0.0515
-5 6 11 -0.2090 0.0143
-5 6 12 -2.7363 0.0318
-5 6 13 0.4313 -0.0121
-5 6 14 1.8663 0.0430
-5 6 15 -0.1173 -0.0031
-5 6 16 -0.7831 -0.0242
-5 7 1 -1.2070 0.4196
-5 7 2 -0.0773 -0.1263
-5 7 3 3.3760 0.0337
-5 7 4 -0.4227 0.1194
-5 7 5 -3.5557 -0.0724
-5 7 6 -2.1796 0.0173
-5 7 7 -2.6111 0.0485
-5 7 8 -3.4158 -0.0109
-5 7 9 -0.0733 -0.0064
-5 7 10 2.4393 -0.0190
-5 7 11 0.4576 -0.0008
-5 7 12 -0.4021 0.0073
-5 7 13 0.8179 -0.0137
-5 7 14 0.5472 -0.0417
-5 7 15 0.1989 -0.0161
-5 8 1 0.7137 0.2509
-5 8 2 1.2397 -0.0788
-5 8 3 1.0164 -0.0564
-5 8 4 0.3180 0.0873
-5 8 5 -0.0206 -0.0776
-5 8 6 -2.1981 -0.0473
-5 8 7 -3.5493 0.0714
-5 8 8 -0.7749 -0.0692
-5 8 9 3.1087 -0.0529
-5 8 10 2.7297 0.0375
-5 8 11 0.2482 -0.0476
-5 8 12 1.0157 -0.0022
-5 8 13 1.3582 0.0091
-5 8 14 -0.7731 -0.0854
-5 8 15 -0.8223 0.0148
-5 9 1 0.2719 0.0393
-5 9 2 0.5109 -0.0054
-5 9 3 -0.4428 -0.0749
-5 9 4 0.4235 0.0534
-5 9 5 1.4788 -0.0609
-5 9 6 -1.6406 -0.0322
-5 9 7 -4.0748 0.0930
-5 9 8 -0.5538 -0.0758
-5 9 9 4.1481 -0.0232
-5 9 10 3.4774 0.0600
-5 9 11 0.3748 -0.0633
-5 9 12 -0.0190 0.0283
-5 9 13 0.0154 0.0485
-5 9 14 -1.0587 -0.0260
-5 10 1 -1.8620 -0.2335
-5 10 2 -0.9769 0.0193
-5 10 3 -2.1581 -0.0057
-5 10 4 -1.0562 -0.0391
-5 10 5 0.6877 -0.0223
-5 10 6 -1.4430 0.0328
-5 10 7 -3.0461 0.0354
-5 10 8 -0.1846 -0.0240
-5 10 9 2.9581 0.0301
-5 10 10 3.0516 0.0260
-5 10 11 1.5036 -0.0207
-5 10 12 -0.1758 0.0421
-5 10 13 -1.0818 0.0497
-5 11 1 -3.0930 -0.4268
-5 11 2 -0.0605 0.0454
-5 11 3 -0.5700 0.0681
-5 11 4 -1.1957 -0.1275
-5 11 5 -1.2654 0.0329
-5 11 6 -1.9141 0.0413
-5 11 7 -0.1120 -0.0680
-5 11 8 1.6704 0.0203
-5 11 9 0.7046 0.0172
-5 11 10 0.5411 -0.0209
-5 11 11 0.7637 0.0307
-5 11 12 -0.1781 0.0084
-5 12 1 -4.0402 -0.3662
-5 12 2 0.1765 0.0883
-5 12 3 2.6235 0.0848
-5 12 4 1.0490 -0.0980
-5 12 5 -2.1637 0.0717
-5 12 6 -1.9695 0.0015
-5 12 7 2.6673 -0.0817
-5 12 8 3.0429 0.0488
-5 13 1 -4.9100 -0.1355
-5 13 2 -1.0667 0.0690
-5 13 3 3.3259 0.0454
-5 13 4 1.8602 -0.0117
-5 13 5 -2.2950 0.0523
-5 13 6 -1.0493 -0.0150
-5 13 7 3.5515 -0.0219
-5 13 8 2.9951 0.0512
-5 14 1 -4.5854 0.0594
-5 14 2 -0.5154 0.0086
-5 14 3 2.6535 0.0113
-5 14 4 0.1494 0.0170
-5 14 5 -3.0844 0.0037
-5 14 6 -0.7431 0.0039
-5 14 7 2.1509 -0.0032
-5 15 1 -3.2713 0.1232
-5 15 2 0.8232 -0.0040
-5 15 3 2.1934 0.0042
-5 15 4 -0.3652 0.0147
-5 15 5 -2.4030 0.0107
-5 15 6 -0.8440 0.0329
-5 15 7 0.3832 -0.0058
-5 16 1 -1.3429 0.0853
-5 16 2 0.1837 -0.0008
-5 16 3 0.4789 -0.0369
-5 16 4 0.6675 0.0190
-5 16 5 0.2196 0.0477
-5 17 1 0.5998 0.0378
-5 17 2 -0.9811 -0.0405
-5 17 3 -1.6850 -0.0976
-5 18 1 1.4446 0.0379
-4 -17 6 -1.4396 0.0141
-4 -17 7 1.0090 0.0259
-4 -17 8 2.5282 -0.0130
-4 -17 9 1.2675 -0.0191
-4 -17 10 0.3118 -0.0069
-4 -17 11 0.8308 -0.0118
-4 -17 12 0.9952 0.0333
-4 -17 13 0.7453 0.0339
-4 -16 2 1.0742 0.0680
-4 -16 3 0.9969 -0.0300
-4 -16 4 -0.0143 -0.0122
-4 -16 5 -1.7819 0.0248
-4 -16 6 -2.1270 -0.0126
-4 -16 7 0.2789 -0.0115
-4 -16 8 1.0537 -0.0186
-4 -16 9 -0.0137 -0.0165
-4 -16 10 0.0401 -0.0013
-4 -16 11 -0.2225 -0.0127
-4 -16 12 -0.6814 0.0024
-4 -16 13 -0.1040 0.0149
-4 -16 14 -0.3237 0.0087
-4 -16 15 -1.5854 0.0235
-4 -15 1 0.2230 0.0347
-4 -15 2 0.4516 0.0420
-4 -15 3 1.3450 -0.0637
-4 -15 4 2.3827 0.0021
-4 -15 5 -0.4845 0.0273
-4 -15 6 -1.1217 -0.0328
-4 -15 7 1.5441 -0.0198
-4 -15 8 0.7904 0.0091
-4 -15 9 -0.4244 -0.0013
-4 -15 10 0.1423 -0.0088
-4 -15 11 -0.6194 -0.0163
-4 -15 12 -1.5078 -0.0237
-4 -15 13 -0.9230 -0.0080
-4 -15 14 -0.2230 -0.0001
-4 -15 15 -1.4296 0.0071
-4 -15 16 -2.5710 0.0223
-4 -15 17 -0.3937 0.0200
-4 -14 1 1.8259 0.0292
-4 -14 2 -2.1036 -0.0428
-4 -14 3 -0.9605 -0.0012
-4 -14 4 2.4107 0.0341
-4 -14 5 -0.1399 -0.0006
-4 -14 6 -0.1050 -0.0151
-4 -14 7 2.9354 -0.0025
-4 -14 8 2.3744 0.0315
-4 -14 9 1.4510 0.0199
-4 -14 10 1.1297 -0.0142
-4 -14 11 0.5313 -0.0282
-4 -14 12 0.4434 -0.0256
-4 -14 13 0.3750 -0.0081
-4 -14 14 0.9294 -0.0237
-4 -14 15 0.1214 -0.0073
-4 -14 16 -0.9907 0.0334
-4 -14 17 1.3353 0.0117
-4 -13 2 -2.4316 -0.0737
-4 -13 3 -2.0425 0.0675
-4 -13 4 0.0146 0.0339
-4 -13 5 -0.5636 -0.0139
-4 -13 6 0.0051 0.0174
-4 -13 7 1.2863 0.0100
-4 -13 8 0.4552 0.0349
-4 -13 9 -0.8835 0.0384
-4 -13 10 -1.1261 0.0031
-4 -13 11 -0.7500 -0.0185
-4 -13 12 -0.3912 -0.0101
-4 -13 13 0.1525 0.0045
-4 -13 14 0.1787 -0.0126
-4 -13 15 -0.7633 0.0064
-4 -13 16 -0.2179 0.0385
-4 -13 17 1.6724 0.0258
-4 -12 1 -1.2245 0.0758
-4 -12 2 -0.7428 -0.0335
-4 -12 3 1.2079 0.0257
-4 -12 4 0.2881 0.0056
-4 -12 5 0.6724 -0.0152
-4 -12 6 1.1469 0.0003
-4 -12 7 0.7907 0.0106
-4 -12 8 -1.5032 0.0288
-4 -12 9 -5.0776 0.0366
-4 -12 12 -3.1487 0.0067
-4 -12 13 -1.4457 0.0106
-4 -12 14 -1.0370 0.0074
-4 -12 15 -2.4029 0.0104
-4 -12 16 -0.4478 0.0104
-4 -12 17 0.3604 0.0148
-4 -12 18 -0.2046 0.0340
-4 -11 1 -2.8334 0.1464
-4 -11 2 -1.0083 -0.0030
-4 -11 3 2.7957 -0.0624
-4 -11 4 1.8250 0.0416
-4 -11 5 1.1013 -0.0130
-4 -11 6 0.8072 -0.0470
-4 -11 7 1.4551 0.0127
-4 -11 8 -0.0536 0.0001
-4 -11 9 -4.0799 0.0074
-4 -11 10 -3.1728 0.0077
-4 -11 11 -1.7407 -0.0085
-4 -11 12 -3.3396 0.0119
-4 -11 13 -1.7071 0.0109
-4 -11 14 -0.5827 -0.0006
-4 -11 15 -1.4962 -0.0147
-4 -11 16 -0.0830 -0.0201
-4 -11 17 -0.3342 -0.0109
-4 -11 18 -1.3086 0.0005
-4 -10 1 0.9482 0.1273
-4 -10 2 -0.9143 -0.0381
-4 -10 3 0.3477 -0.0605
-4 -10 4 1.4373 0.0866
-4 -10 5 -0.4386 -0.0363
-4 -10 6 -2.3138 -0.0456
-4 -10 7 -0.5166 0.0147
-4 -10 8 0.6521 -0.0449
-4 -10 9 -0.6031 -0.0237
-4 -10 10 -1.1230 -0.0105
-4 -10 11 -1.5629 -0.0131
-4 -10 12 -2.3744 0.0193
-4 -10 13 -1.8242 0.0048
-4 -10 14 -0.6175 -0.0149
-4 -10 15 -0.0205 -0.0190
-4 -10 16 -0.1998 -0.0241
-4 -10 17 -0.8628 -0.0158
-4 -10 18 -0.9515 -0.0071
-4 -10 19 -0.2832 -0.0118
-4 -9 1 5.1753 -0.0748
-4 -9 2 0.9001 -0.0571
-4 -9 3 -1.5310 0.0456
-4 -9 4 1.5673 0.0156
-4 -9 5 0.4312 -0.0629
-4 -9 6 -3.3868 0.0166
-4 -9 7 -1.9634 0.0062
-4 -9 8 0.6622 -0.0512
-4 -9 9 0.3037 -0.0268
-4 -9 10 -1.1226 -0.0098
-4 -9 11 -1.4193 0.0159
-4 -9 12 -1.3386 0.0271
-4 -9 13 -1.9580 -0.0114
-4 -9 14 -0.7060 -0.0176
-4 -9 15 1.0693 0.0053
-4 -9 16 -0.4257 -0.0172
-4 -9 17 -1.3875 -0.0204
-4 -9 18 0.0593 -0.0059
-4 -9 19 0.0514 -0.0324
-4 -9 20 -0.2288 0.0005
-4 -8 1 3.2838 -0.2890
-4 -8 2 -0.8561 0.0475
-4 -8 3 -2.6714 0.1267
-4 -8 4 1.7339 -0.0911
-4 -8 5 2.6242 -0.0033
-4 -8 6 -0.8515 0.0617
-4 -8 7 0.4647 -0.0130
-4 -8 8 2.2866 -0.0120
-4 -8 9 -1.1493 -0.0221
-4 -8 10 -2.5981 0.0031
-4 -8 11 -0.1977 0.0331
-4 -8 12 -0.6017 0.0005
-4 -8 13 -1.8949 -0.0192
-4 -8 14 0.6280 -0.0058
-4 -8 15 2.3370 0.0126
-4 -8 16 -0.1461 -0.0048
-4 -8 17 -1.2959 -0.0128
-4 -8 18 0.7421 -0.0168
-4 -8 19 0.8879 -0.0301
-4 -8 20 -0.0315 -0.0005
-4 -8 21 0.9611 -0.0247
-4 -7 1 -1.7515 -0.2905
-4 -7 2 -5.3791 0.1506
-4 -7 3 -2.8549 0.0435
-4 -7 4 -0.8421 -0.0887
-4 -7 5 -0.4792 0.1038
-4 -7 6 1.9278 0.0280
-4 -7 7 5.3953 -0.0231
-4 -7 8 3.4653 0.0258
-4 -7 9 -2.6049 -0.0211
-4 -7 10 -2.5481 0.0147
-4 -7 11 0.6884 0.0180
-4 -7 12 -1.6017 -0.0373
-4 -7 13 -2.2357 -0.0024
-4 -7 14 2.0833 0.0223
-4 -7 15 2.4757 0.0009
-4 -7 16 -0.6165 0.0135
-4 -7 17 -1.1402 0.0146
-4 -7 18 -0.0073 -0.0066
-4 -7 19 0.0549 0.0084
-4 -7 20 -0.1286 -0.0106
-4 -7 21 0.4251 -0.0424
-4 -6 1 -4.5727 -0.0817
-4 -6 2 -6.2284 0.0797
-4 -6 3 0.7405 -0.1131
-4 -6 4 -3.9816 -0.0102
-4 -6 5 -8.9147 0.1053
-4 -6 6 1.1195 -0.0314
-4 -6 7 8.3231 -0.0159
-4 -6 8 2.1572 0.0399
-4 -6 9 -2.6567 0.0050
-4 -6 10 0.2219 0.0095
-4 -6 11 0.5410 -0.0014
-4 -6 12 -3.3746 -0.0359
-4 -6 13 -1.4733 0.0103
-4 -6 14 3.2598 0.0299
-4 -6 15 1.3017 -0.0113
-4 -6 16 -1.4809 0.0216
-4 -6 17 -0.6244 0.0154
-4 -6 18 -1.2136 0.0008
-4 -6 19 -1.7570 0.0439
-4 -6 20 -0.5803 -0.0227
-4 -6 21 -0.6483 -0.0281
-4 -5 1 -3.2048 0.1338
-4 -5 2 -1.1553 -0.0676
-4 -5 3 5.4559 -0.0998
-4 -5 4 -4.7152 0.0303
-4 -5 5 -13.1692 -0.0080
-4 -5 10 2.1561 -0.0146
-4 -5 11 -1.4777 -0.0051
-4 -5 12 -4.6241 -0.0099
-4 -5 13 -0.2054 0.0012
-4 -5 14 3.3524 0.0081
-4 -5 15 -0.0714 -0.0171
-4 -5 16 -1.8068 0.0237
-4 -5 17 0.0236 0.0118
-4 -5 18 -1.1916 -0.0047
-4 -5 19 -1.8096 0.0304
-4 -5 20 -0.2432 0.0081
-4 -5 21 -0.7180 0.0456
-4 -4 1 1.1613 0.1932
-4 -4 2 6.4345 -0.1132
-4 -4 3 6.1582 0.0712
-4 -4 4 -3.6733 0.0426
-4 -4 5 -5.4987 -0.0716
-4 -4 9 2.7624 0.0282
-4 -4 10 2.3082 -0.0194
-4 -4 11 -3.5297 0.0059
-4 -4 12 -3.4273 0.0112
-4 -4 13 0.1047 -0.0025
-4 -4 14 1.2446 -0.0017
-4 -4 15 -0.7354 -0.0055
-4 -4 16 -1.3633 0.0137
-4 -4 17 -0.3387 0.0269
-4 -4 18 -0.7280 0.0104
-4 -4 19 -0.3216 -0.0049
-4 -4 20 0.3970 0.0522
-4 -3 1 2.8223 0.1876
-4 -3 2 7.8351 -0.0844
-4 -3 3 1.2195 0.1067
-4 -3 4 -2.2933 0.0856
-4 -3 8 -5.2374 -0.0227
-4 -3 9 8.1177 0.0034
-4 -3 10 3.4013 0.0017
-4 -3 11 -2.5560 -0.0166
-4 -3 12 0.8476 0.0214
-4 -3 13 1.0121 0.0003
-4 -3 14 -1.0816 -0.0094
-4 -3 15 -0.6913 0.0102
-4 -3 16 -0.3094 -0.0280
-4 -3 17 -0.7555 0.0020
-4 -3 18 -0.6143 0.0084
-4 -3 19 0.4109 -0.0250
-4 -3 20 0.1788 0.0566
-4 -2 1 1.9352 0.2343
-4 -2 2 -0.1982 -0.0906
-4 -2 3 -7.3808 -0.0858
-4 -2 4 -0.6473 0.0921
-4 -2 8 -1.6107 -0.0776
-4 -2 9 10.6809 -0.0002
-4 -2 10 5.1510 0.0195
-4 -2 11 -0.7766 -0.0710
-4 -2 12 2.4544 0.0312
-4 -2 13 1.5680 0.0021
-4 -2 14 -1.8350 -0.0260
-4 -2 15 -1.2827 0.0225
-4 -2 16 -0.6512 -0.0494
-4 -2 17 -0.8381 -0.0305
-4 -2 18 0.0612 -0.0134
-4 -2 19 0.5209 -0.0356
-4 -2 20 -0.3217 0.0358
-4 -1 1 6.4033 0.1785
-4 -1 2 -7.1810 -0.0637
-4 -1 3 -13.5352 -0.1878
-4 -1 4 1.9646 0.0096
-4 -1 8 3.6201 -0.0895
-4 -1 9 11.1160 0.0204
-4 -1 10 8.2420 0.0331
-4 -1 12 -0.4610 0.0439
-4 -1 13 0.3080 0.0159
-4 -1 14 -0.8906 -0.0248
-4 -1 15 -1.6943 0.0343
-4 -1 16 -2.4410 -0.0105
-4 -1 17 -1.8520 -0.0135
-4 -1 18 0.8585 0.0127
-4 -1 19 1.1361 -0.0258
-4 -1 20 -0.2610 0.0025
-4 0 1 16.2325 -0.1303
-4 0 2 -3.4201 0.1168
-4 0 3 -9.7625 0.0023
-4 0 4 7.6250 -0.0842
-4 0 7 -1.5608 -0.0012
-4 0 8 9.6300 -0.0126
-4 0 9 12.5007 0.0095
-4 0 12 -2.3318 0.0157
-4 0 13 -0.7959 0.0230
-4 0 14 1.0503 -0.0243
-4 0 15 -0.5016 0.0185
-4 0 16 -2.8007 0.0231
-4 0 17 -2.5127 -0.0226
-4 0 18 0.4431 0.0436
-4 0 19 0.9486 0.0190
-4 1 1 20.8939 -0.4888
-4 1 2 6.2416 0.2994
-4 1 3 2.7682 0.1842
-4 1 4 14.4241 -0.1379
-4 1 5 3.8507 0.1098
-4 1 11 5.3971 0.0374
-4 1 12 -3.2055 -0.0397
-4 1 13 -1.9745 0.0110
-4 1 14 1.4226 -0.0253
-4 1 15 0.1285 -0.0124
-4 1 16 -1.7608 0.0138
-4 1 17 -0.7563 -0.0559
-4 1 18 0.1191 0.0218
-4 1 19 -0.5683 0.0518
-4 2 1 11.3848 -0.5381
-4 2 2 10.4558 0.2350
-4 2 3 13.1201 0.1023
-4 2 4 12.5222 -0.1362
-4 2 5 1.3293 0.1512
-4 2 6 -0.6551 0.0062
-4 2 7 5.2665 -0.0618
-4 2 8 4.8538 0.0751
-4 2 9 5.3798 -0.0489
-4 2 10 6.1916 -0.0137
-4 2 11 0.2004 0.0521
-4 2 12 -4.5365 -0.0348
-4 2 13 -2.7064 -0.0103
-4 2 14 0.0496 0.0115
-4 2 15 -0.5709 -0.0125
-4 2 16 -0.5362 -0.0043
-4 2 17 2.1145 0.0033
-4 2 18 1.5160 0.0325
-4 3 1 -5.3453 -0.2124
-4 3 2 8.3858 -0.0132
-4 3 3 16.6953 -0.0280
-4 3 4 1.1906 -0.0587
-4 3 5 -5.4340 0.0874
-4 3 6 6.6940 0.0393
-4 3 7 6.6967 -0.0531
-4 3 8 -1.4682 0.0352
-4 3 9 1.3499 0.0154
-4 3 10 2.2356 -0.0354
-4 3 11 -3.5760 0.0584
-4 3 12 -3.3876 0.0048
-4 3 13 -0.2630 -0.0453
-4 3 14 -0.6744 0.0597
-4 3 15 -1.1203 0.0015
-4 3 16 0.8339 -0.0205
-4 3 17 3.1672 0.1052
-4 3 18 2.5538 0.1060
-4 4 1 -11.3134 0.1768
-4 4 2 6.7898 -0.1808
-4 4 3 15.8767 -0.0102
-4 4 4 -6.1599 0.0241
-4 4 5 -8.9110 0.0046
-4 4 6 9.4586 0.0729
-4 4 7 7.5754 -0.0578
-4 4 8 -3.3591 0.0064
-4 4 9 -0.9017 0.0572
-4 4 10 0.2543 -0.0641
-4 4 11 -4.3529 0.0262
-4 4 12 -1.6541 -0.0039
-4 4 13 1.8791 -0.0601
-4 4 14 -1.0671 0.0682
-4 4 15 -1.5685 -0.0004
-4 4 16 1.1957 -0.0409
-4 4 17 1.8792 0.0837
-4 5 1 -4.7776 0.3568
-4 5 2 5.0683 -0.1720
-4 5 3 8.1821 0.0089
-4 5 4 -5.0850 0.0476
-4 5 5 -3.9398 -0.0658
-4 5 6 6.7841 0.0116
-4 5 7 4.4870 -0.0250
-4 5 8 -3.0291 0.0083
-4 5 9 -3.9216 0.0379
-4 5 10 -3.4916 -0.0378
-4 5 11 -4.0272 -0.0194
-4 5 12 -1.1922 -0.0212
-4 5 13 0.4590 -0.0200
-4 5 14 -1.3897 0.0281
-4 5 15 -0.6499 -0.0034
-4 5 16 1.0449 -0.0566
-4 5 17 0.5163 -0.0455
-4 6 1 1.2267 0.3692
-4 6 2 2.0840 -0.0811
-4 6 3 -2.3420 -0.0668
-4 6 4 -1.7855 0.0743
-4 6 5 3.8133 -0.0976
-4 6 6 2.8462 -0.0777
-4 6 7 0.0804 0.0501
-4 6 8 -1.1506 -0.0179
-4 6 9 -4.6968 -0.0022
-4 6 10 -6.0703 0.0249
-4 6 11 -2.3573 -0.0483
-4 6 12 0.4146 0.0111
-4 6 13 -0.6931 0.0225
-4 6 14 -0.6970 -0.0328
-4 6 15 1.5514 0.0084
-4 6 16 1.5574 -0.0507
-4 7 1 2.5588 0.2870
-4 7 2 1.4601 -0.0033
-4 7 3 -4.6455 -0.0977
-4 7 4 1.4709 0.1146
-4 7 5 6.7779 -0.0698
-4 7 6 0.4048 -0.0618
-4 7 7 -1.5676 0.0888
-4 7 8 0.7067 -0.0740
-4 7 9 -3.1737 -0.0152
-4 7 10 -5.5083 0.0478
-4 7 11 -1.3599 -0.0537
-4 7 12 1.1582 0.0452
-4 7 13 0.0728 0.0222
-4 7 14 0.4386 -0.0473
-4 7 15 1.8871 0.0334
-4 8 1 2.3365 0.0340
-4 8 2 1.3998 0.0467
-4 8 3 -1.5229 -0.0184
-4 8 4 2.9535 0.0593
-4 8 5 3.8857 -0.0095
-4 8 6 -1.0836 0.0227
-4 8 7 -0.9432 0.0482
-4 8 8 0.3607 -0.0608
-4 8 9 -2.2476 0.0120
-4 8 10 -2.2598 0.0349
-4 8 11 -0.2096 -0.0236
-4 8 12 -0.0233 0.0312
-4 8 13 0.7099 0.0204
-4 8 14 1.7217 0.0126
-4 9 1 2.2971 -0.3138
-4 9 2 0.1909 0.0878
-4 9 3 -0.9681 0.0629
-4 9 4 0.5829 -0.0762
-4 9 5 -0.8063 0.0487
-4 9 6 -1.3177 0.0477
-4 9 7 0.8171 -0.0348
-4 9 8 -0.5719 0.0113
-4 9 9 -1.7056 0.0262
-4 9 10 1.9699 0.0179
-4 9 11 2.5729 0.0116
-4 9 12 -0.1603 -0.0044
-4 9 13 0.6212 0.0490
-4 9 14 2.0606 0.0767
-4 10 2 0.3108 0.0873
-4 10 3 -1.0039 0.0725
-4 10 4 -2.5555 -0.1282
-4 10 5 -3.9976 0.0765
-4 10 6 -0.8965 0.0134
-4 10 7 2.0353 -0.0770
-4 10 8 -1.0863 0.0353
-4 10 9 -1.7155 -0.0091
-4 10 10 2.7342 -0.0098
-4 10 11 2.4093 0.0084
-4 10 12 -0.4089 -0.0204
-4 10 13 0.1477 0.0683
-4 11 2 -0.0055 0.0121
-4 11 3 -0.2988 0.0428
-4 11 4 -3.2332 -0.0592
-4 11 5 -4.2135 0.0510
-4 11 6 -0.3897 -0.0023
-4 11 7 1.6581 -0.0423
-4 11 8 -1.4955 0.0250
-4 11 9 -2.1538 -0.0218
-4 11 10 0.3792 -0.0262
-4 11 11 -0.6115 0.0001
-4 11 12 -1.5188 -0.0098
-4 12 1 -0.7656 -0.0674
-4 12 2 -1.9343 -0.0454
-4 12 3 -0.9735 0.0224
-4 12 4 -2.3536 0.0053
-4 12 5 -1.7956 0.0031
-4 12 6 0.9662 0.0073
-4 12 7 0.8255 -0.0056
-4 12 8 -1.4310 0.0231
-4 12 9 -1.6599 0.0237
-4 12 10 -0.7650 0.0117
-4 12 11 -1.2381 0.0286
-4 13 1 -1.9289 0.1458
-4 13 2 -2.2727 0.0006
-4 13 3 -1.2665 0.0094
-4 13 4 -1.0084 0.0037
-4 13 5 0.4349 -0.0174
-4 13 6 1.9508 0.0116
-4 13 7 0.2869 -0.0144
-4 13 8 -1.1547 -0.0215
-4 13 9 -0.6779 0.0318
-4 14 1 -2.0547 0.2286
-4 14 2 -1.0569 0.0519
-4 14 3 -0.1142 -0.0283
-4 14 4 0.8342 -0.0097
-4 14 5 1.2765 -0.0210
-4 14 6 1.6286 0.0122
-4 14 7 0.3629 -0.0067
-4 15 1 -0.8631 0.1908
-4 15 2 -0.8162 0.0044
-4 15 3 -0.2772 -0.0805
-4 15 4 1.6388 -0.0162
-4 15 5 1.6497 -0.0438
-4 15 6 1.1775 0.0082
-4 16 1 0.8986 0.0967
-4 16 2 -1.0441 -0.0525
-4 16 3 -1.2519 -0.0818
-4 16 4 1.0705 -0.0403
-4 16 5 1.6438 -0.0599
-4 17 1 1.1673 0.0269
-4 17 2 -0.4564 -0.0070
-4 17 3 -0.0268 -0.0140
-3 -17 4 1.2132 -0.0152
-3 -17 5 0.1816 -0.0015
-3 -17 6 0.1072 -0.0075
-3 -17 7 -1.1335 0.0037
-3 -17 8 -3.0489 -0.0013
-3 -17 9 -0.1339 -0.0063
-3 -17 10 3.0837 0.0185
-3 -17 11 1.1949 0.0244
-3 -17 12 -0.8043 0.0050
-3 -17 13 -0.2835 -0.0028
-3 -17 14 -0.1568 -0.0079
-3 -16 1 1.2284 0.0593
-3 -16 2 0.8161 0.0131
-3 -16 3 1.0918 -0.0464
-3 -16 4 2.3181 -0.0370
-3 -16 5 2.1352 0.0117
-3 -16 6 1.8378 0.0087
-3 -16 7 -0.4794 0.0056
-3 -16 8 -2.7402 0.0183
-3 -16 9 0.0366 0.0101
-3 -16 10 2.4814 0.0405
-3 -16 11 0.7252 0.0438
-3 -16 12 -0.3449 0.0081
-3 -16 13 0.4068 0.0025
-3 -16 14 -0.1161 0.0049
-3 -16 15 -1.5964 0.0326
-3 -16 16 -1.2775 0.0065
-3 -15 1 2.0854 0.0357
-3 -15 2 0.9124 0.0066
-3 -15 3 0.1216 -0.0317
-3 -15 4 1.5391 -0.0432
-3 -15 5 2.5569 0.0212
-3 -15 6 1.9440 0.0207
-3 -15 7 0.6826 -0.0012
-3 -15 8 1.0074 0.0004
-3 -15 9 2.3814 -0.0041
-3 -15 10 2.0672 0.0192
-3 -15 11 1.3470 0.0197
-3 -15 12 1.9541 0.0046
-3 -15 13 1.8344 -0.0012
-3 -15 14 0.0987 0.0033
-3 -15 15 -0.7905 0.0339
-3 -15 16 0.1197 -0.0158
-3 -15 17 0.5875 -0.1098
-3 -14 1 1.8654 0.0806
-3 -14 2 3.2539 -0.0357
-3 -14 3 0.1980 -0.0544
-3 -14 4 0.2911 0.0099
-3 -14 5 2.4549 0.0270
-3 -14 6 1.1663 -0.0008
-3 -14 7 1.1043 -0.0130
-3 -14 8 3.0520 -0.0311
-3 -14 9 2.4739 -0.0245
-3 -14 10 0.7492 -0.0097
-3 -14 11 0.7288 -0.0146
-3 -14 12 2.2679 -0.0045
-3 -14 13 1.5950 0.0049
-3 -14 14 -1.6380 0.0123
-3 -14 15 -1.1679 0.0172
-3 -14 16 1.2373 -0.0200
-3 -14 17 0.4185 -0.0644
-3 -13 1 0.2863 0.1771
-3 -13 2 5.4992 -0.0890
-3 -13 3 3.0349 -0.0661
-3 -13 4 1.9040 0.0845
-3 -13 5 3.5335 0.0006
-3 -13 6 2.7503 -0.0263
-3 -13 7 3.6432 -0.0040
-3 -13 8 3.1288 -0.0355
-3 -13 9 -0.2939 -0.0155
-3 -13 10 -0.4016 -0.0173
-3 -13 11 0.9577 -0.0198
-3 -13 12 1.6406 0.0083
-3 -13 13 0.5586 0.0104
-3 -13 14 -2.7939 0.0051
-3 -13 15 -1.6059 -0.0052
-3 -13 16 1.6073 -0.0225
-3 -13 17 0.2086 -0.0320
-3 -12 1 -1.4773 0.1809
-3 -12 2 3.3980 -0.0935
-3 -12 3 5.3015 0.0115
-3 -12 5 3.4823 -0.0348
-3 -12 6 3.3052 -0.0017
-3 -12 7 4.9303 0.0255
-3 -12 8 2.1905 -0.0110
-3 -12 10 -1.2877 -0.0216
-3 -12 11 2.3010 -0.0155
-3 -12 12 1.8743 0.0287
-3 -12 13 -0.5591 0.0045
-3 -12 14 -1.8737 -0.0175
-3 -12 15 -0.6228 -0.0041
-3 -12 16 0.9311 -0.0102
-3 -12 17 0.1752 -0.0199
-3 -11 1 -1.4158 -0.0197
-3 -11 2 0.9813 -0.0241
-3 -11 3 6.0054 0.0969
-3 -11 4 6.2314 0.0181
-3 -11 5 2.0495 -0.0432
-3 -11 6 1.1941 0.0370
-3 -11 7 1.6213 0.0236
-3 -11 8 -1.0369 0.0060
-3 -11 9 -3.6507 0.0139
-3 -11 11 1.6001 -0.0044
-3 -11 12 0.6667 0.0224
-3 -11 13 -2.3919 -0.0082
-3 -11 14 -1.1248 -0.0122
-3 -11 15 0.0040 0.0177
-3 -11 16 -1.4120 0.0083
-3 -11 17 -1.1836 0.0211
-3 -10 1 -0.2858 -0.2635
-3 -10 2 3.1783 0.1028
-3 -10 3 7.6947 0.0765
-3 -10 4 6.4038 -0.1211
-3 -10 5 1.7768 -0.0125
-3 -10 6 1.0344 0.0213
-3 -10 7 -0.1078 -0.0126
-3 -10 8 -3.5869 0.0099
-3 -10 9 -3.5168 -0.0045
-3 -10 10 -0.4339 0.0046
-3 -10 11 0.6519 0.0155
-3 -10 12 -1.3929 -0.0043
-3 -10 13 -2.0459 -0.0144
-3 -10 14 0.4719 0.0104
-3 -10 15 0.0343 0.0188
-3 -10 16 -3.1451 0.0031
-3 -10 17 -2.4503 0.0431
-3 -10 18 0.0881 0.0341
-3 -10 19 -0.0368 -0.0209
-3 -10 20 -0.8071 0.0049
-3 -9 1 -0.1261 -0.2618
-3 -9 2 5.7980 0.1942
-3 -9 3 8.1576 -0.0152
-3 -9 4 3.5866 -0.1293
-3 -9 5 0.7016 0.0462
-3 -9 6 2.7355 -0.0159
-3 -9 7 2.0342 -0.0238
-3 -9 8 -2.9345 0.0159
-3 -9 9 -2.3608 -0.0115
-3 -9 10 2.3838 0.0209
-3 -9 11 0.5383 0.0108
-3 -9 12 -2.5789 -0.0284
-3 -9 13 1.1365 -0.0020
-3 -9 14 3.3747 0.0163
-3 -9 15 -0.5663 -0.0072
-3 -9 16 -3.3344 0.0047
-3 -9 17 -1.7103 0.0246
-3 -9 18 0.6454 0.0050
-3 -9 19 0.9009 0.0138
-3 -9 20 0.3913 0.0124
-3 -8 1 0.4217 -0.0569
-3 -8 2 5.9999 0.1116
-3 -8 3 6.0471 -0.0889
-3 -8 4 -2.5155 -0.0382
-3 -8 5 -3.1550 0.0619
-3 -8 6 3.4664 -0.0115
-3 -8 7 3.4586 -0.0056
-3 -8 8 -0.9025 0.0222
-3 -8 9 1.1237 0.0027
-3 -8 10 4.0767 0.0127
-3 -8 11 -0.6375 -0.0001
-3 -8 12 -2.4342 -0.0332
-3 -8 13 4.0778 0.0130
-3 -8 14 4.4897 0.0155
-3 -8 15 -2.2319 -0.0255
-3 -8 16 -3.0679 0.0238
-3 -8 17 -0.0051 0.0066
-3 -8 18 0.3230 -0.0167
-3 -8 19 0.5020 0.0450
-3 -8 20 1.1366 0.0157
-3 -8 21 0.6170 -0.0097
-3 -7 1 2.4082 0.1015
-3 -7 2 6.6763 -0.0483
-3 -7 3 5.1876 -0.0647
-3 -7 4 -5.8117 -0.0033
-3 -7 5 -6.2904 0.0147
-3 -7 6 1.9866 0.0191
-3 -7 7 1.8777 -0.0085
-3 -7 8 1.1237 0.0245
-3 -7 9 5.9825 0.0128
-3 -7 10 3.9727 -0.0056
-3 -7 11 -2.3277 0.0198
-3 -7 12 0.0613 -0.0195
-3 -7 13 5.7205 0.0041
-3 -7 14 2.7434 0.0119
-3 -7 15 -3.3356 -0.0267
-3 -7 16 -1.7186 0.0149
-3 -7 17 1.2679 -0.0147
-3 -7 18 -0.3944 -0.0226
-3 -7 19 -0.0112 0.0409
-3 -7 20 1.0249 0.0009
-3 -7 21 -0.7258 -0.0218
-3 -6 1 3.7732 0.1427
-3 -6 2 8.3344 -0.0750
-3 -6 3 6.5035 0.0335
-3 -6 4 -1.1780 -0.0048
-3 -6 5 -3.2884 -0.0125
-3 -6 6 -2.4911 0.0196
-3 -6 7 -3.2481 -0.0276
-3 -6 8 2.9817 0.0088
-3 -6 9 7.7952 -0.0035
-3 -6 10 -0.1443 -0.0112
-3 -6 11 -4.0184 0.0265
-3 -6 12 3.1662 -0.0076
-3 -6 13 5.1992 -0.0076
-3 -6 14 -0.5139 0.0010
-3 -6 15 -3.0328 -0.0188
-3 -6 16 -0.0219 -0.0090
-3 -6 17 1.0504 -0.0237
-3 -6 18 -0.8081 -0.0301
-3 -6 19 0.0650 0.0117
-3 -6 20 0.4444 0.0083
-3 -6 21 -1.4557 -0.0301
-3 -5 1 0.5434 0.1337
-3 -5 2 6.9184 -0.0761
-3 -5 3 6.1717 0.0373
-3 -5 4 7.1455 0.0639
-3 -5 5 6.3272 -0.0043
-3 -5 7 -7.9429 0.0027
-3 -5 8 4.8220 -0.0286
-3 -5 9 6.5226 -0.0134
-3 -5 10 -5.4650 0.0115
-3 -5 11 -4.1759 -0.0108
-3 -5 12 5.1282 0.0089
-3 -5 13 2.8386 0.0047
-3 -5 14 -2.6489 -0.0047
-3 -5 15 -1.2926 0.0028
-3 -5 16 0.5343 -0.0148
-3 -5 17 -0.5771 0.0007
-3 -5 18 -0.7039 -0.0160
-3 -5 19 0.0173 -0.0172
-3 -5 20 -0.8240 0.0201
-3 -4 1 -9.7591 0.1779
-3 -4 2 -2.9133 -0.1935
-3 -4 3 -0.0717 -0.0657
-3 -4 4 9.2189 0.1610
-3 -4 7 -5.1926 0.0628
-3 -4 8 5.1770 -0.0690
-3 -4 9 3.3835 0.0160
-3 -4 10 -6.5644 0.0234
-3 -4 11 -1.5042 -0.0579
-3 -4 12 6.2290 0.0397
-3 -4 13 1.4481 0.0081
-3 -4 14 -2.0200 -0.0157
-3 -4 15 1.1326 0.0282
-3 -4 16 0.4356 -0.0199
-3 -4 17 -1.6288 0.0012
-3 -4 18 -0.0048 0.0109
-3 -4 19 -0.1935 -0.0239
-3 -4 20 -1.9575 -0.0124
-3 -3 1 -17.3985 0.2489
-3 -3 2 -16.6632 -0.1876
-3 -3 3 -11.1598 -0.0565
-3 -3 6 5.0011 -0.0171
-3 -3 7 3.0907 0.0591
-3 -3 8 1.7452 -0.0812
-3 -3 9 -3.5186 0.0431
-3 -3 10 -5.4911 -0.0043
-3 -3 11 0.0757 -0.0701
-3 -3 12 4.4108 0.0577
-3 -3 13 1.1187 -0.0030
-3 -3 14 -0.4018 -0.0324
-3 -3 15 1.5217 0.0434
-3 -3 16 -0.7997 -0.0108
-3 -3 17 -1.6265 -0.0260
-3 -3 18 0.7395 0.0230
-3 -3 19 -0.5204 -0.0080
-3 -3 20 -1.9042 -0.0346
-3 -2 1 -9.6410 0.0524
-3 -2 2 -18.1251 0.1106
-3 -2 3 -17.0437 0.1103
-3 -2 5 0.1268 -0.0950
-3 -2 6 5.3840 0.0305
-3 -2 7 8.9789 0.0153
-3 -2 8 -2.2401 -0.0199
-3 -2 9 -9.1682 0.0241
-3 -2 10 -3.2906 -0.0115
-3 -2 11 0.1975 -0.0231
-3 -2 12 0.5843 0.0416
-3 -2 13 1.0923 0.0089
-3 -2 14 1.6261 -0.0352
-3 -2 15 0.7436 0.0404
-3 -2 16 -2.4289 0.0227
-3 -2 17 -1.4088 -0.0197
-3 -2 18 0.9142 0.0395
-3 -2 19 -0.9921 -0.0072
-3 -2 20 -1.3032 -0.0352
-3 -1 1 3.9053 -0.4816
-3 -1 2 -2.2273 0.3736
-3 -1 3 -7.7978 0.1815
-3 -1 5 -4.4549 0.1077
-3 -1 6 4.3368 0.0563
-3 -1 7 9.5512 -0.0106
-3 -1 8 -2.2889 0.0700
-3 -1 9 -6.5760 -0.0256
-3 -1 10 1.9110 0.0119
-3 -1 12 -0.9377 -0.0053
-3 -1 13 1.3461 0.0147
-3 -1 14 3.4642 -0.0352
-3 -1 15 1.0333 0.0134
-3 -1 16 -1.6939 0.0258
-3 -1 17 -0.4601 -0.0048
-3 -1 18 0.1702 0.0548
-3 -1 19 -1.5163 -0.0226
-3 0 1 0.1647 -0.8329
-3 0 2 12.7282 0.2703
-3 0 3 10.4617 0.0362
-3 0 5 -3.1601 0.2156
-3 0 6 4.8133 0.0097
-3 0 7 5.2862 -0.0578
-3 0 8 -1.9697 0.0841
-3 0 9 -0.7351 -0.0436
-3 0 12 -1.4014 -0.0434
-3 0 13 -0.2350 -0.0155
-3 0 14 1.1875 -0.0121
-3 0 15 -0.2410 -0.0079
-3 0 16 0.3290 -0.0043
-3 0 17 1.2205 -0.0125
-3 0 18 -1.0448 0.0165
-3 0 19 -2.0546 -0.0274
-3 1 1 -25.2843 -0.5780
-3 1 2 8.3475 -0.0213
-3 1 3 19.3177 -0.0811
-3 1 4 1.5291 -0.1210
-3 1 5 -1.0655 0.1047
-3 1 6 5.8250 -0.0283
-3 1 7 -1.2950 -0.1126
-3 1 8 -5.1594 0.0552
-3 1 9 1.6628 0.0068
-3 1 10 3.4235 -0.0455
-3 1 11 -0.4014 0.0457
-3 1 12 -1.9955 -0.0321
-3 1 13 -2.5331 -0.0445
-3 1 14 -3.9705 0.0536
-3 1 15 -2.7160 -0.0111
-3 1 16 1.5970 -0.0208
-3 1 17 2.2775 0.0062
-3 1 18 -1.0414 -0.0503
-3 1 19 -1.5894 -0.0422
-3 2 1 -47.9346 -0.0162
-3 2 2 -6.3723 -0.1652
-3 2 3 15.0189 0.0017
-3 2 4 -2.2201 -0.0524
-3 2 5 -2.1717 -0.0366
-3 2 6 5.7151 0.0086
-3 2 7 -4.2779 -0.1047
-3 2 8 -7.3764 0.0522
-3 2 9 1.7129 0.0463
-3 2 10 1.6825 -0.0808
-3 2 11 -2.4730 0.0706
-3 2 12 -0.6971 -0.0058
-3 2 13 -2.4712 -0.0514
-3 2 14 -6.4638 0.0838
-3 2 15 -2.6243 -0.0277
-3 2 16 2.3382 -0.0274
-3 2 17 1.6092 0.0601
-3 2 18 -0.0897 -0.0354
-3 3 1 -41.9586 0.3676
-3 3 2 -10.0646 -0.1315
-3 3 3 9.2761 0.0864
-3 3 4 -3.4791 0.0180
-3 3 5 -4.5167 -0.0742
-3 3 6 2.1540 0.0272
-3 3 7 -2.4936 -0.0341
-3 3 8 -4.6473 0.0283
-3 3 9 0.1682 0.0083
-3 3 10 -0.1916 -0.0633
-3 3 11 -2.2181 0.0442
-3 3 12 -0.0800 -0.0007
-3 3 13 -2.4632 -0.0340
-3 3 14 -5.9282 0.0428
-3 3 15 -1.5600 -0.0327
-3 3 16 1.4775 -0.0390
-3 3 17 -0.3777 0.0742
-3 3 18 -0.1810 0.0531
-3 4 1 -16.4710 0.5407
-3 4 2 -4.1814 -0.0427
-3 4 3 2.2986 0.0168
-3 4 4 -1.3975 0.1085
-3 4 5 -3.6787 -0.0682
-3 4 6 -3.4785 -0.0193
-3 4 7 -1.0488 0.0651
-3 4 8 0.1547 -0.0312
-3 4 9 -2.1405 -0.0290
-3 4 10 -2.8659 0.0138
-3 4 11 -1.2140 -0.0106
-3 4 12 -1.4498 0.0118
-3 4 13 -3.7044 0.0034
-3 4 14 -3.5919 0.0068
-3 4 15 -0.9450 0.0122
-3 4 16 -0.5466 -0.0447
-3 4 17 -1.5377 0.0098
-3 5 1 -0.0469 0.5905
-3 5 2 -2.7842 0.0335
-3 5 3 -8.9172 -0.0738
-3 5 4 -2.3687 0.1802
-3 5 5 0.3571 -0.0606
-3 5 6 -4.7863 -0.0384
-3 5 7 -1.3544 0.1288
-3 5 8 2.3107 -0.0672
-3 5 9 -2.7798 -0.0170
-3 5 10 -3.4094 0.0605
-3 5 11 -0.0864 -0.0369
-3 5 12 -2.3777 0.0319
-3 5 13 -3.6825 0.0260
-3 5 14 -0.6239 0.0035
-3 5 15 0.1978 0.0473
-3 5 16 -1.1957 -0.0300
-3 6 1 0.0386 0.3541
-3 6 2 -6.2436 0.0340
-3 6 3 -13.9924 -0.0897
-3 6 4 -4.2951 0.1150
-3 6 5 2.3257 -0.0330
-3 6 6 -1.8204 -0.0022
-3 6 7 -1.5451 0.0883
-3 6 8 -0.2255 -0.0613
-3 6 9 -3.4996 -0.0162
-3 6 10 -3.2128 0.0275
-3 6 11 -2.1434 -0.0273
-3 6 12 -4.3129 0.0228
-3 6 13 -2.9362 0.0181
-3 6 14 0.3561 -0.0176
-3 6 15 0.1762 0.0114
-3 6 16 -0.9165 0.0013
-3 7 1 -5.2202 -0.1668
-3 7 2 -9.0906 -0.0242
-3 7 3 -9.0870 -0.0743
-3 7 4 -3.3590 -0.0636
-3 7 5 -0.9556 0.0109
-3 7 6 -1.0272 0.0150
-3 7 7 -1.5092 -0.0072
-3 7 8 -4.2478 -0.0220
-3 7 9 -5.0003 -0.0302
-3 7 10 -3.1216 0.0030
-3 7 11 -5.0912 0.0064
-3 7 12 -6.2926 -0.0048
-3 7 13 -1.8423 -0.0074
-3 7 14 0.7467 -0.0735
-3 7 15 -0.5008 -0.0520
-3 8 1 -7.4306 -0.5536
-3 8 2 -8.1485 -0.0169
-3 8 3 -2.0488 -0.0149
-3 8 4 -1.6015 -0.1511
-3 8 5 -5.2943 0.0579
-3 8 6 -2.8148 0.0084
-3 8 7 -1.6032 -0.0527
-3 8 8 -5.4417 0.0278
-3 8 9 -4.4812 -0.0066
-3 8 10 -1.1692 0.0263
-3 8 11 -3.5290 0.0328
-3 8 12 -4.4148 -0.0188
-3 8 13 -0.0254 -0.0405
-3 8 14 1.8053 -0.1070
-3 9 1 -5.7171 -0.5059
-3 9 2 -2.8323 0.0504
-3 9 3 3.2962 0.0797
-3 9 4 -0.2139 -0.0906
-3 9 5 -6.0974 0.0761
-3 9 6 -4.1847 0.0254
-3 9 7 -2.6641 -0.0428
-3 9 8 -4.6321 0.0436
-3 9 9 -2.6821 0.0248
-3 9 10 0.2753 0.0155
-3 9 11 -1.0288 0.0167
-3 9 12 -1.5625 -0.0366
-3 9 13 0.6074 -0.0679
-3 10 2 -0.1385 0.0538
-3 10 3 4.5162 0.0980
-3 10 4 0.8378 -0.0243
-3 10 5 -4.0023 0.0340
-3 10 6 -4.7440 0.0269
-3 10 7 -4.3785 -0.0308
-3 10 8 -3.3665 0.0367
-3 10 9 -1.1127 0.0169
-3 10 10 -0.0194 -0.0494
-3 10 11 -0.8677 -0.0323
-3 10 12 -0.8463 -0.0819
-3 11 4 0.4365 0.0058
-3 11 5 -1.3033 -0.0213
-3 11 6 -3.6788 -0.0269
-3 11 7 -4.3254 -0.0273
-3 11 8 -1.6165 0.0375
-3 11 9 0.3080 0.0055
-3 11 10 0.1539 -0.0726
-3 11 11 -0.2180 -0.0737
-3 12 3 -5.3405 -0.0238
-3 12 4 -0.5122 0.0524
-3 12 5 0.3555 -0.0386
-3 12 6 -1.0899 -0.0576
-3 12 7 -2.2736 -0.0053
-3 12 8 -0.8046 0.0061
-3 12 9 0.6138 0.0083
-3 12 10 0.5591 -0.0162
-3 13 1 -3.7769 0.2194
-3 13 2 -9.0148 -0.0274
-3 13 3 -5.2634 -0.0056
-3 13 4 -0.0949 0.0829
-3 13 5 0.5562 -0.0393
-3 13 6 0.5213 -0.0016
-3 13 7 -0.4598 0.0470
-3 13 8 -1.0606 -0.0489
-3 13 9 0.2398 -0.0083
-3 14 1 -1.2743 0.1139
-3 14 2 -5.5230 -0.0447
-3 14 3 -3.4632 0.0227
-3 14 4 -0.0297 0.0499
-3 14 5 0.1196 -0.0264
-3 14 6 0.4048 0.0647
-3 14 7 -0.0297 0.0791
-3 14 8 -0.9838 -0.0443
-3 15 1 1.2665 -0.0021
-3 15 2 -2.3319 -0.0209
-3 15 3 -3.4859 -0.0023
-3 15 4 -1.7121 -0.0134
-3 15 5 0.0326 0.0197
-3 15 6 0.5421 0.0569
-3 16 1 1.1381 -0.0698
-3 16 2 -0.9917 0.0083
-3 16 3 -3.1416 -0.0557
-3 16 4 -2.1581 -0.0391
-3 17 1 -0.6994 -0.0528
-3 17 2 -1.0150 0.0056
-2 -18 8 -1.7852 0.0214
-2 -18 9 -0.4076 -0.0165
-2 -18 10 0.1512 -0.0313
-2 -18 11 -0.6958 -0.0546
-2 -18 12 -0.5665 -0.0138
-2 -17 2 -0.4480 0.0497
-2 -17 3 -0.3417 -0.0469
-2 -17 5 1.5078 0.0342
-2 -17 6 1.5216 -0.0096
-2 -17 7 0.4809 -0.0007
-2 -17 8 -1.1448 0.0153
-2 -17 9 -1.2049 0.0018
-2 -17 10 -0.6021 -0.0082
-2 -17 11 -0.1755 -0.0269
-2 -17 12 0.4400 -0.0032
-2 -17 13 0.0990 0.0245
-2 -17 14 -0.1702 0.0136
-2 -17 15 1.1740 -0.0017
-2 -16 1 0.3506 0.1054
-2 -16 2 -0.2963 0.0145
-2 -16 3 -0.9148 -0.0477
-2 -16 4 -0.0518 0.0265
-2 -16 5 0.2927 0.0353
-2 -16 6 0.2654 -0.0005
-2 -16 7 1.2716 -0.0005
-2 -16 8 1.1589 0.0051
-2 -16 9 -0.2595 0.0116
-2 -16 10 -0.3467 -0.0059
-2 -16 11 1.0415 -0.0179
-2 -16 12 1.5484 -0.0078
-2 -16 13 0.1594 -0.0061
-2 -16 14 0.0594 -0.0023
-2 -16 15 2.1161 -0.0107
-2 -16 16 1.2510 -0.0299
-2 -15 1 0.2177 0.1079
-2 -15 3 -0.2244 -0.0073
-2 -15 4 -0.2126 0.0817
-2 -15 5 -0.5947 -0.0009
-2 -15 6 -1.3973 -0.0079
-2 -15 7 0.4737 0.0043
-2 -15 8 1.9089 0.0072
-2 -15 9 1.3545 0.0177
-2 -15 10 1.0836 -0.0110
-2 -15 11 1.5293 -0.0160
-2 -15 12 1.4296 -0.0093
-2 -15 13 -0.3836 -0.0082
-2 -15 14 -0.3694 -0.0088
-2 -15 15 2.1172 -0.0132
-2 -15 16 0.5792 0.0079
-2 -15 17 -2.7998 0.0402
-2 -15 18 -2.1416 0.0703
-2 -14 1 -0.3172 0.0569
-2 -14 3 2.2070 0.0509
-2 -14 4 0.7716 0.0774
-2 -14 5 -0.2855 -0.0397
-2 -14 6 0.3592 -0.0228
-2 -14 7 2.0790 -0.0075
-2 -14 8 2.0602 0.0089
-2 -14 9 1.8833 0.0128
-2 -14 10 2.6067 -0.0104
-2 -14 11 2.2483 0.0073
-2 -14 12 1.1438 0.0090
-2 -14 13 0.3299 -0.0097
-2 -14 14 0.8753 -0.0136
-2 -14 15 1.8654 -0.0020
-2 -14 16 0.4972 0.0170
-2 -14 17 -1.2057 0.0377
-2 -13 1 -1.7570 -0.0439
-2 -13 2 1.2181 -0.0206
-2 -13 3 3.5680 0.0793
-2 -13 4 0.9835 0.0038
-2 -13 5 -0.4711 -0.0438
-2 -13 6 2.8723 -0.0178
-2 -13 7 5.2690 -0.0066
-2 -13 8 3.6555 0.0084
-2 -13 9 1.0703 -0.0043
-2 -13 10 1.1843 -0.0088
-2 -13 11 1.9255 0.0217
-2 -13 12 0.5136 0.0195
-2 -13 13 1.2176 -0.0200
-2 -13 14 3.2501 -0.0133
-2 -13 15 1.4207 0.0172
-2 -13 16 0.1076 0.0027
-2 -13 17 1.2680 0.0084
-2 -12 1 -3.3090 -0.1502
-2 -12 2 -0.8510 0.0948
-2 -12 3 2.6918 0.0197
-2 -12 4 0.5043 -0.0746
-2 -12 5 -0.1137 -0.0186
-2 -12 6 4.0022 -0.0107
-2 -12 7 6.2353 0.0114
-2 -12 8 4.9980 0.0071
-2 -12 9 1.1675 -0.0135
-2 -12 10 -1.6633 0.0065
-2 -12 11 -1.6309 0.0118
-2 -12 12 -1.7834 0.0016
-2 -12 13 0.5945 -0.0157
-2 -12 14 3.3655 -0.0004
-2 -12 15 0.3248 0.0095
-2 -12 16 -1.1755 -0.0103
-2 -11 1 -3.5133 -0.1705
-2 -11 2 0.3828 0.1207
-2 -11 3 2.0056 -0.0493
-2 -11 4 0.4118 -0.0679
-2 -11 5 1.5060 0.0183
-2 -11 6 5.6689 -0.0081
-2 -11 7 6.4535 0.0176
-2 -11 9 2.7699 -0.0061
-2 -11 10 -0.9353 0.0225
-2 -11 11 -5.0188 0.0084
-2 -11 12 -3.6388 -0.0121
-2 -11 13 0.9704 -0.0010
-2 -11 14 2.1305 0.0059
-2 -11 15 -0.0920 -0.0246
-2 -11 16 -0.7565 -0.0255
-2 -11 17 0.5219 -0.0026
-2 -11 18 0.2590 -0.0196
-2 -10 1 -2.0096 -0.1019
-2 -10 2 2.6286 0.0673
-2 -10 3 1.2070 -0.0158
-2 -10 4 -1.2577 -0.0026
-2 -10 5 0.5549 0.0478
-2 -10 6 5.2691 0.0145
-2 -10 7 5.6172 -0.0002
-2 -10 8 2.2523 0.0151
-2 -10 9 2.5870 0.0017
-2 -10 10 0.2005 0.0034
-2 -10 11 -5.9898 0.0169
-2 -10 12 -3.4498 -0.0062
-2 -10 13 2.1634 0.0074
-2 -10 14 0.8481 0.0040
-2 -10 15 -0.1854 -0.0307
-2 -10 16 1.2676 -0.0082
-2 -10 17 0.4610 -0.0145
-2 -10 18 -1.2557 -0.0318
-2 -10 19 -1.9024 -0.0261
-2 -10 20 -1.2369 -0.0480
-2 -9 1 1.5413 -0.0896
-2 -9 2 3.2484 -0.0189
-2 -9 3 -0.5742 0.0327
-2 -9 4 -4.9773 -0.0286
-2 -9 5 -3.1364 0.0349
-2 -9 6 1.4382 0.0315
-2 -9 7 1.9538 -0.0346
-2 -9 8 1.3801 0.0257
-2 -9 9 1.8642 -0.0093
-2 -9 10 -2.0379 -0.0241
-2 -9 11 -5.3287 0.0290
-2 -9 12 -1.1526 -0.0102
-2 -9 13 1.5536 0.0089
-2 -9 14 -0.9819 0.0176
-2 -9 15 -0.2723 -0.0077
-2 -9 16 2.6896 0.0323
-2 -9 17 0.8688 0.0053
-2 -9 18 -2.8930 -0.0250
-2 -9 19 -3.1916 0.0023
-2 -9 20 -1.3155 0.0022
-2 -8 2 4.5319 -0.0369
-2 -8 3 -1.3244 0.0172
-2 -8 4 -7.3209 -0.0851
-2 -8 5 -5.5769 0.0182
-2 -8 6 -1.9254 0.0129
-2 -8 7 -0.8572 -0.0467
-2 -8 8 3.5212 0.0168
-2 -8 9 2.9220 -0.0285
-2 -8 10 -4.5288 -0.0139
-2 -8 11 -2.9796 0.0319
-2 -8 12 2.3639 -0.0250
-2 -8 13 -0.5603 0.0046
-2 -8 14 -2.6654 0.0303
-2 -8 15 1.2328 -0.0038
-2 -8 16 3.7013 0.0268
-2 -8 17 1.0580 0.0217
-2 -8 18 -2.4802 -0.0207
-2 -8 19 -2.5214 0.0116
-2 -8 20 -1.0489 0.0264
-2 -7 1 11.4260 0.0685
-2 -7 2 7.4279 0.0071
-2 -7 3 -1.3859 -0.0107
-2 -7 4 -6.2314 0.0236
-2 -7 5 -4.5894 0.0287
-2 -7 6 -3.0306 -0.0188
-2 -7 7 0.4767 -0.0092
-2 -7 8 6.7420 -0.0207
-2 -7 9 2.3510 -0.0210
-2 -7 10 -5.8655 0.0058
-2 -7 11 -0.8783 -0.0132
-2 -7 12 2.9128 -0.0215
-2 -7 13 -3.7498 -0.0019
-2 -7 14 -3.6980 0.0116
-2 -7 15 3.1836 -0.0118
-2 -7 16 3.8943 -0.0079
-2 -7 17 0.6902 0.0087
-2 -7 18 -0.6944 -0.0183
-2 -7 19 -0.6956 0.0169
-2 -7 20 -0.0165 0.0017
-2 -6 1 12.7082 0.3036
-2 -6 2 8.1211 -0.0791
-2 -6 3 -4.9567 -0.0367
-2 -6 4 -5.2597 0.1851
-2 -6 5 -0.1038 -0.0252
-2 -6 6 0.1119 -0.0286
-2 -6 7 5.1224 0.0461
-2 -6 8 9.1703 -0.0551
-2 -6 9 1.4259 0.0270
-2 -6 10 -3.8633 0.0038
-2 -6 11 0.7134 -0.0716
-2 -6 12 -0.1618 0.0112
-2 -6 13 -6.4121 -0.0035
-2 -6 14 -2.8122 -0.0157
-2 -6 15 4.3352 0.0046
-2 -6 16 2.9469 -0.0147
-2 -6 17 0.7173 -0.0013
-2 -6 18 1.1303 0.0018
-2 -6 19 -0.2763 0.0134
-2 -6 20 0.1433 -0.0169
-2 -5 1 10.9371 0.3239
-2 -5 2 2.3598 -0.2116
-2 -5 3 -15.0187 -0.0040
-2 -5 4 -11.7900 0.1642
-2 -5 5 1.2148 -0.1323
-2 -5 6 7.3698 0.0011
-2 -5 7 10.3443 0.0657
-2 -5 8 7.8813 -0.0449
-2 -5 9 2.8679 0.0642
-2 -5 10 3.4018 -0.0030
-2 -5 11 3.5049 -0.0580
-2 -5 12 -2.7185 0.0497
-2 -5 13 -6.3163 -0.0026
-2 -5 14 -0.0133 -0.0265
-2 -5 15 4.9375 0.0337
-2 -5 16 2.1214 -0.0067
-2 -5 17 1.8486 -0.0073
-2 -5 18 2.5226 0.0393
-2 -5 19 -0.6850 -0.0104
-2 -5 20 -0.5606 -0.0324
-2 -4 1 15.3143 0.0526
-2 -4 2 -4.1754 -0.0552
-2 -4 3 -26.3524 0.1215
-2 -4 4 -25.0788 -0.0072
-2 -4 5 -7.2902 -0.1181
-2 -4 6 11.2373 0.0414
-2 -4 7 13.0050 0.0358
-2 -4 8 1.3444 -0.0093
-2 -4 9 1.3517 0.0348
-2 -4 10 8.4795 0.0075
-2 -4 11 4.2936 -0.0001
-2 -4 12 -4.3365 0.0543
-2 -4 13 -4.9658 0.0048
-2 -4 14 1.0975 -0.0327
-2 -4 15 3.1839 0.0443
-2 -4 16 1.0141 -0.0016
-2 -4 17 2.3870 -0.0249
-2 -4 18 2.0464 0.0572
-2 -4 19 -1.1533 -0.0171
-2 -4 20 -0.5400 -0.0216
-2 -3 1 28.7813 -0.3989
-2 -3 2 1.3206 0.2730
-2 -3 3 -26.7612 0.1355
-2 -3 4 -33.2549 -0.1712
-2 -3 5 -17.9272 0.0362
-2 -3 6 8.0104 0.0429
-2 -3 7 12.1788 -0.0010
-2 -3 8 -3.3893 0.0151
-2 -3 9 -2.5608 -0.0208
-2 -3 10 6.8797 0.0358
-2 -3 11 1.7565 0.0209
-2 -3 12 -5.4216 0.0180
-2 -3 13 -3.1171 0.0150
-2 -3 14 0.6844 -0.0379
-2 -3 15 0.2616 0.0247
-2 -3 16 0.2110 -0.0007
-2 -3 17 2.0025 -0.0334
-2 -3 18 0.2370 0.0280
-2 -3 19 -1.4910 -0.0208
-2 -3 20 0.3785 0.0108
-2 -2 1 29.0393 -0.7269
-2 -2 2 16.2106 0.3157
-2 -2 4 -28.7271 -0.2489
-2 -2 5 -19.5729 0.1448
-2 -2 6 2.1748 0.0051
-2 -2 12 -4.4619 -0.0231
-2 -2 13 -0.7196 -0.0020
-2 -2 14 0.8362 -0.0228
-2 -2 15 -0.3803 -0.0117
-2 -2 16 1.4948 -0.0120
-2 -2 17 1.8560 -0.0110
-2 -2 18 -0.8527 -0.0025
-2 -2 19 -0.7677 -0.0301
-2 -2 20 1.2077 0.0054
-2 -1 3 8.1312 -0.1758
-2 -1 4 -15.2921 -0.2075
-2 -1 5 -11.9464 0.1305
-2 -1 10 3.2487 -0.0492
-2 -1 11 -0.6056 0.0269
-2 -1 12 -2.1995 -0.0356
-2 -1 13 -0.3109 -0.0327
-2 -1 14 -0.8464 0.0300
-2 -1 15 -0.4526 -0.0291
-2 -1 16 2.5862 -0.0116
-2 -1 17 1.0298 0.0251
-2 -1 18 -1.4832 -0.0047
-2 -1 19 0.2965 0.0023
-2 0 1 -48.7408 -0.1420
-2 0 3 11.3721 0.0166
-2 0 4 -1.9467 -0.0591
-2 0 10 2.2488 -0.0889
-2 0 11 -0.2036 0.0768
-2 0 12 1.1323 -0.0291
-2 0 13 -0.6923 -0.0359
-2 0 14 -3.2854 0.0846
-2 0 15 -1.0414 -0.0230
-2 0 16 1.5256 0.0063
-2 0 17 -0.4139 0.0367
-2 0 18 -1.3913 -0.0316
-2 0 19 0.6730 0.0258
-2 1 1 -65.2278 0.2364
-2 1 2 -27.8583 -0.0191
-2 1 3 -1.0135 0.2123
-2 1 4 7.0893 0.0951
-2 1 5 10.6700 0.0722
-2 1 6 -1.1372 0.0386
-2 1 7 -9.7489 -0.0692
-2 1 8 -0.0886 0.1061
-2 1 9 6.3671 0.0320
-2 1 10 2.2888 -0.0557
-2 1 11 1.9898 0.0730
-2 1 12 4.3070 -0.0256
-2 1 13 0.5844 -0.0212
-2 1 14 -2.6218 0.0764
-2 1 15 -0.6128 -0.0201
-2 1 16 0.0626 0.0009
-2 1 17 -0.8396 0.0354
-2 1 18 0.1690 -0.0520
-2 2 1 -38.2890 0.4325
-2 2 2 -30.4325 -0.0461
-2 2 3 -7.3402 0.0732
-2 2 4 15.7536 0.1635
-2 2 5 15.1873 -0.0227
-2 2 6 -1.5714 -0.0363
-2 2 7 -5.2549 0.0604
-2 2 8 1.1224 0.0326
-2 2 9 2.6077 -0.0138
-2 2 10 2.1948 -0.0126
-2 2 11 3.1739 -0.0061
-2 2 12 3.0112 -0.0072
-2 2 13 1.0120 -0.0038
-2 2 14 -0.7328 0.0241
-2 2 15 -0.9884 -0.0180
-2 2 16 -1.2071 -0.0295
-2 2 17 -0.5577 0.0505
-2 2 18 1.2486 0.0183
-2 3 1 1.8499 0.5700
-2 3 2 -12.3328 -0.1935
-2 3 3 -1.6444 -0.1984
-2 3 4 22.2746 0.1703
-2 3 5 13.3779 -0.1341
-2 3 6 -6.5169 -0.0941
-2 3 7 -3.6614 0.1236
-2 3 8 2.3155 -0.0772
-2 3 9 0.1403 -0.0359
-2 3 10 2.0075 0.0248
-2 3 11 2.4331 -0.0560
-2 3 12 -0.6263 0.0224
-2 3 13 0.6429 0.0142
-2 3 14 0.8011 -0.0128
-2 3 15 -1.9924 -0.0087
-2 3 16 -1.9703 -0.0369
-2 3 17 -0.1197 0.0409
-2 4 1 20.5335 0.5247
-2 4 2 3.0992 -0.1939
-2 4 3 2.0939 -0.2134
-2 4 4 17.7577 0.1417
-2 4 5 9.7679 -0.1333
-2 4 6 -6.6962 -0.0542
-2 4 7 -4.4841 0.1221
-2 4 8 1.8352 -0.0733
-2 4 9 1.9753 -0.0088
-2 4 10 3.3704 0.0576
-2 4 11 1.7616 -0.0361
-2 4 12 -1.4350 0.0162
-2 4 13 1.0214 0.0250
-2 4 14 1.6991 -0.0303
-2 4 15 -1.3216 0.0086
-2 4 16 -1.3969 0.0268
-2 4 17 0.2186 0.0050
-2 5 1 17.1023 0.1434
-2 5 2 6.4802 0.0078
-2 5 3 0.1733 -0.0175
-2 5 4 4.6955 0.0325
-2 5 5 5.9671 -0.0470
-2 5 6 0.6667 -0.0031
-2 5 7 -2.9323 0.0689
-2 5 8 -0.2990 -0.0012
-2 5 9 3.6096 -0.0013
-2 5 10 3.3627 0.0535
-2 5 11 -0.1793 -0.0179
-2 5 12 -1.5604 -0.0122
-2 5 13 -0.2122 0.0373
-2 5 14 -0.2538 -0.0423
-2 5 15 -1.0277 0.0344
-2 5 16 -0.7118 0.1257
-2 6 1 7.0040 -0.3283
-2 6 2 2.0621 0.1637
-2 6 3 -1.9887 0.0965
-2 6 4 -4.8765 -0.1084
-2 6 5 0.8915 0.0183
-2 6 6 5.0759 0.0036
-2 6 7 0.2768 -0.0024
-2 6 8 -0.7756 0.0188
-2 6 9 2.6535 -0.0207
-2 6 10 0.9518 0.0185
-2 6 11 -2.4312 -0.0240
-2 6 12 -2.1691 -0.0080
-2 6 13 -1.5669 0.0360
-2 6 14 -2.0455 -0.0569
-2 6 15 -1.5080 0.0259
-2 7 1 -0.9172 -0.5064
-2 7 2 -2.3422 0.1375
-2 7 3 -2.3573 0.0827
-2 7 4 -5.6046 -0.1384
-2 7 5 -2.1789 0.0509
-2 7 6 2.7138 0.0189
-2 7 7 2.0037 -0.0466
-2 7 8 1.8902 0.0014
-2 7 9 1.7759 -0.0051
-2 7 10 -1.1336 -0.0070
-2 7 11 -2.2698 -0.0073
-2 7 12 -1.0963 0.0231
-2 7 13 -0.5276 0.0065
-2 7 14 -0.6300 -0.0602
-2 7 15 -0.6342 -0.0275
-2 8 1 -3.0509 -0.3336
-2 8 2 -0.3849 0.0343
-2 8 3 0.2441 0.0546
-2 8 4 -1.0812 -0.0631
-2 8 5 -0.5501 0.0653
-2 8 6 -0.0083 0.0452
-2 8 7 1.3913 -0.0672
-2 8 8 3.1224 -0.0018
-2 8 9 0.2362 0.0272
-2 8 10 -3.2853 -0.0140
-2 8 11 -2.1813 0.0309
-2 8 12 -0.4738 0.0280
-2 8 13 -0.3168 -0.0110
-2 8 14 -0.0190 -0.0163
-2 9 1 -1.3394 -0.0141
-2 9 2 2.9258 -0.0222
-2 9 3 2.7830 0.0295
-2 9 4 2.0610 0.0057
-2 9 5 1.5705 0.0431
-2 9 6 -0.7465 0.0306
-2 9 7 -0.5247 -0.0593
-2 9 8 1.0122 0.0066
-2 9 9 -2.1266 0.0147
-2 9 10 -4.7634 -0.0238
-2 9 11 -2.7342 0.0288
-2 9 12 -1.1716 -0.0181
-2 9 13 -1.3147 -0.0142
-2 10 3 0.1730 -0.0048
-2 10 4 0.1621 0.0560
-2 10 5 0.5611 0.0089
-2 10 6 -0.7280 -0.0076
-2 10 7 -1.4649 -0.0062
-2 10 8 -0.8027 0.0226
-2 10 9 -2.6455 -0.0037
-2 10 10 -3.5576 -0.0306
-2 10 11 -1.3719 -0.0232
-2 10 12 -0.6529 -0.0678
-2 11 1 0.5744 0.3192
-2 11 2 -4.6846 -0.0241
-2 11 3 -4.4951 -0.0402
-2 11 5 -1.8450 -0.0184
-2 11 6 0.3069 -0.0254
-2 11 7 -0.0548 0.0377
-2 11 8 -0.8200 0.0150
-2 11 9 -1.8863 0.0047
-2 11 10 -1.7914 -0.0131
-2 11 11 0.3188 -0.0582
-2 12 1 -1.5022 0.1722
-2 12 2 -7.2219 -0.0713
-2 12 6 0.8128 -0.0281
-2 12 7 1.6916 0.0411
-2 12 8 -0.4088 -0.0315
-2 12 9 -1.3866 -0.0291
-2 12 10 -0.8635 0.0022
-2 13 4 -0.5553 -0.0280
-2 13 5 -2.7205 -0.0696
-2 13 6 -1.0707 -0.0271
-2 13 7 0.8829 0.0566
-2 13 8 -0.5407 -0.0385
-2 14 1 -4.5839 -0.0253
-2 14 2 -5.4304 -0.0015
-2 14 3 -0.4467 -0.0233
-2 14 4 0.9879 -0.0005
-2 14 5 -1.7659 -0.0306
-2 14 6 -2.3236 -0.0207
-2 14 7 -0.6486 0.0679
-2 15 1 -3.2855 -0.0271
-2 15 2 -2.9846 0.0412
-2 15 3 -0.2785 0.0384
-2 15 4 -0.1855 0.0259
-2 15 5 -0.5700 -0.0004
-2 15 6 -0.2312 -0.0056
-2 16 1 -2.1717 -0.0604
-2 16 2 -1.7114 0.0365
-2 16 3 -0.6286 0.0869
-2 16 4 -0.9302 0.0093
-2 17 1 -1.2407 -0.0952
-2 17 2 -1.2921 0.0260
-1 -18 7 -0.3805 -0.0054
-1 -18 8 -1.0112 -0.0001
-1 -18 9 -1.8792 -0.0121
-1 -18 10 -1.8452 0.0102
-1 -18 11 -0.6933 0.0556
-1 -18 12 -0.2489 0.0381
-1 -18 13 -0.4240 0.0274
-1 -17 1 -2.7634 0.0937
-1 -17 2 -0.1832 -0.0358
-1 -17 3 -1.3882 -0.0296
-1 -17 6 -1.2931 0.0053
-1 -17 7 0.2337 -0.0183
-1 -17 8 0.6895 -0.0068
-1 -17 9 -0.2180 -0.0119
-1 -17 10 -0.2719 -0.0022
-1 -17 11 -0.1812 0.0252
-1 -17 12 -0.7841 0.0098
-1 -17 13 -0.0677 0.0241
-1 -17 14 1.1998 0.0420
-1 -17 15 0.5211 0.0063
-1 -16 2 0.6286 -0.0505
-1 -16 3 -1.7603 -0.0080
-1 -16 4 -3.5286 -0.0048
-1 -16 5 -1.7845 -0.0125
-1 -16 6 -1.2236 -0.0087
-1 -16 7 -1.2864 -0.0062
-1 -16 8 0.4252 0.0112
-1 -16 9 2.4111 -0.0062
-1 -16 10 2.5042 -0.0111
-1 -16 11 0.6111 -0.0031
-1 -16 12 -0.6209 0.0002
-1 -16 13 0.4614 0.0226
-1 -16 14 1.2537 0.0206
-1 -16 15 -0.3038 0.0028
-1 -16 16 -1.1103 -0.0268
-1 -16 17 0.5098 -0.0620
-1 -15 1 -0.6529 0.0251
-1 -15 2 0.9510 -0.0010
-1 -15 3 -1.0526 -0.0036
-1 -15 4 -2.6071 -0.0120
-1 -15 5 0.1669 -0.0161
-1 -15 6 0.6001 -0.0228
-1 -15 7 -2.5381 0.0067
-1 -15 8 -1.8337 0.0166
-1 -15 9 2.7538 -0.0052
-1 -15 10 4.1854 -0.0069
-1 -15 11 1.2872 -0.0060
-1 -15 12 -0.0165 -0.0012
-1 -15 13 1.8194 0.0070
-1 -15 14 1.1908 0.0123
-1 -15 15 -1.8063 -0.0032
-1 -15 16 -0.8802 -0.0373
-1 -15 17 2.2478 -0.0557
-1 -14 1 0.5703 0.0112
-1 -14 2 0.4967 0.0635
-1 -14 3 -0.3521 0.0006
-1 -14 4 -2.2743 0.0012
-1 -14 5 -0.2952 -0.0032
-1 -14 6 0.8796 -0.0081
-1 -14 7 -1.8186 0.0156
-1 -14 8 -2.2383 -0.0063
-1 -14 9 0.7103 -0.0091
-1 -14 10 2.5763 -0.0061
-1 -14 11 1.0638 -0.0100
-1 -14 12 0.1704 -0.0053
-1 -14 13 2.5174 -0.0094
-1 -14 14 0.9471 0.0130
-1 -14 15 -3.4884 0.0022
-1 -14 16 -1.0698 -0.0291
-1 -14 17 3.2912 -0.0302
-1 -13 1 1.9552 -0.0388
-1 -13 2 -0.3200 0.0640
-1 -13 3 -0.4332 0.0092
-1 -13 4 -1.6461 -0.0005
-1 -13 5 -1.7389 -0.0101
-1 -13 6 -1.0961 0.0118
-1 -13 7 -1.2018 0.0170
-1 -13 8 0.0006 -0.0132
-1 -13 9 0.8883 0.0039
-1 -13 10 0.0649 -0.0009
-1 -13 11 -0.4662 -0.0113
-1 -13 12 0.2210 -0.0020
-1 -13 13 1.2981 0.0023
-1 -13 14 -0.5573 0.0136
-1 -13 15 -3.7714 0.0105
-1 -13 16 -1.7167 0.0128
-1 -12 1 2.9226 -0.1324
-1 -12 2 0.1206 0.0300
-1 -12 3 0.3366 0.0386
-1 -12 4 0.2118 -0.0210
-1 -12 5 -1.2663 -0.0010
-1 -12 6 -1.4620 0.0237
-1 -12 7 -1.3708 0.0024
-1 -12 8 1.0606 0.0115
-1 -12 9 3.9960 0.0090
-1 -12 10 1.3383 0.0046
-1 -12 11 -0.8094 0.0151
-1 -12 12 1.0728 0.0021
-1 -12 13 0.0960 0.0137
-1 -12 14 -1.9850 0.0133
-1 -12 15 -1.5731 0.0061
-1 -12 16 -0.5789 0.0272
-1 -11 1 1.3496 -0.2074
-1 -11 2 0.8326 0.0401
-1 -11 3 1.8893 0.0684
-1 -11 4 1.3874 -0.0494
-1 -11 5 -0.7678 0.0460
-1 -11 6 -1.5350 0.0274
-1 -11 7 -2.8050 -0.0247
-1 -11 8 -1.5600 0.0271
-1 -11 9 2.9782 -0.0251
-1 -11 10 2.7849 -0.0104
-1 -11 11 0.8635 0.0356
-1 -11 12 1.0959 -0.0165
-1 -11 13 -1.5429 -0.0039
-1 -11 14 -2.6853 0.0123
-1 -11 15 0.4436 -0.0021
-1 -11 16 1.1979 0.0141
-1 -11 17 -0.0898 0.0100
-1 -11 18 0.1568 0.0117
-1 -10 1 -2.2120 -0.1830
-1 -10 2 0.2226 0.0523
-1 -10 3 2.5021 0.0044
-1 -10 4 1.8400 -0.0864
-1 -10 5 -0.0962 0.0579
-1 -10 6 -3.7254 -0.0025
-1 -10 7 -6.1674 -0.0482
-1 -10 10 0.7601 -0.0172
-1 -10 11 3.4451 0.0161
-1 -10 12 0.5737 -0.0466
-1 -10 13 -4.1154 -0.0169
-1 -10 14 -2.8487 0.0143
-1 -10 15 0.7351 -0.0186
-1 -10 16 1.1094 0.0066
-1 -10 17 -0.6944 0.0218
-1 -10 18 -1.3163 -0.0094
-1 -10 19 0.2245 0.0342
-1 -10 20 1.3647 0.0761
-1 -9 1 -3.7227 0.0166
-1 -9 2 -0.2811 -0.0065
-1 -9 3 2.1773 -0.1002
-1 -9 4 3.4151 -0.0315
-1 -9 5 2.2197 0.0279
-1 -9 6 -5.9710 -0.0272
-1 -9 7 -9.9753 -0.0246
-1 -9 8 -5.4839 -0.0074
-1 -9 9 -3.7968 -0.0043
-1 -9 10 -0.3924 0.0090
-1 -9 11 5.4001 -0.0067
-1 -9 12 0.9757 -0.0352
-1 -9 13 -5.0817 -0.0024
-1 -9 14 -1.9776 0.0189
-1 -9 15 0.8253 -0.0383
-1 -9 16 -0.4150 -0.0048
-1 -9 17 -0.7947 0.0219
-1 -9 18 -0.6894 -0.0520
-1 -9 19 -0.7165 -0.0097
-1 -9 20 0.1057 0.0305
-1 -8 1 -1.9000 0.3078
-1 -8 2 -0.2256 -0.1292
-1 -8 3 0.9246 -0.0964
-1 -8 4 5.3988 0.1382
-1 -8 5 3.1687 -0.0019
-1 -8 6 -8.0604 -0.0063
-1 -8 7 -12.4614 0.0331
-1 -8 8 -7.4221 0.0008
-1 -8 9 -3.3348 0.0598
-1 -8 11 3.2058 -0.0112
-1 -8 12 -0.9271 0.0179
-1 -8 13 -4.7331 0.0092
-1 -8 14 -1.2883 0.0096
-1 -8 15 -0.0276 -0.0283
-1 -8 16 -2.5975 -0.0125
-1 -8 17 -1.0546 0.0081
-1 -8 18 0.1024 -0.0353
-1 -8 19 -1.2207 -0.0022
-1 -8 20 0.3195 -0.0128
-1 -7 1 -0.0643 0.4158
-1 -7 2 -1.9213 -0.2082
-1 -7 3 -1.8853 -0.0147
-1 -7 4 5.5613 0.1873
-1 -7 5 1.9368 -0.0659
-1 -7 6 -9.5419 -0.0069
-1 -7 7 -12.7510 0.0447
-1 -7 8 -8.3744 -0.0026
-1 -7 9 -1.5044 0.0559
-1 -7 10 1.5962 0.0011
-1 -7 11 -1.8605 -0.0137
-1 -7 12 -5.1418 0.0458
-1 -7 13 -3.8638 0.0064
-1 -7 14 -0.7756 -0.0159
-1 -7 15 -1.9652 0.0073
-1 -7 16 -4.0278 0.0004
-1 -7 17 -0.7326 -0.0024
-1 -7 18 -0.2221 0.0199
-1 -7 19 -2.0876 0.0359
-1 -7 20 0.9614 0.0163
-1 -6 1 0.5733 0.2252
-1 -6 2 -4.3722 -0.0724
-1 -6 3 -3.6916 0.0542
-1 -6 4 1.9928 0.0324
-1 -6 5 -1.3087 -0.1161
-1 -6 6 -8.7897 -0.0452
-1 -6 7 -12.2389 0.0167
-1 -6 8 -8.3631 -0.0249
-1 -6 9 1.8321 -0.0072
-1 -6 10 3.9383 0.0099
-1 -6 11 -4.0065 -0.0172
-1 -6 12 -6.4179 0.0314
-1 -6 13 -1.5204 0.0130
-1 -6 14 0.4438 -0.0383
-1 -6 15 -2.9716 0.0328
-1 -6 16 -3.3627 0.0112
-1 -6 17 0.5464 -0.0116
-1 -6 18 -0.2182 0.0453
-1 -6 19 -1.7699 0.0077
-1 -6 20 0.8877 0.0265
-1 -5 1 7.9440 -0.1394
-1 -5 2 3.8985 0.1763
-1 -5 3 4.4365 0.0656
-1 -5 4 -1.3893 -0.0965
-1 -5 5 -7.5344 -0.0433
-1 -5 6 -7.4040 -0.0386
-1 -5 7 -11.3301 0.0128
-1 -5 8 -11.4121 -0.0396
-1 -5 9 -0.0380 -0.0465
-1 -5 10 3.7420 0.0290
-1 -5 11 -3.5404 -0.0316
-1 -5 12 -4.2818 0.0194
-1 -5 13 0.9571 0.0240
-1 -5 14 0.2871 -0.0512
-1 -5 15 -3.5735 0.0348
-1 -5 16 -2.2327 0.0012
-1 -5 17 0.2600 -0.0329
-1 -5 18 -0.7315 0.0376
-1 -5 19 -0.4349 -0.0330
-1 -5 20 0.5318 -0.0203
-1 -4 1 24.6457 -0.4977
-1 -4 2 31.6844 0.2076
-1 -4 3 26.3683 0.0002
-1 -4 4 2.5643 -0.1057
-1 -4 5 -10.9678 0.0731
-1 -4 6 -5.9647 0.0276
-1 -4 12 -1.1296 0.0186
-1 -4 13 3.0078 0.0084
-1 -4 14 -0.9094 -0.0441
-1 -4 15 -3.6474 0.0207
-1 -4 16 -1.2921 -0.0105
-1 -4 17 -1.4204 -0.0515
-1 -4 18 -1.9036 0.0043
-1 -4 19 0.3874 -0.0204
-1 -4 20 0.6457 -0.0389
-1 -3 1 30.4591 -0.6030
-1 -3 2 59.5518 0.0867
-1 -3 3 45.4119 0.0012
-1 -3 4 9.2176 -0.1220
-1 -3 10 -6.7658 -0.0456
-1 -3 11 -4.1359 0.0041
-1 -3 12 1.6957 0.0011
-1 -3 13 4.2904 -0.0282
-1 -3 14 -0.8252 0.0035
-1 -3 15 -1.8065 0.0071
-1 -3 16 0.1388 0.0024
-1 -3 17 -1.9070 -0.0237
-1 -3 18 -1.5446 -0.0201
-1 -3 19 1.1704 0.0127
-1 -2 1 11.3021 -0.3882
-1 -2 2 53.1482 0.1123
-1 -2 3 37.7232 0.1450
-1 -2 10 -9.4373 -0.0899
-1 -2 11 -3.8916 0.0757
-1 -2 12 2.5868 -0.0252
-1 -2 13 2.5377 -0.0394
-1 -2 14 -0.6959 0.0624
-1 -2 15 -0.0967 -0.0002
-1 -2 16 0.3034 0.0244
-1 -2 17 -1.7773 0.0315
-1 -2 18 -0.4289 0.0016
-1 -2 19 1.7469 0.0526
-1 -1 2 6.3110 0.1600
-1 -1 10 -9.5653 -0.0656
-1 -1 11 -2.3557 0.0917
-1 -1 12 2.5154 -0.0325
-1 -1 13 0.6219 -0.0235
-1 -1 14 -0.0728 0.0664
-1 -1 15 0.1843 -0.0171
-1 -1 16 -0.9362 0.0087
-1 -1 17 -1.4807 0.0357
-1 -1 18 0.0212 0.0092
-1 -1 19 1.1484 0.0777
-1 0 6 -8.1941 -0.0260
-1 0 7 -5.3412 -0.0347
-1 0 8 2.3078 0.0173
-1 0 10 -7.0470 0.0042
-1 0 11 -0.8148 0.0341
-1 0 12 1.8833 -0.0199
-1 0 13 2.2971 -0.0204
-1 0 14 2.3126 0.0251
-1 0 15 -0.1515 -0.0257
-1 0 16 -1.4910 -0.0236
-1 0 17 -0.2435 0.0124
-1 0 18 0.5953 -0.0143
-1 1 1 26.3381 0.5999
-1 1 2 -73.3305 -0.2060
-1 1 3 -71.2846 -0.2741
-1 1 4 -4.7581 0.2277
-1 1 5 9.3360 -0.0404
-1 1 6 -2.8232 -0.1048
-1 1 7 3.6928 0.0695
-1 1 8 2.4335 -0.0426
-1 1 9 -6.2948 0.0176
-1 1 10 -3.8246 0.0396
-1 1 11 -1.9381 -0.0269
-1 1 12 -1.3483 0.0038
-1 1 13 3.9174 -0.0145
-1 1 14 3.2604 0.0060
-1 1 15 -1.6090 -0.0048
-1 1 16 -1.5731 -0.0261
-1 1 17 0.5198 0.0191
-1 1 18 0.8641 0.0099
-1 2 1 34.1949 0.9739
-1 2 2 -65.4511 -0.2251
-1 2 3 -58.7721 -0.2170
-1 2 4 2.2078 0.3252
-1 2 5 10.0103 -0.0991
-1 2 6 0.4854 -0.1058
-1 2 7 6.2074 0.1151
-1 2 8 1.2778 -0.0493
-1 2 9 -5.1426 0.0056
-1 2 10 -1.5196 0.0415
-1 2 11 -3.6648 -0.0374
-1 2 12 -4.0648 0.0149
-1 2 13 2.9479 0.0174
-1 2 14 2.1094 -0.0070
-1 2 15 -2.3301 -0.0032
-1 2 16 -1.2424 -0.0346
-1 2 17 0.3566 -0.0177
-1 3 1 11.6313 0.6713
-1 3 2 -43.3248 -0.0992
-1 3 3 -32.0221 -0.0631
-1 3 4 4.8289 0.1795
-1 3 5 9.5934 -0.0714
-1 3 6 2.8747 -0.0596
-1 3 7 1.9059 0.1010
-1 3 8 0.1863 -0.0242
-1 3 9 -0.5280 -0.0393
-1 3 10 -0.4247 0.0530
-1 3 11 -3.1627 -0.0218
-1 3 12 -2.9922 0.0001
-1 3 13 0.5485 0.0416
-1 3 14 0.5904 -0.0496
-1 3 15 -0.6378 -0.0166
-1 3 16 -0.0125 -0.0299
-1 3 17 0.2620 -0.0917
-1 4 1 -10.2968 -0.1322
-1 4 2 -19.3850 0.0424
-1 4 3 -11.2765 0.0184
-1 4 4 -1.0734 -0.0411
-1 4 5 6.2211 -0.0165
-1 4 6 5.3870 -0.0381
-1 4 7 -0.9451 0.0387
-1 4 8 0.0202 -0.0230
-1 4 9 1.7532 -0.0587
-1 4 10 -1.7570 0.0574
-1 4 11 -2.3823 -0.0176
-1 4 12 -1.6692 -0.0058
-1 4 13 -3.1232 0.0394
-1 4 14 -2.3689 -0.0620
-1 4 15 0.1760 0.0315
-1 4 16 0.7407 0.0671
-1 5 1 -9.7892 -0.6383
-1 5 2 -1.6227 0.0938
-1 5 3 -1.7372 0.0460
-1 5 4 -6.1226 -0.1260
-1 5 5 0.2431 0.0215
-1 5 6 2.9257 -0.0005
-1 5 7 -0.1775 -0.0182
-1 5 8 1.7858 -0.0298
-1 5 9 0.4658 -0.0198
-1 5 10 -3.6091 0.0223
-1 5 11 -1.6317 -0.0213
-1 5 12 -1.2724 0.0060
-1 5 13 -4.8887 0.0142
-1 5 14 -4.3363 -0.0205
-1 5 15 -0.5668 0.0959
-1 5 16 0.7432 0.1610
-1 6 1 0.9701 -0.5238
-1 6 2 3.7702 0.0182
-1 6 3 -0.9343 0.0704
-1 6 4 -2.4150 -0.0652
-1 6 5 -1.4044 0.0527
-1 6 6 -3.1021 0.0787
-1 6 7 0.9180 -0.0255
-1 6 8 5.9402 0.0057
-1 6 9 1.0811 0.0396
-1 6 10 -2.9842 -0.0279
-1 6 11 -0.2502 -0.0132
-1 6 12 -0.3721 0.0085
-1 6 13 -3.1131 -0.0159
-1 6 14 -2.5524 0.0203
-1 6 15 -0.2273 0.0949
-1 7 1 6.3209 -0.1682
-1 7 2 1.3140 -0.0800
-1 7 3 -2.6391 0.0827
-1 7 4 5.0722 0.0052
-1 7 5 3.4511 0.0538
-1 7 6 -4.4539 0.0935
-1 7 7 1.0917 -0.0321
-1 7 8 8.2616 0.0410
-1 7 9 3.1283 0.0534
-1 7 10 -1.7891 -0.0504
-1 7 11 -0.5137 0.0017
-1 7 12 -0.8766 -0.0012
-1 7 13 -2.2451 -0.0226
-1 7 14 -0.9440 0.0435
-1 8 1 4.7182 0.0455
-1 8 2 -2.4143 -0.0870
-1 8 3 -3.3607 0.0554
-1 8 4 7.0538 0.0062
-1 8 5 6.8059 -0.0046
-1 8 6 -1.3378 0.0051
-1 8 7 0.4000 -0.0578
-1 8 8 5.3842 0.0166
-1 8 9 2.3706 0.0065
-1 8 10 -1.3526 -0.0488
-1 8 11 -1.1610 0.0012
-1 8 12 -1.9493 -0.0304
-1 8 13 -2.7144 -0.0472
-1 9 1 2.3975 0.1287
-1 9 3 -3.8606 -0.0029
-1 9 4 2.9268 -0.0079
-1 9 5 4.6210 -0.0607
-1 9 6 0.5869 -0.0684
-1 9 7 -0.9564 -0.0344
-1 9 8 0.5278 -0.0068
-1 9 9 -0.1339 -0.0228
-1 9 10 -0.4566 -0.0193
-1 9 11 0.2599 0.0055
-1 9 12 -1.1217 -0.0630
-1 10 1 3.7471 0.2093
-1 10 2 -2.5478 0.0526
-1 10 3 -3.1568 -0.0608
-1 10 4 -1.4920 0.0132
-1 10 5 0.7309 -0.0514
-1 10 6 0.9987 -0.0635
-1 10 7 -0.8383 0.0263
-1 10 8 -1.6248 0.0063
-1 10 9 -1.3430 0.0156
-1 10 10 0.2255 0.0664
-1 10 11 1.3011 0.0399
-1 11 1 4.9884 0.2583
-1 11 2 2.1210 0.0565
-1 11 3 0.1889 -0.0826
-1 11 4 -2.4807 0.0466
-1 11 6 0.8669 -0.0249
-1 11 7 1.3199 0.0581
-1 11 8 -0.8049 -0.0092
-1 11 9 -0.9016 0.0421
-1 11 10 0.4561 0.1532
-1 12 1 2.1708 0.1956
-1 12 2 4.6105 0.0099
-1 12 3 4.5069 -0.0385
-1 12 6 -0.7957 0.0200
-1 12 7 1.5920 0.0748
-1 12 8 -0.4702 -0.0274
-1 12 9 -0.4555 0.0209
-1 13 1 -1.0241 0.0162
-1 13 2 6.1621 -0.0474
-1 13 5 -2.8719 0.0120
-1 13 6 -1.9239 0.0317
-1 13 7 -0.7862 0.0535
-1 13 8 -1.3946 0.0088
-1 14 1 -0.0576 -0.1738
-1 14 4 0.6002 -0.0369
-1 14 5 -1.3633 -0.0195
-1 14 6 -0.2987 -0.0184
-1 14 7 -1.3684 -0.0422
-1 15 1 3.3467 -0.2034
-1 15 2 11.6472 -0.0078
-1 15 3 7.4594 0.0233
-1 15 4 -1.7681 -0.0760
-1 15 5 -1.5056 -0.0244
-1 16 1 4.3126 -0.0671
-1 16 2 8.2395 0.0453
-1 16 3 3.7390 0.0167
-1 17 1 2.1049 0.0595
0 -19 8 0.2453 0.0320
0 -19 9 -1.2214 0.0103
0 -18 2 1.5554 -0.0552
0 -18 3 -0.3888 -0.0129
0 -18 4 -0.4582 0.0404
0 -18 7 -0.3300 -0.0081
0 -18 8 1.2972 0.0183
0 -18 9 -0.0919 -0.0050
0 -18 10 -0.1062 0.0090
0 -18 11 -0.4360 0.0037
0 -18 12 -0.9265 -0.0339
0 -18 13 0.2211 -0.0342
0 -17 1 2.0198 0.0228
0 -17 2 1.8808 -0.0110
0 -17 3 -0.4941 -0.0053
0 -17 6 -3.0267 -0.0248
0 -17 7 -1.1267 0.0142
0 -17 8 1.5668 0.0115
0 -17 9 1.8030 -0.0096
0 -17 10 0.9115 0.0080
0 -17 11 -0.3924 0.0167
0 -17 12 -0.6017 0.0043
0 -17 13 0.5093 -0.0178
0 -17 14 0.5471 -0.0169
0 -17 15 0.1116 0.0066
0 -16 1 0.6755 0.0616
0 -16 2 1.0365 -0.0024
0 -16 3 -0.3218 0.0105
0 -16 5 0.2466 0.0037
0 -16 6 -0.0296 -0.0139
0 -16 7 -0.9484 0.0215
0 -16 8 0.5567 0.0010
0 -16 9 2.2832 0.0037
0 -16 10 1.1585 0.0217
0 -16 11 -0.9541 0.0330
0 -16 12 -0.7325 0.0234
0 -16 13 0.4952 0.0097
0 -16 14 0.3605 0.0045
0 -16 15 0.4761 -0.0088
0 -16 16 1.3822 0.0499
0 -16 17 1.1519 0.0999
0 -15 1 -2.0899 -0.0023
0 -15 2 -1.0005 -0.0255
0 -15 3 -0.4052 0.0330
0 -15 4 -1.5860 0.0399
0 -15 5 0.0658 -0.0085
0 -15 6 1.7030 0.0086
0 -15 7 0.6764 -0.0069
0 -15 8 0.3048 -0.0139
0 -15 9 0.9250 0.0072
0 -15 10 0.3201 0.0025
0 -15 11 -1.2494 0.0152
0 -15 12 -1.6247 0.0112
0 -15 13 -0.3829 0.0022
0 -15 14 0.3627 -0.0070
0 -15 15 0.3607 -0.0259
0 -15 16 0.8585 0.0302
0 -15 17 1.1294 0.0811
0 -14 1 -4.1589 -0.1204
0 -14 2 -3.2414 -0.0213
0 -14 3 -1.1234 0.0328
0 -14 4 -1.7818 -0.0402
0 -14 5 -1.6567 -0.0189
0 -14 6 -0.1713 0.0017
0 -14 7 0.8555 -0.0323
0 -14 8 1.5837 -0.0065
0 -14 9 0.3939 -0.0074
0 -14 10 -1.0834 -0.0242
0 -14 11 -0.7162 -0.0033
0 -14 12 -1.7247 0.0005
0 -14 13 -1.9920 -0.0165
0 -14 14 0.6061 -0.0362
0 -14 15 0.3990 -0.0202
0 -14 16 -0.8076 0.0102
0 -14 17 0.9013 0.0106
0 -13 1 -3.2009 -0.1805
0 -13 2 -2.8690 0.0409
0 -13 3 -1.2715 0.0023
0 -13 4 -1.1859 -0.1012
0 -13 5 -1.4219 -0.0096
0 -13 6 -1.4625 -0.0155
0 -13 7 -0.5929 -0.0174
0 -13 8 2.2596 0.0195
0 -13 9 2.3415 -0.0235
0 -13 10 0.1557 -0.0125
0 -13 11 0.7219 0.0105
0 -13 12 -0.4238 -0.0079
0 -13 13 -1.7792 -0.0175
0 -13 14 1.2179 -0.0275
0 -13 15 0.8519 -0.0119
0 -13 16 -1.3664 -0.0079
0 -12 1 -0.9284 -0.1187
0 -12 2 -0.5072 0.1071
0 -12 3 -1.2397 -0.0240
0 -12 4 -1.1757 -0.0896
0 -12 5 -0.2813 0.0304
0 -12 6 -0.9061 0.0110
0 -12 7 -0.9804 0.0174
0 -12 8 0.4909 0.0280
0 -12 9 1.7680 -0.0198
0 -12 10 2.7271 0.0134
0 -12 11 1.8600 0.0271
0 -12 12 -0.7569 -0.0190
0 -12 13 -0.2114 -0.0096
0 -12 14 1.9439 0.0118
0 -12 15 0.5402 -0.0122
0 -12 16 -0.9210 -0.0159
0 -12 17 -0.0927 -0.0147
0 -12 18 -0.0499 -0.0310
0 -11 1 0.0262 0.0424
0 -11 2 -0.1902 0.0744
0 -11 3 -2.5168 -0.0325
0 -11 4 -1.0690 -0.0222
0 -11 5 0.6602 0.0425
0 -11 6 -0.4613 0.0414
0 -11 7 0.8104 0.0138
0 -11 8 -0.6070 0.0079
0 -11 9 -2.3722 0.0116
0 -11 10 2.2201 0.0143
0 -11 11 1.9772 0.0194
0 -11 12 -2.1596 -0.0126
0 -11 13 0.6743 0.0029
0 -11 14 2.5341 0.0349
0 -11 15 -0.1021 -0.0165
0 -11 16 -0.8498 -0.0043
0 -11 17 -1.0364 0.0142
0 -11 18 -1.4058 -0.0199
0 -10 1 0.7609 0.2103
0 -10 2 -2.4576 -0.0674
0 -10 3 -3.6342 -0.0216
0 -10 4 1.2587 0.0574
0 -10 5 3.0143 -0.0014
0 -10 6 1.2540 0.0231
0 -10 7 3.0339 -0.0174
0 -10 8 0.4932 -0.0097
0 -10 9 -3.7042 0.0365
0 -10 10 -0.3445 -0.0027
0 -10 11 1.0121 0.0092
0 -10 12 -0.8012 0.0063
0 -10 13 1.8369 0.0122
0 -10 14 2.9310 0.0352
0 -10 15 0.0491 -0.0128
0 -10 16 -1.1014 0.0091
0 -10 17 -0.5057 0.0187
0 -10 18 -0.6502 -0.0322
0 -10 19 -1.0349 0.0013
0 -9 1 1.3497 0.2636
0 -9 2 -4.6372 -0.1925
0 -9 3 -2.5079 -0.0062
0 -9 4 3.3579 0.1003
0 -9 5 3.6720 -0.0532
0 -9 6 3.9115 -0.0237
0 -9 7 4.0943 -0.0161
0 -9 8 0.6354 -0.0178
0 -9 9 -1.5735 0.0072
0 -9 10 -2.3106 -0.0168
0 -9 11 -2.1430 -0.0033
0 -9 12 0.7645 0.0053
0 -9 13 2.6786 0.0047
0 -9 14 1.7678 0.0177
0 -9 15 -0.6542 0.0036
0 -9 16 -1.6244 0.0077
0 -9 17 0.1895 0.0139
0 -9 18 -0.0135 -0.0059
0 -9 19 -0.7781 0.0092
0 -8 1 -1.2470 0.1763
0 -8 2 -5.4876 -0.1354
0 -8 3 -0.8558 -0.0070
0 -8 4 0.2076 0.0848
0 -8 5 -0.6910 -0.0607
0 -8 6 4.9506 -0.0577
0 -8 7 5.6662 0.0257
0 -8 8 2.1295 -0.0362
0 -8 9 2.0767 -0.0401
0 -8 10 -1.9812 0.0031
0 -8 11 -4.9248 -0.0368
0 -8 12 0.0124 -0.0097
0 -8 13 2.2185 0.0039
0 -8 14 -0.5408 -0.0183
0 -8 15 -2.3646 0.0162
0 -8 16 -1.5157 0.0004
0 -8 17 0.0442 -0.0017
0 -8 18 -1.0346 0.0263
0 -8 19 -0.8024 0.0407
0 -8 20 1.5262 0.0690
0 -7 1 -6.5782 0.0515
0 -7 2 -5.2401 0.1028
0 -7 3 -2.7303 0.0133
0 -7 4 -10.5025 0.0694
0 -7 5 -7.9745 -0.0072
0 -7 6 4.4324 -0.0407
0 -7 7 6.7132 0.0731
0 -7 8 5.2263 -0.0414
0 -7 9 6.1936 -0.0251
0 -7 10 0.8588 0.0525
0 -7 11 -3.8852 -0.0614
0 -7 12 0.0384 -0.0018
0 -7 13 2.1141 0.0238
0 -7 14 -1.7940 -0.0430
0 -7 15 -2.7411 0.0220
0 -7 16 -0.2019 0.0019
0 -7 17 -0.3645 -0.0197
0 -7 18 -1.4792 0.0139
0 -7 19 -0.0467 -0.0071
0 -7 20 1.0753 0.0326
0 -6 1 -4.8273 -0.1188
0 -6 2 0.9349 0.1909
0 -6 3 -5.0661 0.0253
0 -6 4 -20.7119 0.0328
0 -6 5 -11.5595 0.0309
0 -6 6 5.2800 0.0121
0 -6 7 4.9801 0.0653
0 -6 8 2.4916 -0.0124
0 -6 12 1.1727 0.0222
0 -6 13 2.1473 0.0212
0 -6 14 -2.2737 -0.0374
0 -6 15 -1.6827 0.0245
0 -6 16 0.5581 0.0009
0 -6 17 -1.4429 -0.0256
0 -6 18 -0.8357 0.0126
0 -6 19 1.3028 -0.0751
0 -6 20 0.2402 -0.1107
0 -5 1 11.9169 -0.3950
0 -5 2 17.4263 -0.0287
0 -5 3 -0.9611 -0.0157
0 -5 4 -15.8592 -0.1181
0 -5 5 -2.7253 -0.0043
0 -5 6 10.0267 0.0480
0 -5 12 1.5366 0.0213
0 -5 13 1.2886 -0.0150
0 -5 14 -2.2489 -0.0134
0 -5 15 0.0935 0.0127
0 -5 16 0.5841 -0.0113
0 -5 17 -2.2155 -0.0266
0 -5 18 -0.0993 0.0362
0 -5 19 1.7078 -0.0524
0 -5 20 -0.0972 -0.1768
0 -4 1 34.1789 -0.5732
0 -4 2 30.0762 -0.0839
0 -4 3 2.7605 0.0486
0 -4 4 1.9881 -0.2592
0 -4 10 -10.2192 -0.0678
0 -4 11 -4.3122 0.0654
0 -4 12 1.1364 -0.0062
0 -4 13 -0.0228 -0.0374
0 -4 14 -1.0957 0.0215
0 -4 15 1.6383 -0.0004
0 -4 16 0.7636 -0.0079
0 -4 17 -1.1728 -0.0020
0 -4 18 0.7656 0.0355
0 -4 19 1.0201 -0.0047
0 -3 1 54.3515 -0.4805
0 -3 2 19.7008 0.2374
0 -3 3 -4.5739 0.2092
0 -3 10 -10.3985 -0.0460
0 -3 11 -2.3978 0.0862
0 -3 12 0.1090 -0.0183
0 -3 13 -1.4090 -0.0326
0 -3 14 -0.1053 0.0475
0 -3 15 0.7825 -0.0033
0 -3 16 -0.0206 -0.0010
0 -3 17 0.1011 0.0422
0 -3 18 0.9239 0.0089
0 -3 19 -0.1225 -0.0255
0 -2 1 84.8729 -0.2343
0 -2 2 -6.5773 0.3315
0 -2 7 1.0990 -0.0881
0 -2 10 -4.8767 -0.0294
0 -2 11 0.8114 0.0440
0 -2 12 -0.4511 -0.0006
0 -2 13 -0.7200 -0.0287
0 -2 14 0.4882 0.0412
0 -2 15 -1.4629 -0.0209
0 -2 16 -0.9526 -0.0373
0 -2 17 0.7659 0.0377
0 -2 18 0.1821 -0.0259
0 -2 19 -0.9974 -0.0652
0 -1 1 127.7711 0.1488
0 -1 4 23.7860 0.1233
0 -1 5 3.8909 0.0005
0 -1 6 -15.6816 -0.0671
0 -1 8 7.8455 -0.0082
0 -1 9 0.9262 0.0245
0 -1 10 1.6967 -0.0276
0 -1 11 0.9562 -0.0042
0 -1 12 -0.7947 0.0114
0 -1 13 2.7276 -0.0260
0 -1 14 1.5585 0.0262
0 -1 15 -2.2058 -0.0345
0 -1 16 -0.1100 -0.0605
0 -1 17 1.7506 0.0108
0 -1 18 0.0296 -0.0332
0 0 1 152.0178 0.6484
0 0 2 -17.4455 -0.2664
0 0 3 -20.7056 -0.2407
0 0 4 14.6433 0.2439
0 0 5 -6.7127 -0.1191
0 0 6 -10.9607 -0.1152
0 0 7 5.9344 0.0773
0 0 8 3.4009 -0.0201
0 0 9 1.8549 -0.0090
0 0 10 4.6468 -0.0018
0 0 11 -2.8207 -0.0138
0 0 12 -2.8980 -0.0001
0 0 13 4.6004 0.0015
0 0 14 2.1987 0.0229
0 0 15 -1.5772 -0.0046
0 0 16 0.9220 -0.0037
0 0 17 1.8699 0.0382
0 0 18 0.1945 0.0224
0 1 0 229.9551 0.7160
0 1 1 125.5684 0.8535
0 1 2 -3.6482 -0.0774
0 1 3 -13.4790 -0.0896
0 1 4 1.7599 0.2063
0 1 5 -8.1307 -0.1067
0 1 6 -2.0355 -0.0977
0 1 7 6.5457 0.1330
0 1 8 1.8867 -0.0110
0 1 9 3.7005 -0.0604
0 1 10 4.4542 0.0465
0 1 11 -4.2984 -0.0230
0 1 12 -4.1642 -0.0182
0 1 13 3.0325 0.0395
0 1 14 2.3714 -0.0039
0 1 15 -0.1016 0.0202
0 1 16 0.9079 0.0384
0 1 17 0.5391 0.0469
0 1 18 -0.2967 0.0759
0 2 1 60.8752 0.5264
0 2 2 1.3158 0.1185
0 2 3 -8.8349 -0.0671
0 2 4 -7.7975 0.0199
0 2 5 -3.2189 -0.0382
0 2 6 3.7532 -0.0413
0 2 7 3.0098 0.1396
0 2 8 3.4229 -0.0171
0 2 9 6.3871 -0.0700
0 2 10 3.7668 0.0725
0 2 11 -1.0203 -0.0501
0 2 12 -1.9429 -0.0220
0 2 13 0.5480 0.0499
0 2 14 2.0261 -0.0459
0 2 15 1.6397 0.0056
0 2 16 0.8810 0.0074
0 2 17 -0.5494 -0.0212
0 3 1 8.5979 0.0534
0 3 2 0.4473 0.0639
0 3 3 -6.2934 -0.1215
0 3 4 -11.1609 -0.0848
0 3 5 -1.4383 0.0181
0 3 6 3.0485 0.0287
0 3 7 0.2486 0.0828
0 3 8 4.7732 -0.0347
0 3 9 6.4313 -0.0256
0 3 10 2.3434 0.0553
0 3 11 1.7721 -0.0412
0 3 12 0.8587 -0.0035
0 3 13 -1.0942 0.0312
0 3 14 0.0124 -0.0451
0 3 15 1.6272 -0.0009
0 3 16 0.9644 -0.0015
0 4 0 7.8174 0.2411
0 4 1 -3.1005 -0.1885
0 4 2 1.5415 -0.1115
0 4 3 -2.4125 -0.0312
0 4 4 -7.2896 -0.0433
0 4 5 -5.1598 0.0350
0 4 6 -3.2383 0.0830
0 4 7 -0.1633 -0.0141
0 4 8 4.1374 -0.0366
0 4 9 2.6694 0.0251
0 4 10 0.3735 0.0147
0 4 11 2.7127 0.0066
0 4 12 3.0035 0.0057
0 4 13 -0.3182 -0.0099
0 4 14 -1.2526 -0.0217
0 4 15 0.5222 0.0009
0 4 16 0.9837 0.0160
0 5 0 5.5352 0.3609
0 5 1 6.2179 -0.2094
0 5 2 1.5057 -0.1994
0 5 3 0.7512 0.1197
0 5 4 1.9951 -0.0187
0 5 5 -5.7278 0.0059
0 5 6 -8.5403 0.0833
0 5 7 0.0091 -0.0844
0 5 8 3.9483 -0.0180
0 5 9 0.1186 0.0368
0 5 10 -0.2432 -0.0206
0 5 11 3.7396 0.0347
0 5 12 4.6216 -0.0041
0 5 13 1.9272 -0.0444
0 5 14 0.1640 0.0003
0 5 15 0.1322 0.0063
0 6 0 5.3515 0.3479
0 6 1 10.1197 -0.1107
0 6 2 -0.7889 -0.0887
0 6 3 2.1024 0.1591
0 6 4 9.2813 -0.0432
0 6 5 -0.5897 -0.0148
0 6 6 -7.4106 0.0281
0 6 7 0.1392 -0.0962
0 6 8 4.6346 0.0022
0 6 9 1.1571 0.0240
0 6 10 0.3820 -0.0307
0 6 11 3.1982 0.0324
0 6 12 3.3801 0.0047
0 6 13 2.0349 -0.0206
0 6 14 1.1722 0.0648
0 7 0 3.3931 0.0442
0 7 1 3.9648 0.0050
0 7 2 -2.2240 0.0942
0 7 3 3.6959 0.0807
0 7 4 9.0521 -0.0249
0 7 5 1.7781 0.0050
0 7 6 -3.4308 -0.0269
0 7 7 0.7037 -0.0622
0 7 8 3.9546 0.0080
0 7 9 2.2724 0.0077
0 7 10 1.2112 -0.0246
0 7 11 1.4012 0.0208
0 7 12 0.8992 0.0137
0 7 13 1.1216 0.0252
0 7 14 0.7404 0.1288
0 8 0 2.0660 -0.3166
0 8 1 -3.5062 0.0598
0 8 2 -2.7502 0.1363
0 8 3 5.3154 -0.0264
0 8 4 5.7072 0.0346
0 8 5 0.0195 0.0198
0 8 6 -1.0517 -0.0333
0 8 7 1.5878 0.0149
0 8 8 2.1550 0.0196
0 8 9 1.5336 -0.0066
0 8 10 1.7283 -0.0119
0 8 11 0.9181 0.0139
0 8 12 0.4934 0.0055
0 8 13 1.3654 0.0391
0 9 0 1.5766 -0.3878
0 9 1 -4.3804 0.0873
0 9 4 4.3819 0.0651
0 9 5 0.0599 -0.0027
0 9 6 1.1200 -0.0170
0 9 7 2.6423 0.0833
0 9 8 1.1016 0.0296
0 9 9 0.7874 -0.0043
0 9 10 1.5204 0.0240
0 9 11 0.8987 0.0164
0 9 12 0.6842 0.0279
0 10 0 1.2310 -0.1624
0 10 1 -0.2413 0.0890
0 10 2 -0.1442 -0.0375
0 10 3 3.0063 -0.0768
0 10 4 2.7066 0.0387
0 10 5 0.6816 -0.0317
0 10 6 3.0061 -0.0123
0 10 7 3.4087 0.0702
0 10 8 0.8556 -0.0125
0 10 9 0.9436 -0.0001
0 10 10 1.0611 0.0711
0 10 11 0.2773 0.0159
0 11 0 0.8739 0.0787
0 11 1 2.2712 0.0224
0 11 2 0.2153 -0.0610
0 11 3 -0.5526 -0.0346
0 11 4 -0.2981 -0.0055
0 11 5 -0.0333 -0.0232
0 11 6 2.5320 0.0011
0 11 7 2.2571 0.0207
0 11 8 -0.1602 -0.0572
0 11 9 0.2266 -0.0113
0 11 10 0.2691 0.0847
0 12 0 0.4153 0.1602
0 12 1 1.9202 -0.0590
0 12 2 -1.0362 -0.0385
0 12 3 -3.5577 -0.0001
0 12 4 -1.1717 -0.0321
0 12 6 2.1303 0.0020
0 12 7 -0.2635 -0.0179
0 12 8 -1.5779 -0.0336
0 12 9 -1.1394 -0.0092
0 13 0 -0.1657 0.1128
0 13 1 2.5565 -0.0745
0 13 2 0.1997 0.0014
0 13 3 -3.2620 0.0190
0 13 5 5.9538 0.0067
0 13 6 3.6190 -0.0390
0 13 7 -0.9491 -0.0782
0 14 0 0.3961 0.0439
0 14 1 5.0280 -0.0275
0 14 2 3.7720 0.0275
0 14 4 1.5637 0.0221
0 14 5 5.0931 0.0076
0 14 6 2.9891 -0.0525
0 15 0 1.6692 0.0089
0 15 3 1.7963 0.0725
0 15 4 1.3279 0.0608
0 16 0 1.6145 -0.0058
0 16 1 2.6625 -0.0036
0 16 2 1.0578 -0.0357
0 17 0 0.5631 -0.0145
1 -19 8 0.8369 -0.0242
1 -19 9 0.2677 -0.0408
1 -19 10 1.6031 0.0007
1 -18 1 1.1581 0.0590
1 -18 2 1.0584 -0.0137
1 -18 3 -0.3452 0.0180
1 -18 4 -1.1966 0.0406
1 -18 7 0.7669 0.0267
1 -18 8 0.2268 -0.0325
1 -18 9 -0.1232 -0.0313
1 -18 10 1.0698 0.0061
1 -18 11 1.8981 0.0111
1 -18 12 1.0572 -0.0160
1 -18 13 0.1003 -0.0212
1 -18 14 0.1672 -0.0127
1 -17 0 0.3257 0.0272
1 -17 1 2.1826 0.0127
1 -17 2 4.6078 -0.0415
1 -17 3 1.7278 0.0210
1 -17 6 1.3345 -0.0057
1 -17 7 0.7151 0.0072
1 -17 8 -0.2969 -0.0169
1 -17 9 -0.5194 -0.0057
1 -17 10 -0.1776 0.0046
1 -17 11 0.7549 -0.0192
1 -17 12 1.0843 -0.0274
1 -17 13 0.6276 0.0073
1 -17 14 0.5027 -0.0029
1 -17 15 0.1637 -0.0069
1 -16 0 0.0929 0.0790
1 -16 1 2.8105 -0.0306
1 -16 2 6.5179 0.0057
1 -16 3 3.2041 0.0331
1 -16 5 -0.3284 -0.0431
1 -16 6 2.8887 -0.0147
1 -16 7 2.1342 0.0009
1 -16 8 -0.1281 0.0238
1 -16 9 -0.9234 0.0150
1 -16 10 -0.3745 -0.0071
1 -16 11 -0.0198 -0.0290
1 -16 12 -0.2738 -0.0228
1 -16 13 0.5811 0.0085
1 -16 14 1.2983 0.0124
1 -16 15 -0.1304 0.0008
1 -16 16 -0.3302 0.0103
1 -15 3 1.7741 0.0352
1 -15 4 -0.8945 -0.0241
1 -15 5 0.0494 -0.0013
1 -15 6 2.0521 -0.0032
1 -15 7 2.1716 0.0256
1 -15 8 -0.0986 0.0422
1 -15 9 -2.3633 0.0123
1 -15 10 -1.1064 -0.0074
1 -15 11 -0.0286 -0.0087
1 -15 12 -1.9956 -0.0005
1 -15 13 -0.4812 0.0020
1 -15 14 1.8903 0.0264
1 -15 15 -0.7226 0.0299
1 -15 16 0.0160 -0.0058
1 -15 17 3.8078 0.0298
1 -14 0 -3.4752 0.0499
1 -14 1 1.7590 0.0296
1 -14 2 2.2434 0.0820
1 -14 3 -0.6008 0.0003
1 -14 4 0.7079 -0.0208
1 -14 5 2.3224 0.0115
1 -14 6 1.5313 0.0135
1 -14 7 1.0607 0.0210
1 -14 8 -0.3451 0.0080
1 -14 9 -2.2609 -0.0043
1 -14 10 -0.8118 -0.0009
1 -14 11 0.1064 0.0044
1 -14 12 -1.5871 0.0037
1 -14 13 0.0278 0.0100
1 -14 14 1.2435 0.0287
1 -14 15 -1.2452 0.0213
1 -14 16 1.1315 0.0145
1 -13 0 -1.8503 -0.0889
1 -13 1 3.2353 -0.0286
1 -13 2 1.4232 0.0070
1 -13 3 -1.9540 -0.0388
1 -13 4 2.0437 -0.0455
1 -13 6 2.3801 0.0262
1 -13 7 0.9573 -0.0358
1 -13 8 -1.7177 -0.0306
1 -13 9 -0.6627 -0.0072
1 -13 10 2.6731 -0.0092
1 -13 11 0.2786 0.0007
1 -13 12 -0.3265 -0.0158
1 -13 13 2.6738 0.0064
1 -13 14 0.5310 0.0179
1 -13 15 -1.2367 -0.0185
1 -13 16 2.3639 0.0209
1 -13 17 4.4707 0.0359
1 -13 18 2.6134 0.0222
1 -12 0 2.4610 -0.1553
1 -12 1 3.5279 -0.0877
1 -12 2 -0.8576 -0.0639
1 -12 3 -2.6914 -0.0153
1 -12 4 2.0476 -0.0165
1 -12 5 2.6556 0.0421
1 -12 6 2.1819 0.0298
1 -12 7 2.0184 -0.0701
1 -12 8 -2.8899 -0.0191
1 -12 9 -0.3392 0.0079
1 -12 10 5.4731 -0.0201
1 -12 11 0.9066 0.0075
1 -12 12 -0.2136 -0.0146
1 -12 13 3.6984 -0.0080
1 -12 14 1.1085 0.0075
1 -12 15 0.0078 -0.0280
1 -12 16 2.5926 0.0006
1 -12 17 2.7052 0.0184
1 -12 18 1.8434 0.0053
1 -12 19 0.2875 0.0298
1 -11 0 6.8872 -0.1014
1 -11 1 1.9903 -0.0395
1 -11 2 -4.3766 -0.0601
1 -11 3 -2.4360 0.0506
1 -11 4 1.6132 0.0735
1 -11 5 1.1615 0.0518
1 -11 7 2.5594 -0.0254
1 -11 8 -1.7717 0.0113
1 -11 9 0.2736 0.0135
1 -11 10 3.9640 -0.0046
1 -11 11 1.3558 0.0161
1 -11 12 0.8712 0.0017
1 -11 13 2.8022 -0.0101
1 -11 14 2.1788 0.0047
1 -11 15 1.7303 -0.0062
1 -11 16 1.8137 -0.0109
1 -11 17 1.7468 -0.0012
1 -11 18 1.6225 -0.0170
1 -11 19 0.2592 -0.0266
1 -10 1 -0.3960 0.0762
1 -10 2 -4.9511 -0.0012
1 -10 3 -0.8567 0.0434
1 -10 4 -0.0202 0.1037
1 -10 5 1.5967 -0.0023
1 -10 6 4.6818 -0.0175
1 -10 7 0.1309 0.0473
1 -10 8 -1.9642 -0.0010
1 -10 9 1.7033 -0.0014
1 -10 10 0.3143 0.0246
1 -10 11 -0.4779 -0.0068
1 -10 12 2.4245 0.0022
1 -10 13 2.2603 -0.0043
1 -10 14 1.5657 -0.0067
1 -10 15 1.3066 0.0060
1 -10 16 0.0692 -0.0062
1 -10 17 0.6111 0.0078
1 -10 18 1.6151 -0.0129
1 -10 19 0.9308 -0.0277
1 -9 0 2.9332 -0.1051
1 -9 1 -2.7534 0.1305
1 -9 2 -0.3047 0.0296
1 -9 3 1.3854 -0.0699
1 -9 4 -2.9862 0.0390
1 -9 5 1.5122 -0.0785
1 -9 6 4.1716 -0.0577
1 -9 7 -4.8600 0.0750
1 -9 8 -4.1927 -0.0347
1 -9 9 3.3267 -0.0070
1 -9 10 -0.0057 0.0381
1 -9 11 -1.9680 -0.0423
1 -9 12 2.9496 0.0086
1 -9 13 2.4921 0.0109
1 -9 14 -0.5283 -0.0304
1 -9 15 -0.7649 0.0027
1 -9 16 -1.8077 0.0018
1 -9 17 -1.6199 -0.0004
1 -9 18 1.1491 -0.0027
1 -9 19 1.5511 0.0208
1 -8 0 -1.1834 -0.1828
1 -8 1 -3.3302 0.0696
1 -8 2 5.3751 0.0047
1 -8 3 1.7351 -0.1333
1 -8 4 -4.8867 -0.0076
1 -8 5 0.7116 -0.0815
1 -8 6 -2.1099 -0.0635
1 -8 7 -11.6665 0.0576
1 -8 8 -5.0932 -0.0227
1 -8 9 5.8829 0.0017
1 -8 10 3.7983 0.0320
1 -8 11 1.0350 -0.0353
1 -8 12 5.0076 0.0247
1 -8 13 3.5232 0.0315
1 -8 14 -1.4958 -0.0374
1 -8 15 -1.2413 0.0047
1 -8 16 -2.3999 0.0178
1 -8 17 -3.7151 -0.0262
1 -8 18 0.2053 -0.0069
1 -7 0 -1.3116 0.0132
1 -7 1 -0.8081 -0.0434
1 -7 2 5.1492 -0.0311
1 -7 3 -0.5121 -0.0382
1 -7 4 -0.4895 -0.0261
1 -7 5 3.0704 -0.0289
1 -7 6 -9.8802 -0.0309
1 -7 7 -18.2109 0.0137
1 -7 12 7.6795 0.0097
1 -7 13 3.8963 0.0228
1 -7 14 -0.7828 -0.0223
1 -7 15 0.0589 0.0086
1 -7 16 -2.0695 0.0263
1 -7 17 -4.3677 -0.0251
1 -7 18 -0.9633 0.0201
1 -6 0 -2.3519 0.4751
1 -6 1 -1.1664 -0.0787
1 -6 2 -5.2226 0.0110
1 -6 3 -1.1063 0.1052
1 -6 4 16.1789 -0.0876
1 -6 5 11.9178 0.0280
1 -6 6 -11.6160 0.0281
1 -6 7 -14.8902 -0.0373
1 -6 8 -4.1024 0.0391
1 -6 10 -1.4694 -0.0216
1 -6 12 6.6319 -0.0187
1 -6 13 1.4107 -0.0051
1 -6 14 -0.1428 -0.0043
1 -6 15 1.2501 0.0020
1 -6 16 -1.2470 0.0025
1 -6 17 -3.1039 -0.0141
1 -6 18 -1.3493 0.0571
1 -5 0 -9.6194 0.6301
1 -5 1 -17.1748 -0.0021
1 -5 2 -28.1735 0.1596
1 -5 3 0.9556 0.1494
1 -5 4 37.4172 -0.1129
1 -5 5 18.4909 0.1213
1 -5 6 -10.5698 0.1031
1 -5 7 -0.2516 -0.0629
1 -5 8 5.4084 0.0272
1 -5 10 -7.5972 -0.0316
1 -5 11 4.0832 0.0323
1 -5 12 2.4033 -0.0122
1 -5 13 -2.3550 -0.0181
1 -5 14 -0.7279 0.0183
1 -5 15 1.1246 -0.0043
1 -5 16 0.2426 -0.0262
1 -5 17 -0.7146 -0.0025
1 -5 18 -0.6857 0.0243
1 -5 19 -0.6285 -0.0000
1 -4 0 -6.9053 0.0372
1 -4 1 -41.3065 -0.0069
1 -4 2 -52.2432 0.1747
1 -4 3 8.2508 0.0280
1 -4 4 47.9216 -0.0523
1 -4 5 10.0856 0.1679
1 -4 6 -14.7239 0.0997
1 -4 7 10.3343 -0.0837
1 -4 8 12.5446 0.0096
1 -4 10 -7.4500 -0.0488
1 -4 11 3.1633 0.0226
1 -4 12 -0.8054 0.0100
1 -4 13 -3.3638 -0.0355
1 -4 14 -1.9620 0.0429
1 -4 15 -0.8320 -0.0061
1 -4 16 0.9653 -0.0282
1 -4 17 0.4726 0.0360
1 -4 18 -0.7193 -0.0559
1 -4 19 -0.6876 -0.0855
1 -3 0 27.3520 -0.7392
1 -3 1 -40.6253 -0.1289
1 -3 2 -49.4342 -0.1098
1 -3 3 29.6987 -0.1739
1 -3 4 48.0518 -0.0034
1 -3 5 -6.3098 0.0372
1 -3 6 -18.2653 -0.0237
1 -3 7 8.7886 -0.1003
1 -3 8 6.7198 0.0056
1 -3 10 -2.2982 -0.0660
1 -3 11 2.3030 0.0264
1 -3 12 -0.3630 0.0048
1 -3 13 -0.4944 -0.0547
1 -3 14 -2.5126 0.0535
1 -3 15 -3.1299 -0.0133
1 -3 16 0.2108 -0.0162
1 -3 17 -0.2518 0.0691
1 -3 18 -1.9824 -0.0951
1 -3 19 -1.1704 -0.1679
1 -2 0 70.2486 -0.7739
1 -2 1 -5.5381 -0.0263
1 -2 2 -10.6824 -0.2819
1 -2 3 57.6340 -0.1985
1 -2 4 43.6012 0.0492
1 -2 5 -13.4729 -0.1112
1 -2 6 -12.4148 -0.1139
1 -2 7 2.6805 -0.0278
1 -2 8 -4.7029 0.0251
1 -2 9 -4.1458 0.0117
1 -2 10 2.1130 -0.0256
1 -2 11 0.8154 0.0243
1 -2 12 1.8671 -0.0230
1 -2 13 2.7957 -0.0263
1 -2 14 -2.3818 0.0467
1 -2 15 -3.7357 -0.0130
1 -2 16 -0.2992 0.0044
1 -2 17 -0.8519 0.0520
1 -2 18 -2.4422 -0.0827
1 -1 0 71.6966 -0.2494
1 -1 1 31.2830 0.3022
1 -1 2 37.0587 0.0011
1 -1 3 67.4585 -0.0162
1 -1 4 31.3376 0.1503
1 -1 5 -8.3786 -0.0700
1 -1 6 -1.8771 -0.0860
1 -1 7 -1.1359 0.1109
1 -1 8 -9.3267 0.0354
1 -1 9 -1.5867 -0.0266
1 -1 10 2.8529 0.0557
1 -1 11 -0.5493 -0.0025
1 -1 12 1.9412 -0.0321
1 -1 13 2.7661 0.0323
1 -1 14 -2.1355 0.0131
1 -1 15 -2.6685 -0.0006
1 -1 16 0.2516 0.0297
1 -1 17 -0.4161 0.0050
1 -1 18 -1.3746 -0.0759
1 0 0 25.6286 -0.0380
1 0 2 59.4158 0.2905
1 0 3 50.6272 0.0469
1 0 4 13.0861 0.1629
1 0 5 0.1308 0.0250
1 0 6 4.4358 -0.0537
1 0 7 -1.9572 0.1563
1 0 8 -5.6526 -0.0012
1 0 9 -0.4599 -0.0461
1 0 10 1.9323 0.0872
1 0 11 0.8452 -0.0401
1 0 12 0.5521 -0.0087
1 0 13 0.0505 0.0499
1 0 14 -1.4754 -0.0476
1 0 15 -0.7075 -0.0048
1 0 16 0.8836 0.0254
1 0 17 -0.2250 -0.0442
1 1 0 -20.5959 -0.0742
1 1 1 15.8864 0.0494
1 1 2 46.2555 0.1273
1 1 3 23.9526 -0.0691
1 1 4 0.4316 0.0481
1 1 5 4.3093 -0.0057
1 1 6 4.0354 -0.0526
1 1 7 -1.7941 0.0783
1 1 8 -0.5682 -0.0475
1 1 9 -0.2638 -0.0344
1 1 10 0.9407 0.0437
1 1 11 3.5934 -0.0528
1 1 12 0.6101 0.0136
1 1 13 -2.5795 0.0284
1 1 14 -1.3310 -0.0723
1 1 15 0.8471 -0.0123
1 1 16 0.7301 -0.0004
1 1 17 -0.8805 -0.0844
1 2 0 -25.8878 0.2654
1 2 1 -5.3166 -0.1620
1 2 2 17.9036 -0.2109
1 2 3 8.8375 -0.0456
1 2 4 0.4406 -0.0310
1 2 5 2.3772 -0.0656
1 2 6 -0.6168 0.0035
1 2 7 -2.6210 -0.0054
1 2 8 0.2270 -0.0393
1 2 9 -0.7159 -0.0033
1 2 10 -0.7553 -0.0060
1 2 11 3.0180 -0.0183
1 2 12 1.0985 0.0179
1 2 13 -3.6402 0.0219
1 2 14 -2.4065 -0.0215
1 2 15 0.5931 0.0084
1 2 16 0.0019 -0.0109
1 3 0 -1.5283 0.7122
1 3 1 -9.2375 -0.2301
1 3 2 -1.9794 -0.3031
1 3 3 8.0038 0.1513
1 3 4 7.4611 -0.0456
1 3 5 -1.5995 -0.0455
1 3 6 -5.0161 0.0837
1 3 7 -3.3058 -0.0485
1 3 8 -2.1097 -0.0010
1 3 9 -2.5918 0.0198
1 3 10 -2.4727 -0.0221
1 3 11 0.7013 0.0255
1 3 12 1.0141 0.0130
1 3 13 -2.3138 0.0147
1 3 14 -2.2555 0.0233
1 3 15 -0.4906 0.0051
1 3 16 -0.2923 -0.0374
1 4 0 13.4915 0.6081
1 4 1 -5.8391 -0.2645
1 4 2 -9.9997 -0.1195
1 4 3 6.9259 0.2392
1 4 4 10.0830 -0.0659
1 4 5 -2.0764 0.0037
1 4 6 -4.7684 0.0878
1 4 7 -1.8549 -0.0648
1 4 8 -3.3478 0.0121
1 4 9 -5.1069 0.0194
1 4 10 -2.9352 -0.0317
1 4 11 0.8150 0.0310
1 4 12 1.3540 0.0065
1 4 13 0.2067 -0.0242
1 4 14 -0.3996 0.0064
1 4 15 -1.1016 -0.0491
1 5 0 7.4819 0.0815
1 5 1 -6.2465 -0.1175
1 5 2 -10.6271 0.1300
1 5 3 0.1463 0.1326
1 5 4 4.2275 -0.0445
1 5 5 0.0565 0.0319
1 5 6 -0.4285 0.0274
1 5 7 0.1241 -0.0459
1 5 8 -3.4958 0.0145
1 5 9 -5.9977 0.0157
1 5 10 -2.4195 -0.0372
1 5 11 1.3907 0.0190
1 5 12 1.4140 0.0062
1 5 13 1.2301 -0.0459
1 5 14 0.1565 -0.0099
1 5 15 -1.4068 -0.0797
1 6 0 -3.4331 -0.3354
1 6 1 -9.2235 0.1268
1 6 2 -6.2953 0.1808
1 6 3 -3.1239 -0.0430
1 6 4 -3.4186 0.0148
1 6 5 -1.0832 0.0217
1 6 6 2.1481 -0.0312
1 6 7 0.3010 -0.0139
1 6 8 -4.2162 0.0170
1 6 9 -4.4676 0.0142
1 6 10 -1.2471 -0.0193
1 6 11 0.2906 0.0120
1 6 12 0.9213 -0.0035
1 6 13 1.1470 -0.0256
1 6 14 -0.4203 -0.0035
1 7 0 -8.4471 -0.4146
1 7 1 -11.3096 0.1667
1 7 2 -2.5436 0.0084
1 7 3 0.6399 -0.1493
1 7 4 -4.3296 0.0259
1 7 5 -3.6905 -0.0253
1 7 6 1.5261 -0.0538
1 7 7 -0.0022 0.0157
1 7 8 -3.6803 0.0099
1 7 9 -1.5826 -0.0032
1 7 10 0.2280 0.0019
1 7 11 -0.2585 -0.0101
1 7 12 1.0171 -0.0226
1 7 13 1.2084 0.0000
1 8 0 -7.8569 -0.2200
1 8 1 -10.0303 0.0525
1 8 4 0.6833 0.0100
1 8 5 -1.3937 -0.0491
1 8 6 2.1824 -0.0384
1 8 7 0.7147 0.0536
1 8 8 -1.2116 0.0087
1 8 9 1.0529 -0.0198
1 8 10 1.1713 -0.0018
1 8 11 0.7690 -0.0581
1 8 12 1.3627 -0.0220
1 9 0 -4.8012 0.0094
1 9 1 -5.2625 -0.0164
1 9 2 -1.5763 -0.0168
1 9 3 4.2275 -0.0089
1 9 4 3.3340 0.0143
1 9 6 3.4594 -0.0099
1 9 7 0.7942 0.0637
1 9 8 0.1567 -0.0033
1 9 9 1.9975 -0.0205
1 9 10 1.4975 -0.0170
1 9 11 1.7724 -0.1161
1 10 0 -1.6777 0.1050
1 10 1 -1.1455 -0.0292
1 10 2 -0.0867 0.0479
1 10 3 1.8088 0.0269
1 10 4 1.5680 0.0167
1 10 7 -0.9376 0.0299
1 10 8 -0.7381 -0.0377
1 10 9 0.5661 -0.0199
1 10 10 0.8594 -0.0151
1 11 0 1.2405 0.1444
1 11 1 -0.4692 -0.0171
1 11 2 -1.6566 0.0063
1 11 3 -0.9067 0.0196
1 11 4 0.7800 -0.0013
1 11 6 -2.2199 0.0332
1 11 7 -2.1776 -0.0199
1 11 8 -1.4793 -0.0516
1 11 9 -1.5057 -0.0103
1 12 0 3.6457 0.1824
1 12 1 -0.9872 -0.0076
1 12 2 -4.6429 -0.0504
1 12 3 -1.6782 0.0334
1 12 4 3.2302 -0.0245
1 12 6 -0.9705 0.0249
1 12 7 -0.7388 -0.0841
1 12 8 -0.5248 -0.0422
1 13 0 4.0035 0.1465
1 13 1 -0.5329 -0.0333
1 13 2 -3.4227 -0.0476
1 13 3 2.2030 0.0600
1 13 4 6.2375 -0.0215
1 13 5 3.6240 0.0219
1 13 6 1.2544 0.0181
1 13 7 1.0230 -0.1231
1 14 0 1.5172 0.0314
1 14 1 -0.7029 -0.0527
1 14 2 0.0692 -0.0019
1 14 4 7.0060 0.0015
1 14 5 1.5159 0.0558
1 15 0 -1.9169 -0.0736
1 15 1 -1.8362 -0.0050
1 15 3 5.4933 -0.0262
1 16 1 -1.9518 0.0829
1 16 2 -0.4100 0.0590
2 -19 4 -0.0368 0.0520
2 -19 7 -0.7073 -0.0510
2 -19 8 -0.2216 -0.0252
2 -19 9 0.2184 0.0335
2 -19 10 0.4717 0.0214
2 -19 11 1.1518 -0.0059
2 -18 1 0.5054 0.0338
2 -18 2 1.0392 0.0252
2 -18 3 -1.0030 0.0392
2 -18 4 -1.0829 0.0527
2 -18 6 1.3113 -0.0123
2 -18 7 -0.2170 -0.0194
2 -18 8 0.6478 0.0042
2 -18 9 0.7230 0.0209
2 -18 10 -0.2046 0.0121
2 -18 11 0.5976 0.0064
2 -18 12 1.3715 0.0354
2 -18 13 0.4398 0.0143
2 -17 0 0.0427 0.0432
2 -17 1 1.6183 -0.0001
2 -17 2 1.8030 -0.0008
2 -17 3 -0.0273 0.0005
2 -17 4 -0.6174 0.0309
2 -17 6 2.1081 -0.0248
2 -17 7 1.4279 0.0147
2 -17 8 1.9106 0.0000
2 -17 9 2.1983 -0.0180
2 -17 10 1.3783 0.0030
2 -17 11 1.0198 0.0289
2 -17 12 1.5562 0.0261
2 -17 13 1.4543 -0.0012
2 -17 14 -0.5114 -0.0250
2 -17 15 -1.6286 -0.0810
2 -16 0 1.0667 0.0465
2 -16 1 2.2770 -0.0144
2 -16 2 -0.4785 -0.0397
2 -16 3 -1.5536 0.0006
2 -16 5 0.8866 -0.0381
2 -16 6 1.5144 0.0120
2 -16 7 2.0048 0.0215
2 -16 8 1.5986 -0.0324
2 -16 9 1.6625 -0.0345
2 -16 10 2.5681 0.0045
2 -16 11 1.5576 0.0370
2 -16 12 0.3872 0.0096
2 -16 13 1.0267 -0.0150
2 -16 14 -0.4789 0.0001
2 -16 15 -2.2302 -0.0349
2 -16 16 -0.1635 -0.0801
2 -15 0 2.3182 0.0709
2 -15 1 3.8364 -0.0169
2 -15 2 -1.5942 -0.0356
2 -15 3 -2.3918 0.0060
2 -15 4 1.3222 -0.0402
2 -15 5 1.4952 -0.0056
2 -15 6 1.3209 0.0561
2 -15 7 2.4587 -0.0050
2 -15 8 1.3654 -0.0344
2 -15 9 1.1956 -0.0157
2 -15 10 2.3321 -0.0022
2 -15 11 1.1847 0.0150
2 -15 12 0.3798 0.0014
2 -15 13 0.4535 -0.0097
2 -15 14 -0.9316 -0.0122
2 -15 15 -1.7198 -0.0004
2 -15 16 -1.1189 -0.0128
2 -15 17 -0.7801 -0.1051
2 -14 0 3.2297 0.0425
2 -14 1 5.3562 -0.0126
2 -14 2 -0.2130 0.0051
2 -14 3 -0.1713 -0.0171
2 -14 4 3.4114 -0.0447
2 -14 5 2.0265 0.0568
2 -14 6 2.0166 0.0425
2 -14 7 2.5990 -0.0316
2 -14 8 0.7394 0.0099
2 -14 9 2.7080 0.0111
2 -14 10 3.1760 -0.0093
2 -14 11 0.2970 0.0017
2 -14 12 1.8628 -0.0025
2 -14 13 2.4245 -0.0034
2 -14 14 -0.0026 -0.0181
2 -14 15 -0.5758 -0.0064
2 -14 16 -1.7714 0.0072
2 -14 17 -1.7298 -0.0675
2 -13 0 3.7618 -0.0326
2 -13 1 3.8233 0.0152
2 -13 2 0.0015 0.0203
2 -13 3 2.3254 -0.0362
2 -13 4 3.4742 0.0018
2 -13 5 0.2582 0.0563
2 -13 6 0.9965 -0.0117
2 -13 7 0.6204 -0.0186
2 -13 8 -1.5377 0.0404
2 -13 9 2.8028 0.0225
2 -13 10 4.1859 0.0016
2 -13 11 -0.0703 0.0136
2 -13 12 1.1372 0.0038
2 -13 13 3.5406 -0.0032
2 -13 14 2.0149 0.0137
2 -13 15 0.0528 0.0010
2 -13 16 -1.3530 -0.0176
2 -13 17 -0.2190 -0.0118
2 -13 18 1.6261 -0.0163
2 -12 0 4.6962 -0.1390
2 -12 1 0.9498 0.0654
2 -12 2 -0.8563 0.0013
2 -12 3 3.0960 -0.0399
2 -12 4 2.3477 0.0450
2 -12 5 -0.0167 -0.0187
2 -12 6 0.0926 -0.0471
2 -12 7 -1.0255 0.0132
2 -12 8 -0.3864 0.0070
2 -12 9 2.7625 0.0150
2 -12 10 2.9827 0.0105
2 -12 11 0.6936 -0.0040
2 -12 12 -0.0148 0.0049
2 -12 13 1.6037 -0.0011
2 -12 14 2.1782 0.0275
2 -12 15 0.5119 0.0158
2 -12 16 0.4498 -0.0169
2 -12 17 2.1613 0.0206
2 -12 18 2.1771 0.0403
2 -11 0 4.0294 -0.2199
2 -11 1 0.0424 0.1343
2 -11 2 -0.2661 0.0241
2 -11 3 1.5741 -0.0401
2 -11 4 0.9604 0.0471
2 -11 6 0.8472 -0.0483
2 -11 7 -1.1525 0.0236
2 -11 8 4.6264 -0.0434
2 -11 9 5.4080 0.0024
2 -11 10 -0.0483 0.0058
2 -11 11 0.0526 -0.0470
2 -11 12 1.3683 -0.0039
2 -11 13 -0.1914 0.0069
2 -11 14 -0.4681 -0.0037
2 -11 15 0.8376 0.0029
2 -11 16 2.1827 0.0065
2 -11 17 2.8768 0.0214
2 -11 18 2.4771 0.0332
2 -11 19 0.5676 0.0636
2 -10 0 0.0344 -0.1837
2 -10 1 0.8389 0.1587
2 -10 2 2.1610 0.0630
2 -10 3 0.1752 -0.0314
2 -10 4 0.5988 0.0469
2 -10 5 3.6678 -0.0514
2 -10 6 -0.5302 -0.0384
2 -10 7 -1.6997 0.0318
2 -10 8 7.3863 -0.0340
2 -10 9 7.7117 -0.0066
2 -10 10 -1.6210 0.0128
2 -10 11 -1.3846 -0.0446
2 -10 12 3.4374 0.0020
2 -10 13 -0.3230 0.0248
2 -10 14 -2.8934 -0.0305
2 -10 15 1.0995 -0.0054
2 -10 16 1.7658 0.0153
2 -10 17 1.3454 -0.0153
2 -10 18 3.2634 0.0086
2 -10 19 1.3332 0.0352
2 -9 0 -3.3778 -0.0277
2 -9 1 1.8028 0.0173
2 -9 2 4.6559 0.0057
2 -9 3 3.3357 0.0002
2 -9 4 4.3116 0.0521
2 -9 5 0.4626 -0.0014
2 -9 6 -7.1593 -0.0233
2 -9 7 -3.4489 0.0612
2 -9 8 6.3235 0.0137
2 -9 9 6.0614 -0.0264
2 -9 10 -0.0380 0.0366
2 -9 11 1.5435 -0.0050
2 -9 12 5.1892 0.0037
2 -9 13 0.3174 0.0404
2 -9 14 -1.5607 -0.0281
2 -9 15 2.8373 0.0084
2 -9 16 0.8207 0.0164
2 -9 17 -0.5486 -0.0532
2 -9 18 3.2731 -0.0031
2 -9 19 2.0025 0.0036
2 -8 0 -0.7483 0.1718
2 -8 1 3.4967 -0.2399
2 -8 2 5.5294 -0.0875
2 -8 3 11.2112 0.0645
2 -8 4 11.1615 0.0020
2 -8 5 -5.3205 0.0090
2 -8 6 -14.6141 0.0068
2 -8 7 -3.7039 0.0589
2 -8 8 3.0650 0.0195
2 -8 11 7.1950 0.0111
2 -8 12 5.4210 -0.0197
2 -8 13 0.7657 0.0266
2 -8 14 2.6169 -0.0184
2 -8 15 5.3073 0.0114
2 -8 16 1.4977 0.0169
2 -8 17 -0.6550 -0.0376
2 -8 18 1.6838 0.0092
2 -7 0 5.9906 0.3201
2 -7 1 4.1172 -0.3288
2 -7 2 4.4852 -0.0567
2 -7 3 19.2014 0.1298
2 -7 4 15.1021 -0.0829
2 -7 5 -11.4049 0.0013
2 -7 6 -13.1453 0.0542
2 -7 7 5.0452 -0.0088
2 -7 9 -8.6103 -0.0203
2 -7 11 10.0092 0.0055
2 -7 12 2.2209 -0.0186
2 -7 13 -0.2347 -0.0080
2 -7 14 4.9582 -0.0052
2 -7 15 5.2731 0.0046
2 -7 16 1.8435 0.0079
2 -7 17 0.1152 0.0076
2 -7 18 0.2071 0.0273
2 -6 0 6.9551 0.2858
2 -6 1 -5.0302 -0.1204
2 -6 2 -0.2993 0.0330
2 -6 3 19.9959 0.1070
2 -6 4 6.4787 -0.1003
2 -6 5 -20.4628 0.0182
2 -6 6 -3.5685 0.0863
2 -6 8 3.8773 -0.0093
2 -6 9 -10.3180 0.0451
2 -6 10 4.9285 -0.0517
2 -6 11 9.8493 0.0078
2 -6 12 -1.1766 0.0134
2 -6 13 -1.6943 -0.0351
2 -6 14 3.0703 0.0206
2 -6 15 2.3960 0.0038
2 -6 16 0.5868 -0.0078
2 -6 17 -0.2625 0.0223
2 -6 18 -0.1451 0.0012
2 -5 0 2.4560 0.0130
2 -5 1 -19.2712 0.1069
2 -5 2 -2.4104 -0.0104
2 -5 3 14.8990 -0.0270
2 -5 4 -14.9449 -0.0588
2 -5 5 -32.2701 0.0173
2 -5 6 3.3249 0.0458
2 -5 7 25.3595 -0.1017
2 -5 8 4.9041 0.0171
2 -5 9 -4.0195 0.0579
2 -5 10 8.5495 -0.0778
2 -5 11 7.5642 0.0250
2 -5 12 -0.9075 0.0155
2 -5 13 -0.6684 -0.0474
2 -5 14 0.1537 0.0401
2 -5 15 -0.1643 -0.0083
2 -5 16 0.0351 -0.0227
2 -5 17 -1.0690 0.0151
2 -4 0 3.9856 -0.3039
2 -4 1 -13.7029 0.1348
2 -4 2 14.1155 -0.0768
2 -4 3 16.9930 -0.1148
2 -4 4 -29.0519 -0.0143
2 -4 5 -32.9288 -0.0057
2 -4 6 6.5969 -0.0312
2 -4 7 13.7278 -0.0623
2 -4 8 -0.6384 0.0333
2 -4 9 2.8474 0.0171
2 -4 10 8.1770 -0.0349
2 -4 11 2.8957 0.0447
2 -4 12 0.7563 -0.0051
2 -4 13 2.0025 -0.0325
2 -4 14 0.0707 0.0331
2 -4 15 -0.0904 -0.0253
2 -4 16 1.0394 -0.0222
2 -4 17 -1.1072 0.0302
2 -3 0 4.0633 -0.4551
2 -3 1 15.0199 0.1524
2 -3 2 43.7262 0.0971
2 -3 3 25.1240 -0.0562
2 -3 4 -21.9064 0.0622
2 -3 5 -15.2505 0.0288
2 -3 6 10.2474 -0.0522
2 -3 7 0.5582 0.0281
2 -3 8 -6.2403 0.0278
2 -3 9 3.7300 -0.0098
2 -3 10 3.3365 0.0400
2 -3 11 -1.5911 0.0263
2 -3 12 0.2211 -0.0081
2 -3 13 2.2438 0.0092
2 -3 14 1.6111 0.0080
2 -3 15 1.7759 -0.0180
2 -3 16 1.9941 0.0015
2 -3 17 -0.8671 0.0448
2 -2 0 -14.3783 -0.5221
2 -2 2 58.7369 0.3184
2 -2 3 22.6572 -0.0431
2 -2 4 -6.7387 0.1263
2 -2 5 4.5220 0.0724
2 -2 6 10.4216 -0.0536
2 -2 7 -2.3076 0.0960
2 -2 8 -4.3837 -0.0010
2 -2 9 0.3940 -0.0253
2 -2 10 -0.8131 0.0611
2 -2 11 -2.3320 -0.0286
2 -2 12 -2.0979 -0.0016
2 -2 13 -0.6848 0.0404
2 -2 14 1.7847 -0.0147
2 -2 15 3.1139 0.0018
2 -2 16 2.1936 0.0207
2 -2 17 -0.4492 0.0004
2 -1 0 -38.7412 -0.4854
2 -1 1 35.2338 0.1449
2 -1 2 48.4552 0.1704
2 -1 3 9.3653 -0.1667
2 -1 4 -0.8030 0.0732
2 -1 5 8.6415 0.0098
2 -1 6 5.2695 -0.0858
2 -1 7 2.7960 0.0762
2 -1 8 2.3726 -0.0327
2 -1 9 -1.9265 -0.0483
2 -1 10 -0.5057 0.0257
2 -1 11 1.0984 -0.0485
2 -1 12 -3.5793 0.0028
2 -1 13 -4.1716 0.0405
2 -1 14 0.6704 -0.0290
2 -1 15 3.0096 0.0052
2 -1 16 1.7280 0.0140
2 -1 17 0.2565 -0.0737
2 0 0 -39.8649 -0.0028
2 0 1 16.9574 -0.0916
2 0 2 27.0194 -0.1858
2 0 3 2.1578 -0.1390
2 0 4 -2.8775 -0.0253
2 0 5 -0.4419 -0.0734
2 0 6 0.3224 -0.0471
2 0 7 7.4895 0.0251
2 0 8 6.1668 -0.0347
2 0 9 -1.8731 -0.0494
2 0 10 1.4832 0.0017
2 0 11 4.8248 -0.0187
2 0 12 -2.9391 -0.0017
2 0 13 -6.1801 0.0202
2 0 14 -0.4873 -0.0368
2 0 15 2.1487 0.0012
2 0 16 0.8322 -0.0018
2 0 17 0.5491 -0.0969
2 1 0 -12.8505 0.7673
2 1 1 1.9584 -0.1735
2 1 2 11.8452 -0.2642
2 1 3 9.6166 0.1226
2 1 4 -0.6637 -0.0567
2 1 5 -7.3011 -0.0387
2 1 6 -0.4074 0.0848
2 1 7 6.9727 0.0022
2 1 8 3.7992 -0.0108
2 1 9 -1.1149 -0.0098
2 1 10 1.7810 0.0098
2 1 11 4.5865 0.0074
2 1 12 -1.6886 -0.0164
2 1 13 -5.4738 -0.0063
2 1 14 -1.0203 -0.0217
2 1 15 1.0964 0.0115
2 1 16 0.4017 -0.0140
2 2 0 16.1581 0.9879
2 2 1 -1.0767 -0.1131
2 2 2 7.4519 -0.0841
2 2 3 20.5297 0.2346
2 2 4 7.8527 -0.0703
2 2 5 -4.5201 0.0394
2 2 6 1.2047 0.1353
2 2 7 3.3351 -0.0396
2 2 8 -1.1574 -0.0030
2 2 9 -1.2637 0.0383
2 2 10 1.3785 0.0080
2 2 11 1.5170 0.0092
2 2 12 -1.5534 -0.0212
2 2 13 -2.2939 -0.0264
2 2 14 -0.3737 0.0225
2 2 15 0.1351 0.0203
2 2 16 0.6618 -0.0237
2 3 0 21.7997 0.4287
2 3 1 1.2665 -0.0575
2 3 2 6.2902 0.0224
2 3 3 18.1803 0.0645
2 3 4 10.7506 -0.0729
2 3 5 1.4622 0.0432
2 3 6 2.3256 0.0476
2 3 7 0.7035 -0.0954
2 3 8 -4.1396 -0.0130
2 3 9 -3.0338 0.0541
2 3 10 0.4123 -0.0235
2 3 11 -0.5305 0.0054
2 3 12 -1.4651 -0.0065
2 3 13 0.4569 -0.0254
2 3 14 0.3958 0.0577
2 3 15 -0.3828 0.0071
2 4 0 10.5499 -0.1698
2 4 1 2.7700 0.0268
2 4 2 4.5793 0.0012
2 4 3 5.0347 -0.0687
2 4 4 3.7912 0.0020
2 4 5 4.1539 0.0039
2 4 6 3.2944 -0.0343
2 4 7 -0.3631 -0.0745
2 4 8 -4.7299 0.0069
2 4 9 -5.1070 0.0418
2 4 10 -2.5399 -0.0394
2 4 11 -1.3071 0.0117
2 4 12 -0.1259 0.0170
2 4 13 0.7231 -0.0028
2 4 14 -0.1348 0.0439
2 4 15 -0.2496 -0.0081
2 5 0 3.2894 -0.3228
2 5 1 2.5208 0.0806
2 5 2 3.2598 -0.0304
2 5 3 -2.9065 -0.0438
2 5 4 -2.5215 0.0620
2 5 5 3.9359 -0.0231
2 5 6 3.8893 -0.0464
2 5 7 -1.6432 -0.0011
2 5 8 -4.6558 0.0357
2 5 9 -5.0381 0.0187
2 5 10 -4.8343 -0.0132
2 5 11 -1.7523 0.0156
2 5 12 1.1069 0.0269
2 5 13 -0.0876 0.0066
2 5 14 -0.6722 -0.0104
2 6 0 3.9126 -0.2353
2 6 1 -0.9020 0.0209
2 6 2 -0.7536 -0.0009
2 6 3 -2.2682 -0.0113
2 6 4 -0.8701 0.0301
2 6 5 4.0293 -0.0212
2 6 6 2.9275 -0.0350
2 6 7 -2.9532 0.0396
2 6 8 -3.5931 0.0180
2 6 9 -2.4879 -0.0156
2 6 10 -3.3016 0.0121
2 6 11 -1.0039 -0.0003
2 6 12 0.6728 0.0152
2 6 13 -0.5784 -0.0148
2 7 0 5.7669 -0.1423
2 7 1 -4.0614 -0.0125
2 7 2 -6.4119 0.0874
2 7 4 4.1317 0.0128
2 7 5 6.6947 0.0086
2 7 6 2.4516 -0.0206
2 7 7 -2.9391 0.0546
2 7 8 -1.5488 -0.0093
2 7 9 0.0721 -0.0349
2 7 10 -0.4086 0.0053
2 7 11 0.4034 -0.0284
2 7 12 -0.4551 0.0036
2 8 0 4.7542 -0.0720
2 8 1 -2.1844 0.0276
2 8 4 5.6777 0.0328
2 8 6 3.4203 -0.0113
2 8 7 -2.1609 0.0484
2 8 8 -0.7878 -0.0079
2 8 9 0.6202 -0.0091
2 8 10 0.5274 -0.0021
2 8 11 0.7252 -0.0574
2 9 0 -0.1998 0.0476
2 9 1 0.6382 0.0189
2 9 2 -1.0596 -0.0209
2 9 3 -1.6567 -0.0120
2 9 4 3.9525 0.0094
2 9 7 -1.9288 0.0091
2 9 8 -1.5310 0.0029
2 9 9 -0.1998 0.0441
2 9 10 0.0866 0.0225
2 10 0 -4.9422 0.2434
2 10 1 -0.7827 -0.0329
2 10 2 1.0973 -0.0962
2 10 3 0.4683 0.0492
2 10 4 2.2102 -0.0369
2 10 6 -1.4028 0.0435
2 10 7 -1.9140 -0.0242
2 10 8 -1.5508 0.0349
2 10 9 -0.6885 0.0920
2 11 0 -4.7335 0.3251
2 11 1 -3.3226 -0.0638
2 11 2 -1.4248 -0.0510
2 11 3 0.7216 0.0906
2 11 4 0.7121 -0.0578
2 11 6 -2.0520 0.0469
2 11 7 -0.7983 -0.0380
2 11 8 -0.5326 0.0865
2 12 0 -2.2919 0.1598
2 12 1 -3.1117 -0.0630
2 12 2 -1.8793 0.0080
2 12 3 0.8650 0.0370
2 12 4 -0.4840 -0.0492
2 12 5 -1.0601 0.0221
2 12 6 1.0027 0.0022
2 12 7 0.7497 -0.0422
2 13 1 -2.3053 -0.0189
2 13 2 0.7092 0.0194
2 13 3 2.4212 -0.0432
2 13 4 -0.0193 -0.0187
2 13 5 0.2169 0.0001
2 13 6 2.3209 -0.0394
2 14 0 -3.5185 -0.1578
2 14 1 -2.0043 0.0431
2 14 2 1.6929 0.0137
2 14 4 1.4298 0.0051
2 15 0 -1.7154 -0.1005
2 15 1 -0.4253 0.0763
3 -19 3 0.3843 -0.0020
3 -19 4 -0.3178 0.0308
3 -19 5 0.4247 -0.0788
3 -19 7 -0.4950 0.0026
3 -19 8 0.6432 0.0262
3 -19 9 -0.4743 0.0063
3 -19 10 -1.7178 -0.0145
3 -18 0 -2.5604 0.0309
3 -18 1 -2.2123 0.0069
3 -18 2 0.0991 -0.0454
3 -18 3 1.0952 0.0172
3 -18 4 0.9415 0.0021
3 -18 6 0.4043 -0.0155
3 -18 7 0.8966 0.0406
3 -18 8 1.7444 0.0148
3 -18 9 1.1418 0.0038
3 -18 10 -0.2901 0.0127
3 -18 11 -0.9985 -0.0037
3 -18 12 -0.2990 -0.0222
3 -18 13 0.2421 0.0113
3 -17 0 -2.1825 0.0885
3 -17 1 -4.5309 -0.0238
3 -17 2 -4.1582 -0.0012
3 -17 3 -0.8864 0.0511
3 -17 4 0.5868 -0.0338
3 -17 5 -0.1778 -0.0194
3 -17 6 0.2331 0.0456
3 -17 7 0.8111 0.0200
3 -17 8 0.3717 0.0118
3 -17 9 0.9962 0.0266
3 -17 10 0.8798 0.0240
3 -17 11 -0.9482 0.0008
3 -17 12 -0.7131 -0.0234
3 -17 13 0.2673 -0.0032
3 -17 14 -0.7070 0.0329
3 -17 15 -1.4121 0.0434
3 -16 0 0.2503 0.0408
3 -16 1 -3.8069 -0.0486
3 -16 2 -4.8818 0.0299
3 -16 3 -0.5607 0.0208
3 -16 5 -0.8237 0.0239
3 -16 6 0.3484 0.0169
3 -16 7 0.6881 -0.0206
3 -16 8 -0.8827 0.0178
3 -16 9 0.1784 0.0277
3 -16 10 0.5197 0.0009
3 -16 11 -0.5842 -0.0067
3 -16 12 -0.2623 -0.0151
3 -16 13 -0.3351 -0.0330
3 -16 14 -0.7266 0.0090
3 -16 15 -1.7598 0.0703
3 -16 16 -2.9353 0.0553
3 -15 0 1.7702 -0.0640
3 -15 1 -1.5977 -0.0146
3 -15 2 -0.8094 0.0204
3 -15 3 4.2329 -0.0321
3 -15 4 3.5490 -0.0016
3 -15 5 0.1863 0.0110
3 -15 6 1.1441 -0.0431
3 -15 7 0.8889 -0.0265
3 -15 8 -0.1131 0.0102
3 -15 9 0.9989 -0.0007
3 -15 10 -0.2786 -0.0194
3 -15 11 -0.6693 -0.0092
3 -15 12 1.7082 -0.0123
3 -15 13 1.8136 -0.0303
3 -15 14 0.6169 -0.0016
3 -15 15 -1.3290 0.0209
3 -15 16 -2.7454 0.0436
3 -14 0 0.4570 -0.1158
3 -14 1 -1.6044 0.0514
3 -14 2 2.3852 0.0043
3 -14 4 4.8617 0.0407
3 -14 5 0.9882 -0.0163
3 -14 6 -0.0448 -0.0351
3 -14 7 -1.0383 -0.0072
3 -14 8 -0.7641 -0.0202
3 -14 9 -0.1157 -0.0147
3 -14 10 -1.6377 -0.0094
3 -14 11 -2.0727 0.0004
3 -14 12 1.2380 -0.0048
3 -14 13 4.0427 -0.0009
3 -14 14 1.8233 0.0156
3 -14 15 -1.5587 -0.0288
3 -14 16 -0.9392 -0.0046
3 -14 17 0.5106 0.0471
3 -13 0 -0.5807 -0.1280
3 -13 1 -1.6240 0.0940
3 -13 2 2.8697 0.0030
3 -13 3 6.4686 -0.0040
3 -13 4 4.7785 0.0556
3 -13 5 1.9390 -0.0038
3 -13 6 -1.7667 0.0109
3 -13 7 -1.8018 0.0018
3 -13 8 -0.3644 -0.0383
3 -13 9 -2.6402 0.0018
3 -13 10 -2.8111 0.0031
3 -13 11 -1.2558 -0.0117
3 -13 12 -0.1187 0.0074
3 -13 13 2.0681 0.0092
3 -13 14 0.9120 -0.0100
3 -13 15 -0.6116 -0.0318
3 -13 16 1.0054 -0.0256
3 -13 17 0.3084 -0.0195
3 -12 0 0.3393 -0.1475
3 -12 1 0.8970 0.0952
3 -12 2 1.8784 0.0048
3 -12 3 3.0473 -0.0421
3 -12 4 3.7590 0.0597
3 -12 5 1.6492 0.0357
3 -12 6 -2.3877 0.0104
3 -12 7 0.7155 0.0139
3 -12 8 3.2536 -0.0129
3 -12 9 -2.5381 0.0186
3 -12 10 -3.3960 0.0142
3 -12 11 1.5990 -0.0312
3 -12 12 1.3836 0.0196
3 -12 13 -1.8568 0.0177
3 -12 14 -1.2230 -0.0492
3 -12 15 2.4766 -0.0073
3 -12 16 2.6458 -0.0017
3 -12 17 -0.3740 -0.0597
3 -12 18 -0.3117 -0.0325
3 -11 0 0.7347 -0.1031
3 -11 1 2.7431 0.0239
3 -11 2 0.1878 -0.0288
3 -11 3 0.5115 -0.0757
3 -11 4 1.2619 0.0526
3 -11 5 -2.1740 0.0302
3 -11 6 -2.1874 -0.0285
3 -11 7 3.6430 0.0430
3 -11 8 4.1693 0.0152
3 -11 9 -2.0554 0.0056
3 -11 10 -3.2592 0.0361
3 -11 11 2.2998 -0.0204
3 -11 12 2.2012 0.0257
3 -11 13 -3.8165 0.0410
3 -11 14 -1.5881 -0.0292
3 -11 15 4.4422 0.0301
3 -11 16 1.9416 0.0289
3 -11 17 -0.9661 -0.0276
3 -11 18 0.6431 0.0010
3 -10 0 -1.2255 0.0895
3 -10 1 -0.5993 -0.1126
3 -10 2 -1.3711 -0.0774
3 -10 3 2.7356 -0.0377
3 -10 4 0.2301 -0.0143
3 -10 5 -5.9516 -0.0331
3 -10 6 0.2280 -0.0343
3 -10 7 6.0836 0.0473
3 -10 8 -0.5883 -0.0027
3 -10 9 -5.1163 -0.0229
3 -10 10 -1.1544 0.0387
3 -10 11 2.0888 -0.0121
3 -10 12 -0.3871 0.0040
3 -10 13 -2.9419 0.0347
3 -10 14 1.4844 -0.0040
3 -10 15 4.7595 0.0364
3 -10 16 0.3389 0.0320
3 -10 17 -1.4002 0.0033
3 -10 18 0.7795 0.0312
3 -9 0 -4.7882 0.3372
3 -9 1 -7.7656 -0.1793
3 -9 2 -2.3360 -0.0321
3 -9 3 7.9017 0.0544
3 -9 4 1.4501 -0.1088
3 -9 5 -5.6265 -0.0523
3 -9 6 4.9792 0.0216
3 -9 7 7.1702 0.0008
3 -9 8 -7.7769 -0.0219
3 -9 10 1.4170 0.0044
3 -9 11 1.8121 -0.0170
3 -9 12 -4.3021 -0.0275
3 -9 13 -0.8722 -0.0049
3 -9 14 5.2385 -0.0164
3 -9 15 5.1215 -0.0100
3 -9 16 2.1843 0.0118
3 -9 17 0.7366 -0.0030
3 -9 18 0.5698 -0.0106
3 -8 0 -7.7296 0.4193
3 -8 1 -11.5317 -0.0866
3 -8 2 -0.8243 0.0767
3 -8 3 9.3924 0.1322
3 -8 4 -0.0430 -0.1143
3 -8 5 -2.0941 0.0160
3 -8 6 10.7419 0.0856
3 -8 7 5.9511 -0.0549
3 -8 9 -10.7527 0.0198
3 -8 10 2.8706 -0.0360
3 -8 11 -0.4567 0.0119
3 -8 12 -7.1881 -0.0168
3 -8 13 0.0847 -0.0286
3 -8 14 5.5312 -0.0084
3 -8 15 4.0293 -0.0386
3 -8 16 4.8283 -0.0030
3 -8 17 4.5268 0.0015
3 -8 18 1.2400 -0.0435
3 -7 0 -9.6490 0.2628
3 -7 1 -10.0280 0.0691
3 -7 2 2.5687 0.0622
3 -7 3 1.8892 0.1176
3 -7 4 -9.7408 -0.0289
3 -7 5 -0.4865 0.0535
3 -7 6 12.8387 0.0752
3 -7 7 1.2790 -0.0778
3 -7 9 -4.1072 0.0335
3 -7 10 4.3487 -0.0536
3 -7 11 -1.8518 0.0488
3 -7 12 -5.5049 0.0151
3 -7 13 0.4011 -0.0286
3 -7 14 2.4016 0.0258
3 -7 15 0.9291 -0.0115
3 -7 16 3.4997 -0.0062
3 -7 17 4.7011 0.0167
3 -7 18 1.3917 -0.0098
3 -6 0 -8.9326 -0.0163
3 -6 1 -4.5907 0.1428
3 -6 2 6.0335 -0.0559
3 -6 3 -10.2947 0.0045
3 -6 4 -22.2036 0.0293
3 -6 5 -2.4576 0.0019
3 -6 6 5.7428 -0.0068
3 -6 7 -8.9993 -0.0627
3 -6 8 -8.4484 0.0028
3 -6 9 4.5380 0.0087
3 -6 10 5.1552 -0.0347
3 -6 11 0.1744 0.0389
3 -6 12 1.1099 0.0184
3 -6 13 2.1410 -0.0213
3 -6 14 -0.6943 0.0387
3 -6 15 -1.4908 0.0195
3 -6 16 1.1402 -0.0157
3 -6 17 1.5768 0.0109
3 -5 0 -3.8612 -0.3466
3 -5 1 7.7863 0.0992
3 -5 2 11.5579 -0.0472
3 -5 3 -13.4741 -0.1030
3 -5 4 -20.4122 0.0451
3 -5 5 -0.6897 -0.0092
3 -5 7 -18.4413 -0.0123
3 -5 8 -5.4611 -0.0086
3 -5 9 7.7024 0.0038
3 -5 10 4.0401 0.0065
3 -5 11 2.6134 0.0091
3 -5 12 5.4225 0.0142
3 -5 13 3.5096 -0.0067
3 -5 14 -1.3576 0.0305
3 -5 15 -1.7826 0.0253
3 -5 16 1.2189 -0.0254
3 -5 17 0.1915 0.0124
3 -4 0 -5.4682 -0.6578
3 -4 1 18.1177 0.0283
3 -4 2 13.0884 0.0881
3 -4 3 -6.5220 -0.1373
3 -4 4 -2.2299 0.0870
3 -4 5 5.7033 0.0590
3 -4 6 -8.9126 -0.0530
3 -4 7 -16.3358 0.0455
3 -4 8 -3.0776 0.0204
3 -4 9 3.8457 0.0112
3 -4 10 2.3673 0.0152
3 -4 11 3.4090 -0.0176
3 -4 12 3.1473 0.0084
3 -4 13 1.7178 -0.0032
3 -4 14 0.2169 0.0048
3 -4 15 -0.1916 0.0093
3 -4 16 1.8974 -0.0243
3 -3 0 -22.0992 -0.6729
3 -3 1 10.3337 0.0140
3 -3 2 2.4578 0.1036
3 -3 3 -2.0319 -0.1360
3 -3 4 11.8838 0.1039
3 -3 5 5.5913 0.0454
3 -3 6 -8.7026 -0.0684
3 -3 7 -5.4783 0.0659
3 -3 8 -0.7974 0.0260
3 -3 9 -1.8377 -0.0213
3 -3 10 1.9269 -0.0057
3 -3 11 3.6818 -0.0398
3 -3 12 -0.9197 -0.0198
3 -3 13 -0.9886 -0.0075
3 -3 14 2.2830 -0.0276
3 -3 15 1.8675 -0.0131
3 -2 0 -37.1439 -0.1608
3 -2 1 -8.9546 0.0053
3 -2 2 -8.8818 -0.0280
3 -2 3 -1.5618 -0.0776
3 -2 4 8.3261 0.0210
3 -2 5 -4.6858 -0.0670
3 -2 6 -9.1474 -0.0822
3 -2 7 1.5948 0.0544
3 -2 8 0.0937 0.0050
3 -2 9 -3.7428 -0.0502
3 -2 10 2.9049 0.0111
3 -2 11 3.8838 -0.0272
3 -2 12 -2.7732 -0.0280
3 -2 13 -2.0084 0.0191
3 -2 14 2.6992 -0.0254
3 -2 15 1.4382 -0.0035
3 -1 0 -33.6952 0.5898
3 -1 1 -20.1012 -0.0649
3 -1 2 -6.0792 -0.0826
3 -1 3 2.4746 0.0873
3 -1 4 -4.4481 -0.0791
3 -1 5 -14.9054 -0.0934
3 -1 6 -8.5153 0.0011
3 -1 7 0.7213 0.0373
3 -1 8 -1.3214 -0.0066
3 -1 9 -2.0349 -0.0241
3 -1 10 3.7978 0.0404
3 -1 11 3.3706 0.0031
3 -1 12 -2.9788 0.0069
3 -1 13 -2.1970 0.0447
3 -1 14 0.9052 -0.0056
3 -1 15 -1.3326 0.0232
3 0 0 -17.7940 0.9252
3 0 1 -16.7679 -0.1200
3 0 2 5.4147 -0.0241
3 0 3 9.8985 0.2111
3 0 4 -9.5187 -0.0958
3 0 5 -13.8132 -0.0126
3 0 6 -2.7301 0.1082
3 0 7 -1.2278 0.0013
3 0 8 -3.3362 -0.0146
3 0 9 0.3835 0.0159
3 0 10 3.7120 0.0093
3 0 11 1.7645 0.0130
3 0 12 -1.6990 0.0348
3 0 13 -1.1778 0.0116
3 0 14 -0.9278 -0.0085
3 0 15 -2.5010 0.0144
3 0 16 -0.8902 0.0067
3 1 0 -5.6923 0.5947
3 1 1 -6.8951 -0.0775
3 1 2 10.4655 -0.0290
3 1 3 12.0127 0.1378
3 1 4 -3.1437 -0.0531
3 1 5 -2.6851 0.0237
3 1 6 5.2630 0.1019
3 1 7 -0.1366 -0.0578
3 1 8 -4.1957 -0.0215
3 1 9 1.6259 0.0306
3 1 10 2.9716 -0.0460
3 1 11 -0.4459 0.0221
3 1 12 0.3550 0.0275
3 1 13 1.4885 -0.0424
3 1 14 -0.7448 -0.0026
3 1 15 -1.1057 0.0023
3 1 16 0.6645 0.0120
3 2 0 -6.1912 0.0552
3 2 1 -0.6857 -0.0066
3 2 2 5.6489 -0.0968
3 2 3 4.0821 0.0179
3 2 4 2.1312 0.0017
3 2 5 6.3314 -0.0002
3 2 6 7.9532 0.0334
3 2 7 0.6139 -0.0832
3 2 8 -3.8867 -0.0122
3 2 9 0.0205 0.0287
3 2 10 0.2112 -0.0527
3 2 11 -1.8799 0.0330
3 2 12 1.4145 0.0007
3 2 13 2.8061 -0.0593
3 2 14 0.5278 0.0310
3 2 15 0.2376 0.0393
3 3 0 -11.5881 -0.2168
3 3 1 1.2166 -0.0070
3 3 2 2.4766 -0.0621
3 3 3 -3.9363 0.0186
3 3 4 0.5353 0.0376
3 3 5 7.9107 0.0006
3 3 6 5.9724 0.0031
3 3 7 0.3549 -0.0361
3 3 8 -2.0901 0.0142
3 3 9 -3.7235 0.0222
3 3 10 -5.1993 -0.0157
3 3 11 -2.1501 0.0214
3 3 12 1.6731 -0.0178
3 3 13 1.6237 -0.0505
3 3 14 1.0387 0.0456
3 3 15 0.4013 0.0810
3 4 0 -10.4787 -0.2932
3 4 1 2.3291 -0.0447
3 4 2 5.8557 0.0660
3 4 3 -2.1866 0.0067
3 4 4 -0.6558 0.0169
3 4 5 6.2599 0.0129
3 4 6 4.8080 -0.0261
3 4 7 1.8062 0.0237
3 4 8 0.4314 0.0282
3 4 9 -5.8162 0.0073
3 4 10 -8.4485 0.0196
3 4 11 -2.0003 0.0045
3 4 12 1.6705 -0.0211
3 4 13 0.8218 -0.0532
3 4 14 0.8815 0.0215
3 5 0 -4.5038 -0.3449
3 5 1 1.3979 0.0082
3 5 2 6.1418 0.1354
3 5 3 2.9185 -0.0981
3 5 4 1.7896 -0.0059
3 5 5 4.0224 0.0075
3 5 6 3.8388 -0.0648
3 5 7 3.3640 0.0447
3 5 8 1.3813 0.0061
3 5 9 -4.1156 -0.0233
3 5 10 -5.2641 0.0319
3 5 11 -1.2635 0.0068
3 5 12 0.8394 -0.0350
3 5 13 1.1680 -0.0704
3 6 0 1.2030 -0.2537
3 6 1 0.9732 0.1317
3 6 2 1.3631 0.0773
3 6 4 4.6029 0.0343
3 6 5 2.7475 0.0034
3 6 6 1.7402 -0.0450
3 6 7 2.0910 0.0516
3 6 8 0.4898 -0.0214
3 6 9 -0.5702 -0.0508
3 6 10 0.1565 0.0294
3 6 11 -0.2364 0.0123
3 6 12 -0.2380 -0.0572
3 7 0 4.8660 0.0102
3 7 1 4.6896 0.1144
3 7 2 -0.3402 -0.0529
3 7 4 5.3837 0.0429
3 7 5 3.5267 -0.0091
3 7 6 0.7720 0.0075
3 7 7 -0.7096 0.0370
3 7 8 -0.6941 -0.0267
3 7 9 1.7419 -0.0460
3 7 10 1.7674 0.0232
3 7 11 -0.2321 -0.0056
3 8 0 3.8803 0.2537
3 8 1 6.6780 -0.0600
3 8 2 1.2703 -0.1047
3 8 3 0.4264 0.0622
3 8 4 4.0738 -0.0301
3 8 7 -2.6342 -0.0108
3 8 8 -1.2426 -0.0230
3 8 9 1.9621 -0.0109
3 8 10 0.5872 0.0220
3 8 11 -0.8000 -0.0235
3 9 0 0.1281 0.3240
3 9 1 2.7089 -0.1516
3 9 2 1.2270 -0.0243
3 9 3 0.8255 0.1057
3 9 4 2.3768 -0.0697
3 9 6 -2.4576 0.0464
3 9 7 -3.5381 -0.0400
3 9 8 -0.9216 -0.0052
3 9 9 1.2596 0.0311
3 9 10 0.0908 0.0210
3 10 0 -1.0796 0.1817
3 10 1 -0.5708 -0.0905
3 10 2 0.4870 0.0278
3 10 3 1.2375 0.0617
3 10 4 1.3422 -0.0422
3 10 6 -4.3585 0.0153
3 10 7 -3.0154 -0.0411
3 10 8 0.2607 0.0344
3 11 0 -0.4170 -0.0465
3 11 1 1.4051 -0.0016
3 11 2 1.7643 -0.0111
3 11 3 0.6673 -0.0089
3 11 4 0.2951 -0.0102
3 11 5 -1.0868 -0.0341
3 11 6 -2.5457 -0.0356
3 11 7 -0.5080 -0.0431
3 12 0 -1.6904 -0.1681
3 12 1 2.7179 0.0403
3 12 2 2.2833 -0.0103
3 12 3 -0.5646 -0.0092
3 12 4 -0.9154 0.0128
3 12 5 -1.1130 -0.0342
3 12 6 -0.1271 -0.0412
3 13 0 -3.2063 -0.1716
3 13 1 -0.3344 0.0287
3 13 2 -0.2945 0.0587
3 13 3 -1.4347 0.0265
3 13 4 -1.3969 0.0290
3 13 5 -1.5668 0.0095
3 14 0 -1.6104 -0.1234
3 14 1 -2.3752 0.0242
3 14 2 -1.9612 0.1086
3 14 3 -1.3385 0.0290
3 15 0 0.2547 -0.0445
3 15 1 -1.2529 0.0725
4 -19 3 1.2126 -0.0156
4 -19 4 0.7167 -0.0614
4 -19 5 -0.2673 -0.0041
4 -19 7 -0.7369 0.0138
4 -19 8 -0.1079 -0.0039
4 -19 9 0.8461 -0.0063
4 -19 10 0.8057 0.0254
4 -18 0 0.4556 -0.0424
4 -18 1 -0.9137 -0.0116
4 -18 2 -0.8994 0.0417
4 -18 3 0.4535 -0.0529
4 -18 4 -0.7789 -0.0519
4 -18 5 -2.1977 0.0251
4 -18 6 -1.3333 0.0033
4 -18 7 -0.9468 0.0001
4 -18 8 -0.1754 0.0099
4 -18 9 1.5883 -0.0198
4 -18 10 0.6552 -0.0031
4 -18 11 -0.8802 0.0550
4 -18 12 0.2671 0.0687
4 -17 0 0.9427 -0.0483
4 -17 1 -1.5146 0.0285
4 -17 2 -1.0196 0.0143
4 -17 3 0.3059 -0.0353
4 -17 4 -2.1173 0.0172
4 -17 5 -2.8850 0.0228
4 -17 6 -0.7588 -0.0021
4 -17 7 -1.0018 0.0139
4 -17 8 -0.9573 0.0000
4 -17 9 0.2508 -0.0374
4 -17 10 -0.7025 -0.0261
4 -17 11 -0.9302 0.0305
4 -17 12 0.3501 0.0250
4 -17 13 0.4646 0.0177
4 -17 14 0.0805 0.0672
4 -16 0 -0.5601 -0.0303
4 -16 1 -2.2790 0.0645
4 -16 2 0.3297 -0.0175
4 -16 3 1.6781 0.0012
4 -16 4 -0.7520 0.0412
4 -16 5 -0.9642 -0.0000
4 -16 6 0.5392 0.0255
4 -16 7 0.6891 0.0270
4 -16 8 0.6209 -0.0166
4 -16 9 -0.8175 -0.0238
4 -16 10 -2.1096 -0.0140
4 -16 11 0.0445 0.0032
4 -16 12 1.9767 0.0021
4 -16 13 0.8644 0.0144
4 -16 14 -0.1555 0.0210
4 -15 0 -4.1025 -0.0800
4 -15 1 -4.4999 0.0502
4 -15 2 -0.5470 -0.0074
4 -15 3 0.4246 -0.0176
4 -15 4 -0.0190 -0.0060
4 -15 5 0.1689 0.0039
4 -15 6 -0.1311 0.0366
4 -15 7 2.0056 0.0093
4 -15 8 2.2698 -0.0129
4 -15 9 -2.0163 0.0093
4 -15 10 -3.3226 0.0081
4 -15 11 -0.6913 -0.0105
4 -15 12 1.5873 0.0097
4 -15 13 1.3526 0.0407
4 -15 14 -0.2408 0.0126
4 -15 15 1.0984 0.0281
4 -15 16 2.4848 0.1131
4 -14 0 -4.6785 -0.1605
4 -14 1 -4.2786 0.0433
4 -14 2 -1.6419 0.0126
4 -14 3 -1.4955 -0.0831
4 -14 4 -0.4081 -0.0201
4 -14 5 -0.1449 0.0171
4 -14 6 -0.1507 -0.0206
4 -14 7 4.0228 -0.0141
4 -14 8 2.9526 0.0025
4 -14 9 -2.7801 0.0167
4 -14 10 -2.0245 0.0083
4 -14 11 -0.0336 -0.0187
4 -14 12 -0.5503 0.0146
4 -14 13 0.1334 0.0109
4 -14 14 0.7087 -0.0143
4 -14 15 0.9297 0.0452
4 -14 16 -0.0126 0.0584
4 -13 0 -0.4354 -0.1416
4 -13 1 -0.0703 0.0688
4 -13 2 -0.3925 0.0107
4 -13 3 -0.4656 -0.0834
4 -13 4 -0.9744 0.0456
4 -13 5 -1.6776 -0.0035
4 -13 6 1.5995 -0.0883
4 -13 7 6.0513 0.0074
4 -13 8 2.9171 0.0136
4 -13 9 -1.4258 0.0027
4 -13 10 1.6838 0.0128
4 -13 11 3.3721 -0.0218
4 -13 12 -0.6440 0.0075
4 -13 13 -1.3999 -0.0202
4 -13 14 1.7259 -0.0446
4 -13 15 1.4862 0.0335
4 -13 16 -1.4263 0.0117
4 -13 17 -1.4169 -0.0222
4 -12 0 3.9038 0.0063
4 -12 1 4.0626 0.0139
4 -12 2 2.2480 0.0068
4 -12 3 1.7766 0.0243
4 -12 4 -2.8728 0.0717
4 -12 5 -4.1506 -0.0400
4 -12 6 2.7729 -0.0654
4 -12 7 4.3620 0.0466
4 -12 8 0.0155 0.0095
4 -12 9 0.9330 -0.0094
4 -12 10 4.7297 0.0265
4 -12 11 3.8129 -0.0145
4 -12 12 -0.3144 -0.0059
4 -12 13 -1.0653 0.0010
4 -12 14 1.1546 -0.0224
4 -12 15 0.8038 0.0069
4 -12 16 -0.4298 0.0097
4 -12 17 0.5106 0.0051
4 -11 1 4.3090 -0.1267
4 -11 2 4.6607 0.0312
4 -11 3 3.2380 0.1294
4 -11 4 -4.3628 -0.0184
4 -11 5 -3.5990 -0.0358
4 -11 6 4.8993 0.0268
4 -11 7 1.6618 0.0308
4 -11 8 -4.0222 -0.0052
4 -11 9 2.5826 -0.0165
4 -11 10 6.7555 0.0118
4 -11 11 1.0717 -0.0042
4 -11 12 -1.2499 -0.0184
4 -11 13 1.0630 0.0123
4 -11 14 0.5351 -0.0072
4 -11 15 -0.0954 -0.0247
4 -11 16 1.0546 -0.0003
4 -11 17 0.6556 -0.0022
4 -10 0 1.5416 0.3157
4 -10 1 0.3976 -0.1735
4 -10 2 3.6524 0.0558
4 -10 3 2.2013 0.1333
4 -10 4 -3.2092 -0.1057
4 -10 5 1.3682 0.0160
4 -10 6 7.5303 0.0827
4 -10 7 0.7155 -0.0257
4 -10 8 -4.9618 -0.0013
4 -10 9 2.7741 -0.0097
4 -10 10 6.5044 -0.0117
4 -10 11 -0.8059 0.0165
4 -10 12 -1.8667 -0.0116
4 -10 13 1.8489 0.0055
4 -10 14 0.0453 -0.0133
4 -10 15 0.9731 -0.0400
4 -10 16 3.7511 -0.0075
4 -10 17 0.4599 -0.0525
4 -10 18 -1.9980 -0.0683
4 -9 0 -1.2472 0.2936
4 -9 1 -2.8003 -0.1002
4 -9 3 -1.9315 0.0655
4 -9 4 -0.2231 -0.0908
4 -9 5 7.6455 0.0314
4 -9 6 6.7196 0.0640
4 -9 7 -1.1560 -0.0566
4 -9 8 -1.8915 0.0084
4 -9 9 2.6862 0.0048
4 -9 10 2.5214 -0.0146
4 -9 11 -1.8304 0.0375
4 -9 12 -2.3118 0.0041
4 -9 13 -1.0195 0.0134
4 -9 14 -2.0340 0.0237
4 -9 15 1.2906 -0.0084
4 -9 16 5.9422 0.0172
4 -9 17 2.6785 -0.0186
4 -9 18 -1.5298 -0.0676
4 -8 0 -2.3811 0.1576
4 -8 1 -1.6049 -0.0295
4 -8 2 -2.3166 -0.1493
4 -8 3 -6.7481 0.0123
4 -8 4 1.7290 -0.0288
4 -8 5 10.6429 -0.0298
4 -8 6 1.0307 0.0253
4 -8 7 -5.1749 -0.0491
4 -8 9 2.8820 0.0077
4 -8 10 -2.3632 -0.0216
4 -8 11 -2.1400 0.0180
4 -8 12 -2.3890 0.0036
4 -8 13 -4.1772 0.0000
4 -8 14 -3.1798 0.0529
4 -8 15 0.6443 0.0269
4 -8 16 4.8415 0.0209
4 -8 17 3.7988 0.0543
4 -8 18 -0.2473 0.0338
4 -7 0 -1.0248 -0.0306
4 -7 1 2.6540 0.0561
4 -7 2 -1.0063 -0.1266
4 -7 3 -7.8039 -0.0048
4 -7 4 2.5920 0.0285
4 -7 5 7.5631 -0.0564
4 -7 6 -7.2363 0.0159
4 -7 7 -8.6450 -0.0138
4 -7 8 3.7409 -0.0423
4 -7 9 0.9196 0.0184
4 -7 10 -5.1953 -0.0250
4 -7 11 -1.3312 -0.0177
4 -7 12 -0.9851 0.0049
4 -7 13 -3.1031 -0.0344
4 -7 14 -0.8107 0.0127
4 -7 15 2.0725 0.0130
4 -7 16 3.3046 -0.0193
4 -7 17 1.7036 0.0377
4 -7 18 -0.5471 0.0581
4 -6 0 4.0508 -0.2985
4 -6 1 8.7612 0.1580
4 -6 2 1.7598 0.0590
4 -6 3 -1.6144 -0.0530
4 -6 4 6.9386 0.0771
4 -6 5 2.7496 0.0186
4 -6 6 -10.8615 0.0073
4 -6 7 -6.8918 0.0338
4 -6 8 1.7446 0.0062
4 -6 9 -2.6509 0.0403
4 -6 10 -4.4302 -0.0006
4 -6 11 -0.5379 -0.0125
4 -6 12 -0.4724 0.0160
4 -6 13 0.1838 -0.0373
4 -6 14 2.1688 -0.0237
4 -6 15 2.9537 -0.0103
4 -6 16 2.9089 -0.0408
4 -6 17 0.1849 -0.0163
4 -5 0 5.6810 -0.5292
4 -5 1 10.3007 0.1303
4 -5 2 0.2591 0.1254
4 -5 3 4.9464 -0.1417
4 -5 4 11.6051 0.0720
4 -5 5 0.4562 0.0623
4 -5 6 -5.5702 -0.0480
4 -5 7 0.5305 0.0451
4 -5 8 -0.3487 0.0513
4 -5 9 -3.8393 0.0150
4 -5 10 -0.0487 0.0125
4 -5 11 0.3929 0.0027
4 -5 12 -2.4233 0.0004
4 -5 13 1.0837 -0.0181
4 -5 14 3.3453 -0.0142
4 -5 15 0.8979 -0.0048
4 -5 16 1.1289 -0.0256
4 -5 17 1.0008 -0.0149
4 -4 0 -1.2765 -0.3922
4 -4 1 1.3308 -0.0101
4 -4 2 -7.8840 0.0245
4 -4 3 1.8328 -0.1404
4 -4 4 7.7591 0.0030
4 -4 5 -0.4712 -0.0048
4 -4 6 2.4369 -0.0983
4 -4 7 6.4473 0.0151
4 -4 8 -0.6116 0.0167
4 -4 9 -1.4673 -0.0447
4 -4 10 4.2610 0.0098
4 -4 11 1.6977 -0.0039
4 -4 12 -3.3717 -0.0218
4 -4 13 0.6680 0.0051
4 -4 14 3.9291 0.0029
4 -4 15 -0.3511 0.0104
4 -4 16 -0.7810 -0.0091
4 -3 0 -4.7691 0.1148
4 -3 1 -7.9295 -0.0772
4 -3 2 -12.5267 0.0126
4 -3 3 -6.0224 0.0112
4 -3 4 -1.3794 -0.0462
4 -3 5 0.3489 -0.0374
4 -3 6 5.6491 -0.0490
4 -3 7 4.4217 0.0018
4 -3 8 -0.3759 -0.0208
4 -3 9 2.2398 -0.0424
4 -3 10 5.4511 0.0310
4 -3 11 1.7396 0.0052
4 -3 12 -1.6832 -0.0023
4 -3 13 1.8582 0.0354
4 -3 14 3.8976 0.0208
4 -3 15 -0.0344 0.0241
4 -2 0 2.6821 0.5198
4 -2 1 -6.8848 -0.0560
4 -2 2 -6.7734 0.0969
4 -2 3 -7.6480 0.1530
4 -2 4 -6.1799 -0.0369
4 -2 5 3.0747 0.0342
4 -2 6 4.4361 0.0602
4 -2 7 -2.7395 -0.0004
4 -2 8 -1.8764 -0.0077
4 -2 9 4.4030 0.0069
4 -2 10 4.5709 0.0258
4 -2 11 0.7358 0.0180
4 -2 12 0.5970 0.0122
4 -2 13 3.3484 0.0241
4 -2 14 2.3175 0.0227
4 -2 15 -0.6516 0.0126
4 -1 0 11.6498 0.5313
4 -1 1 -0.1725 -0.0523
4 -1 2 1.4680 0.0257
4 -1 3 -2.7640 0.1447
4 -1 4 -4.3807 -0.0232
4 -1 5 5.4145 0.0604
4 -1 6 4.5472 0.1024
4 -1 7 -5.6558 -0.0329
4 -1 8 -3.2509 0.0027
4 -1 9 4.6126 0.0158
4 -1 10 3.1421 -0.0393
4 -1 11 0.3525 0.0077
4 -1 13 3.5243 -0.0324
4 -1 14 0.6134 -0.0093
4 -1 15 -0.8043 -0.0376
4 0 0 13.9956 0.3007
4 0 1 4.3709 -0.0732
4 0 2 2.0526 -0.1643
4 0 3 -1.3078 0.0636
4 0 4 -1.5356 -0.0370
4 0 5 6.0282 -0.0147
4 0 6 6.8203 0.0641
4 0 7 -1.6587 -0.0652
4 0 8 -1.3408 -0.0043
4 0 9 4.2545 0.0058
4 0 10 1.1966 -0.0711
4 0 11 -0.3570 0.0116
4 0 12 3.5336 -0.0112
4 0 13 2.7347 -0.0533
4 0 14 0.3087 -0.0182
4 0 15 0.4455 -0.0512
4 1 0 9.4159 0.0132
4 1 1 4.8927 -0.0834
4 1 2 -4.5139 -0.1764
4 1 3 -9.7546 0.0157
4 1 4 -3.6168 -0.0503
4 1 5 5.2542 -0.0523
4 1 6 6.4946 0.0226
4 1 7 2.3437 -0.0565
4 1 8 2.4072 -0.0030
4 1 9 3.4008 0.0255
4 1 10 -0.6776 -0.0298
4 1 11 -1.7909 0.0259
4 1 12 0.7766 0.0169
4 1 13 0.9665 -0.0298
4 1 14 0.8153 0.0350
4 1 15 0.8711 0.0211
4 2 0 3.5629 -0.2608
4 2 1 5.1898 -0.0493
4 2 2 -7.3722 0.0156
4 2 3 -18.0087 -0.0314
4 2 4 -7.2315 -0.0253
4 2 5 5.7467 -0.0043
4 2 6 5.6196 -0.0110
4 2 7 4.3149 -0.0151
4 2 8 5.5762 0.0077
4 2 9 2.5066 0.0406
4 2 10 -1.3711 0.0095
4 2 11 -2.1532 0.0106
4 2 12 -2.1336 0.0212
4 2 13 -0.6903 0.0023
4 2 14 0.8572 0.1109
4 3 0 2.3780 -0.3966
4 3 1 7.0054 0.0670
4 3 2 -3.0564 0.1381
4 3 3 -15.4322 -0.1013
4 3 4 -7.2683 0.0418
4 3 5 6.3475 0.0213
4 3 6 8.1717 -0.0632
4 3 7 7.2010 0.0325
4 3 8 6.7606 0.0218
4 3 9 2.5659 0.0166
4 3 10 -1.1434 0.0116
4 3 11 -2.0872 -0.0143
4 3 12 -1.6577 0.0085
4 3 13 -0.2858 0.0638
4 3 14 0.1788 0.1598
4 4 0 4.0197 -0.2669
4 4 1 6.8504 0.1897
4 4 2 -0.0141 0.0743
4 4 3 -7.8418 -0.0970
4 4 4 -6.3958 0.0998
4 4 5 2.2593 -0.0106
4 4 6 8.9107 -0.0828
4 4 7 8.0523 0.0634
4 4 8 4.6883 0.0236
4 4 9 2.8377 -0.0271
4 4 10 -0.7630 0.0111
4 4 11 -2.7652 -0.0185
4 4 12 -0.0040 0.0064
4 4 13 1.0208 0.1388
4 5 0 5.5516 0.0337
4 5 1 6.2202 0.1450
4 5 2 1.2388 -0.0312
4 5 4 -4.6028 0.0717
4 5 5 -2.3739 -0.0339
4 5 6 4.8803 -0.0323
4 5 7 4.2167 0.0630
4 5 8 1.5592 0.0025
4 5 9 2.6554 -0.0559
4 5 10 -0.5759 0.0206
4 5 11 -2.7891 -0.0137
4 5 12 0.1802 0.0168
4 6 0 6.4938 0.2220
4 6 1 7.9484 -0.0655
4 6 2 4.9702 -0.0540
4 6 4 -0.1856 -0.0364
4 6 6 1.4559 0.0156
4 6 7 0.0124 0.0270
4 6 8 0.5181 -0.0198
4 6 9 2.3009 -0.0509
4 6 10 -0.8774 0.0069
4 6 11 -1.9862 -0.0259
4 7 0 5.6069 0.2003
4 7 1 8.1036 -0.1821
4 7 2 6.6499 -0.0030
4 7 3 4.3697 0.0405
4 7 4 1.8436 -0.0895
4 7 6 0.6375 0.0313
4 7 7 -1.0497 -0.0129
4 7 8 0.5471 -0.0218
4 7 9 1.3908 -0.0196
4 7 10 -1.1360 -0.0361
4 7 11 -1.5816 -0.0480
4 8 0 4.6338 0.1379
4 8 1 5.6589 -0.0762
4 8 2 4.0203 0.0215
4 8 3 0.3886 0.0378
4 8 4 0.1775 -0.0282
4 8 5 0.7672 0.0267
4 8 6 -0.4150 0.0566
4 8 7 -0.7361 -0.0206
4 8 8 -0.3198 -0.0089
4 8 9 -0.2746 0.0078
4 8 10 -0.7586 -0.0657
4 9 0 5.6276 0.1145
4 9 1 5.2785 0.0472
4 9 2 1.9446 -0.0472
4 9 3 -1.0801 0.0477
4 9 4 0.5612 0.0262
4 9 6 -1.5942 0.0564
4 9 7 -0.6484 -0.0247
4 9 8 -1.0653 0.0065
4 9 9 -1.3023 0.0126
4 10 0 6.5185 0.0508
4 10 1 7.7944 0.0419
4 10 2 2.2133 -0.0879
4 10 3 1.2500 0.0241
4 10 4 3.7247 0.0178
4 10 5 0.9514 -0.0057
4 10 6 -0.9806 0.0060
4 10 7 0.1765 -0.0419
4 10 8 -0.4103 0.0205
4 11 0 5.4568 -0.0881
4 11 1 8.0212 -0.0068
4 11 2 2.2356 -0.0082
4 11 3 3.4326 -0.0172
4 11 4 4.9473 0.0179
4 11 5 0.8254 0.0332
4 11 6 0.1487 -0.0281
4 12 0 3.4207 -0.2204
4 12 1 3.2023 -0.0266
4 12 2 0.8684 0.0545
4 12 3 3.7525 -0.0575
4 12 4 3.3937 0.0413
4 12 5 -0.1992 0.0525
4 13 0 2.0740 -0.1885
4 13 1 -1.0691 0.0039
4 13 2 0.3061 0.0226
4 13 3 2.9284 -0.0510
4 13 4 1.8172 0.0596
4 14 0 0.9760 0.0081
4 14 1 -0.4665 0.0710
4 14 2 1.3069 -0.0125
4 15 0 -0.5582 0.1417
5 -19 3 0.5984 -0.0119
5 -19 4 -0.9722 -0.0035
5 -19 5 -1.3737 -0.0245
5 -19 6 -1.4032 -0.0077
5 -19 7 -1.5980 0.0434
5 -19 8 -0.5490 0.0326
5 -19 9 0.5246 0.0171
5 -18 0 1.5739 -0.0318
5 -18 1 1.6515 0.0003
5 -18 2 2.3409 0.0104
5 -18 3 0.5642 0.0348
5 -18 4 -1.9642 -0.0162
5 -18 5 -1.8037 -0.0325
5 -18 7 -2.1010 0.0189
5 -18 8 -1.2041 -0.0035
5 -18 9 0.2245 0.0257
5 -18 10 0.9492 0.0528
5 -18 11 0.7110 0.0253
5 -18 12 -0.4518 -0.0472
5 -17 0 0.5834 0.0044
5 -17 1 1.3314 0.0041
5 -17 2 2.0218 0.0157
5 -17 3 0.5516 0.0288
5 -17 4 -0.4063 -0.0239
5 -17 5 -0.0655 -0.0049
5 -17 6 -0.0845 0.0228
5 -17 7 -0.1696 -0.0327
5 -17 8 -0.8832 -0.0346
5 -17 9 -0.9253 0.0321
5 -17 10 1.2998 0.0440
5 -17 11 1.9903 0.0049
5 -17 12 -0.4152 -0.0136
5 -17 13 -2.1499 -0.0619
5 -16 0 -3.0259 -0.0575
5 -16 1 -2.2761 0.0450
5 -16 2 -1.9326 0.0214
5 -16 3 -2.1411 -0.0449
5 -16 4 -0.3124 0.0127
5 -16 5 -0.1996 0.0287
5 -16 6 -0.7492 -0.0346
5 -16 7 0.7379 -0.0432
5 -16 8 -0.4595 -0.0226
5 -16 9 -1.6171 0.0207
5 -16 10 1.3134 0.0259
5 -16 11 2.1455 -0.0084
5 -16 12 -0.6080 0.0148
5 -16 13 -2.2128 -0.0264
5 -16 14 -1.4338 -0.0975
5 -15 0 -6.3070 -0.0994
5 -15 1 -5.7650 0.0780
5 -15 2 -4.4989 -0.0147
5 -15 3 -4.0338 -0.0755
5 -15 4 -2.5805 0.0793
5 -15 5 -1.9770 0.0187
5 -15 6 -1.5762 -0.0710
5 -15 7 -0.1194 0.0070
5 -15 8 -0.6339 0.0011
5 -15 9 -0.3495 -0.0112
5 -15 10 2.3911 0.0062
5 -15 11 1.5281 -0.0090
5 -15 12 -1.0708 0.0096
5 -15 13 -0.1850 -0.0096
5 -15 14 0.1460 -0.0463
5 -15 15 -1.6378 -0.0531
5 -14 0 -6.6569 -0.0184
5 -14 1 -6.2230 0.0372
5 -14 2 -3.0076 -0.0480
5 -14 3 -2.1188 -0.0064
5 -14 4 -3.9443 0.0950
5 -14 5 -2.4015 -0.0139
5 -14 6 -0.2234 -0.0375
5 -14 7 -1.3567 0.0554
5 -14 8 -1.4213 0.0055
5 -14 9 1.4971 -0.0267
5 -14 10 3.3130 0.0075
5 -14 11 1.2770 -0.0023
5 -14 12 0.0988 0.0110
5 -14 13 2.5126 0.0219
5 -14 14 1.5808 -0.0082
5 -14 15 -1.9941 -0.0228
5 -14 16 -1.1987 -0.0285
5 -13 0 -5.3171 0.1043
5 -13 1 -4.2153 -0.0847
5 -13 2 -0.9787 -0.0232
5 -13 3 -0.3179 0.0544
5 -13 4 -2.8473 -0.0002
5 -13 5 -0.6938 -0.0173
5 -13 6 0.5235 0.0170
5 -13 7 -3.6827 0.0381
5 -13 8 -2.8618 0.0025
5 -13 9 1.8601 -0.0190
5 -13 10 1.1735 0.0096
5 -13 11 -0.8733 -0.0090
5 -13 12 1.6539 0.0081
5 -13 13 3.0223 0.0599
5 -13 14 -0.5808 0.0154
5 -13 15 -1.7226 0.0150
5 -13 16 0.8617 0.0674
5 -12 0 -4.5422 0.2057
5 -12 2 -0.6513 0.0179
5 -12 3 -0.9008 0.0373
5 -12 4 0.3116 -0.1168
5 -12 5 2.9048 0.0091
5 -12 6 0.5846 0.0419
5 -12 7 -4.6779 -0.0177
5 -12 8 -2.6018 0.0078
5 -12 9 1.8804 -0.0113
5 -12 10 -1.4941 -0.0173
5 -12 11 -3.4316 -0.0209
5 -12 12 1.8625 -0.0129
5 -12 13 1.8154 0.0316
5 -12 14 -2.4363 0.0047
5 -12 15 0.0303 0.0158
5 -12 16 2.4221 0.0681
5 -11 1 -2.8861 -0.1180
5 -11 2 -3.6373 -0.0003
5 -11 3 -3.0584 0.0306
5 -11 4 3.0384 -0.1173
5 -11 5 5.4204 0.0263
5 -11 6 0.6571 0.0577
5 -11 7 -2.1595 -0.0419
5 -11 8 0.3823 0.0124
5 -11 9 1.2423 0.0064
5 -11 10 -2.4073 -0.0336
5 -11 11 -2.5856 -0.0059
5 -11 12 1.1841 -0.0079
5 -11 13 0.1492 -0.0160
5 -11 14 -0.8753 -0.0160
5 -11 15 3.5556 -0.0004
5 -11 16 3.5796 0.0189
5 -11 17 -0.9833 -0.0172
5 -10 1 -5.2393 -0.0323
5 -10 2 -8.7649 -0.0632
5 -10 3 -5.6589 0.0756
5 -10 4 4.2664 -0.0470
5 -10 5 5.7795 0.0018
5 -10 6 0.1494 0.0700
5 -10 7 1.5752 -0.0445
5 -10 8 4.2291 -0.0026
5 -10 9 -0.5186 0.0382
5 -10 10 -2.4856 -0.0172
5 -10 11 0.8011 0.0144
5 -10 12 0.1691 0.0066
5 -10 13 -2.0796 -0.0224
5 -10 14 -0.1343 0.0010
5 -10 15 3.3093 -0.0059
5 -10 16 3.1023 0.0120
5 -10 17 -0.5006 -0.0006
5 -9 0 -0.5348 0.1386
5 -9 1 -4.4603 0.0081
5 -9 2 -10.4628 -0.0575
5 -9 3 -6.6372 0.0872
5 -9 4 4.9056 -0.0169
5 -9 5 6.1675 -0.0332
5 -9 6 0.4473 0.0502
5 -9 7 4.0613 -0.0547
5 -9 8 6.3219 -0.0186
5 -9 9 -1.4818 0.0574
5 -9 10 -1.5731 -0.0086
5 -9 11 3.4175 0.0091
5 -9 12 -0.7911 -0.0010
5 -9 13 -3.6478 -0.0292
5 -9 14 -1.2140 0.0191
5 -9 15 -0.8135 -0.0109
5 -9 16 -0.1042 -0.0116
5 -9 17 0.0184 0.0328
5 -8 0 1.5386 -0.1904
5 -8 1 -1.5410 0.0802
5 -8 2 -7.3926 0.0455
5 -8 3 -3.9948 0.0091
5 -8 4 5.1069 0.0133
5 -8 5 5.4423 -0.0170
5 -8 6 1.8552 0.0004
5 -8 7 4.8367 -0.0317
5 -8 8 4.5570 -0.0019
5 -8 9 -1.8401 0.0474
5 -8 10 -0.6069 -0.0105
5 -8 11 2.7258 0.0044
5 -8 12 -1.3455 0.0145
5 -8 13 -2.8340 -0.0295
5 -8 14 -0.7128 0.0025
5 -8 15 -1.4930 -0.0108
5 -8 16 -1.2232 -0.0520
5 -8 17 0.2410 -0.0159
5 -7 0 3.6661 -0.4769
5 -7 1 1.1526 0.1540
5 -7 2 -3.3715 0.0922
5 -7 3 2.2757 -0.1140
5 -7 4 6.4997 0.0753
5 -7 5 3.0982 0.0213
5 -7 6 2.9669 -0.0619
5 -7 7 4.6606 0.0236
5 -7 8 0.9550 0.0191
5 -7 9 -1.9746 0.0036
5 -7 10 -0.4784 0.0003
5 -7 11 -0.6084 0.0070
5 -7 12 -1.6724 0.0396
5 -7 13 0.0677 0.0077
5 -7 14 0.9287 -0.0072
5 -7 15 0.3685 0.0077
5 -7 16 1.5526 -0.0216
5 -7 17 1.8606 -0.0244
5 -6 0 4.7962 -0.4677
5 -6 1 1.5300 0.0949
5 -6 2 -2.6511 0.0215
5 -6 3 5.8922 -0.1589
5 -6 4 7.4040 0.0863
5 -6 5 0.8433 0.0203
5 -6 6 1.8770 -0.1014
5 -6 7 2.8009 0.0387
5 -6 8 -0.9891 0.0046
5 -6 9 -0.9417 -0.0508
5 -6 10 -0.0171 0.0048
5 -6 11 -2.5109 -0.0104
5 -6 12 -1.6981 0.0091
5 -6 13 2.6421 0.0273
5 -6 14 1.6885 0.0059
5 -6 15 -0.7974 0.0230
5 -6 16 2.5615 0.0447
5 -6 17 3.9373 0.0711
5 -5 0 2.4010 -0.1103
5 -5 1 -1.9415 -0.0332
5 -5 2 -5.1949 -0.0008
5 -5 3 1.6241 -0.0477
5 -5 4 3.5378 0.0426
5 -5 5 -1.0189 0.0197
5 -5 6 -1.7082 -0.0631
5 -5 7 -1.2754 0.0241
5 -5 8 -0.9117 -0.0005
5 -5 9 0.8016 -0.0583
5 -5 10 0.4105 -0.0026
5 -5 11 -1.8028 -0.0204
5 -5 12 -1.0003 -0.0273
5 -5 13 2.5699 0.0140
5 -5 14 1.3425 0.0081
5 -5 15 -2.1935 0.0041
5 -5 16 0.8249 0.0574
5 -4 0 1.6650 0.2529
5 -4 1 -4.4465 -0.0818
5 -4 2 -5.1168 0.0637
5 -4 3 -3.9765 0.0887
5 -4 4 -1.6061 0.0111
5 -4 5 -0.8225 0.0482
5 -4 6 -3.6178 0.0194
5 -4 7 -4.5902 0.0335
5 -4 8 -0.1754 0.0384
5 -4 9 2.6254 -0.0215
5 -4 10 0.1137 -0.0028
5 -4 11 -1.4569 0.0070
5 -4 12 -0.2044 -0.0142
5 -4 13 0.4431 0.0142
5 -4 14 -0.3017 -0.0114
5 -4 15 -0.8333 -0.0465
5 -3 0 3.4794 0.3407
5 -3 1 -3.2748 -0.0766
5 -3 2 -0.1895 0.0254
5 -3 3 -3.4733 0.0806
5 -3 4 -2.9920 -0.0355
5 -3 5 2.2117 0.0240
5 -3 6 -0.5222 0.0418
5 -3 7 -4.9185 0.0215
5 -3 8 -0.7225 0.0478
5 -3 9 3.2722 -0.0088
5 -3 10 -0.0878 -0.0060
5 -3 11 -1.5963 0.0262
5 -3 12 0.4883 -0.0119
5 -3 13 -0.7528 0.0117
5 -3 14 -1.6835 -0.0307
5 -3 15 0.2242 -0.0821
5 -2 0 0.6609 0.3192
5 -2 1 -1.4277 -0.0771
5 -2 2 6.3499 -0.1247
5 -2 3 1.8990 0.0086
5 -2 4 -1.6700 -0.1090
5 -2 5 5.1537 -0.0590
5 -2 6 5.4510 0.0160
5 -2 7 -1.8921 -0.0395
5 -2 8 -1.6645 -0.0027
5 -2 9 1.4102 -0.0113
5 -2 10 -0.8939 -0.0114
5 -2 11 -0.3220 0.0189
5 -2 12 2.3346 -0.0240
5 -2 13 0.6332 -0.0048
5 -2 14 -0.5317 -0.0084
5 -2 15 0.1590 -0.0412
5 -1 0 -5.4418 0.3025
5 -1 1 1.6372 -0.0450
5 -1 2 10.6567 -0.1583
5 -1 3 5.1864 0.0147
5 -1 4 -0.8628 -0.1086
5 -1 5 4.3045 -0.0708
5 -1 6 7.7361 0.0247
5 -1 7 2.8912 -0.0727
5 -1 8 0.1393 -0.0287
5 -1 9 -1.0313 0.0296
5 -1 10 -3.1212 -0.0052
5 -1 11 -0.0220 0.0218
5 -1 12 3.6139 0.0126
5 -1 13 2.6769 -0.0078
5 -1 14 1.3712 0.0573
5 -1 15 0.3826 0.0575
5 0 0 -7.3346 0.0832
5 0 1 6.6933 0.0347
5 0 2 8.8206 -0.0204
5 0 3 0.1664 0.0306
5 0 4 -2.5755 -0.0005
5 0 5 0.1573 0.0134
5 0 6 3.0126 0.0386
5 0 7 4.6456 -0.0470
5 0 8 3.4773 -0.0060
5 0 9 -0.5541 0.0684
5 0 10 -3.5152 -0.0095
5 0 11 -1.8341 0.0246
5 0 12 1.7551 0.0451
5 0 13 2.7611 -0.0281
5 0 14 1.5316 0.0818
5 0 15 0.5381 0.1044
5 1 0 -1.8308 -0.2858
5 1 1 10.6757 0.1103
5 1 2 3.3609 0.0928
5 1 3 -7.2612 -0.0192
5 1 4 -4.0980 0.1118
5 1 5 -0.3633 0.0626
5 1 6 -0.1177 -0.0021
5 1 7 3.0794 -0.0020
5 1 8 5.1202 0.0080
5 1 9 3.4310 0.0342
5 1 10 0.2977 -0.0231
5 1 11 -1.4717 0.0026
5 1 12 0.1242 0.0027
5 1 13 1.4063 -0.0701
5 1 14 0.7972 0.0201
5 2 0 7.3594 -0.4132
5 2 1 9.8351 0.1108
5 2 2 -0.3648 0.0651
5 2 3 -7.8128 -0.0523
5 2 4 -3.7860 0.1268
5 2 5 3.4058 0.0202
5 2 6 4.3024 -0.0554
5 2 7 2.1390 0.0392
5 2 8 4.2102 0.0057
5 2 9 6.5507 -0.0323
5 2 10 3.4885 -0.0113
5 2 11 1.1411 -0.0306
5 2 12 1.6689 -0.0563
5 2 13 0.5371 -0.0590
5 3 0 11.3916 -0.2170
5 3 1 4.2046 0.0091
5 3 2 -1.9994 0.0032
5 3 3 -3.6676 -0.0257
5 3 4 -3.8087 0.0417
5 3 5 3.5085 -0.0241
5 3 6 7.2804 -0.0585
5 3 7 1.6911 0.0568
5 3 8 1.6692 0.0041
5 3 9 4.6962 -0.0574
5 3 10 2.0258 0.0193
5 3 11 1.6906 -0.0502
5 3 12 2.7341 -0.0532
5 3 13 0.2109 0.0035
5 4 0 7.2696 0.0116
5 4 1 0.1836 -0.0971
5 4 2 0.1390 0.0116
5 4 5 1.6562 -0.0110
5 4 6 4.0501 -0.0219
5 4 7 0.8243 0.0394
5 4 8 -0.0666 -0.0052
5 4 9 0.6516 -0.0348
5 4 10 -0.2171 0.0422
5 4 11 0.7247 -0.0186
5 4 12 1.1320 0.0125
5 5 0 0.1227 0.1149
5 5 1 0.0417 -0.0839
5 5 2 4.4314 0.0228
5 5 6 1.2266 0.0102
5 5 7 0.5065 0.0052
5 5 8 -0.4719 -0.0134
5 5 9 -0.8842 0.0049
5 5 10 0.1754 0.0440
5 5 11 0.4357 0.0554
5 6 0 -4.0071 0.1904
5 6 1 0.0787 0.0135
5 6 2 4.1132 -0.0273
5 6 3 7.4900 0.0100
5 6 4 8.4644 -0.0051
5 6 6 1.3250 0.0375
5 6 7 0.4753 -0.0286
5 6 8 -1.2253 -0.0029
5 6 9 -0.1308 0.0431
5 6 10 1.2330 0.0276
5 6 11 0.0447 0.0929
5 7 0 -1.4498 0.2674
5 7 1 1.4414 0.0417
5 7 2 1.5267 -0.0733
5 7 3 1.9638 0.1040
5 7 4 3.0312 0.0159
5 7 5 1.6879 -0.0011
5 7 6 1.5633 0.0637
5 7 7 0.2506 -0.0505
5 7 8 -1.6512 0.0095
5 7 9 0.5783 0.0615
5 7 10 1.0936 0.0224
5 8 0 3.9678 0.1922
5 8 1 3.9749 -0.0305
5 8 2 1.3722 -0.0510
5 8 3 0.1152 0.1007
5 8 4 0.6771 -0.0385
5 8 5 1.0970 -0.0151
5 8 6 1.2304 0.0446
5 8 7 -0.1975 -0.0437
5 8 8 -0.6532 0.0085
5 8 9 0.6418 0.0446
5 9 0 5.6040 -0.0634
5 9 1 3.2713 -0.0457
5 9 2 0.4956 0.0301
5 9 3 1.6594 -0.0156
5 9 4 3.2796 -0.0524
5 9 5 3.3284 -0.0093
5 9 6 1.1216 -0.0093
5 9 7 -0.6143 -0.0011
5 9 8 0.4918 0.0110
5 10 0 3.8772 -0.2812
5 10 1 0.1465 0.0465
5 10 2 -1.8594 0.0835
5 10 3 1.6785 -0.1048
5 10 4 4.8614 0.0016
5 10 5 4.5020 0.0016
5 10 6 1.1744 -0.0266
5 11 1 -2.3974 0.0879
5 11 2 -2.8185 0.0351
5 11 3 -0.0888 -0.1009
5 11 4 3.5985 0.0045
5 11 5 3.7528 -0.0378
5 12 0 0.1977 -0.0754
5 12 1 -3.1210 0.0327
5 12 2 -2.4382 -0.0277
5 12 4 2.2247 -0.0456
5 13 0 -0.1232 0.1083
5 13 1 -1.5820 -0.0062
5 13 2 -1.8398 -0.0131
5 14 0 -0.1329 0.1148
6 -19 3 -0.1808 -0.0307
6 -19 4 -0.0188 -0.0816
6 -19 5 -1.0253 0.0551
6 -19 6 -2.7346 0.0807
6 -18 0 2.1287 -0.1357
6 -18 1 2.3982 0.0394
6 -18 2 1.4872 0.0680
6 -18 3 1.1217 -0.0594
6 -18 4 0.5809 -0.0317
6 -18 5 -0.9579 0.0613
6 -18 6 -1.0450 0.0541
6 -18 7 0.1260 0.0165
6 -18 8 0.4399 0.0193
6 -18 9 1.2775 0.0416
6 -17 0 2.6831 -0.1215
6 -17 1 2.3285 0.0959
6 -17 2 1.0930 -0.0036
6 -17 3 0.5224 -0.0684
6 -17 4 0.0165 0.0366
6 -17 5 -0.8677 0.0077
6 -17 6 0.4242 -0.0093
6 -17 7 2.1398 0.0306
6 -17 8 1.3921 0.0174
6 -17 9 1.1473 0.0346
6 -17 10 1.8240 -0.0007
6 -16 0 1.0890 -0.0613
6 -16 1 1.0297 0.0425
6 -16 2 1.6935 -0.0532
6 -16 3 -0.2249 -0.0297
6 -16 4 -1.7041 0.0353
6 -16 5 -0.5292 -0.0497
6 -16 6 0.2798 -0.0448
6 -16 7 0.5636 0.0290
6 -16 8 1.4544 0.0071
6 -16 9 1.6728 -0.0012
6 -16 10 1.0344 -0.0019
6 -16 11 0.3266 -0.0423
6 -16 12 -0.0565 -0.0198
6 -16 13 -1.2061 0.0180
6 -15 0 -1.3359 0.0432
6 -15 1 -0.8423 -0.0614
6 -15 2 2.7706 -0.0183
6 -15 3 0.4366 0.0272
6 -15 4 -2.5362 -0.0092
6 -15 5 0.1065 -0.0380
6 -15 6 0.0846 -0.0294
6 -15 7 -1.7334 0.0142
6 -15 8 0.7962 0.0063
6 -15 9 1.9491 -0.0218
6 -15 10 0.1300 -0.0018
6 -15 11 0.3237 -0.0164
6 -15 12 1.3818 -0.0219
6 -15 13 -0.0538 -0.0122
6 -15 14 -2.4007 -0.0562
6 -14 0 -1.7698 0.1386
6 -14 1 -1.0135 -0.1077
6 -14 2 1.1434 0.0356
6 -14 3 -0.2979 0.0525
6 -14 4 -1.7913 -0.0239
6 -14 5 -0.0854 0.0145
6 -14 6 -0.6192 -0.0106
6 -14 7 -1.8933 -0.0090
6 -14 8 0.2263 0.0102
6 -14 9 0.2365 -0.0155
6 -14 10 -1.5985 0.0078
6 -14 11 0.2559 0.0125
6 -14 12 1.7649 -0.0017
6 -14 13 -0.3131 -0.0241
6 -14 14 -1.7028 -0.0656
6 -14 15 -1.1028 -0.0277
6 -13 0 -0.1693 0.2297
6 -13 1 1.3759 -0.0911
6 -13 2 -1.3581 0.0251
6 -13 3 -2.7455 0.0761
6 -13 4 -0.4399 -0.0133
6 -13 5 -0.3504 0.0252
6 -13 6 -1.5330 0.0029
6 -13 7 -0.1379 -0.0310
6 -13 8 1.0777 0.0134
6 -13 9 -1.0999 0.0064
6 -13 10 -2.3471 0.0095
6 -13 11 0.0634 0.0316
6 -13 12 0.7856 -0.0042
6 -13 13 -0.7676 -0.0343
6 -13 14 -1.0059 -0.0361
6 -13 15 -1.3225 -0.0281
6 -12 0 0.7492 0.2917
6 -12 1 2.1246 -0.0811
6 -12 2 -2.8417 -0.0296
6 -12 3 -4.7779 0.1203
6 -12 4 -1.2792 -0.0281
6 -12 5 -1.6711 -0.0063
6 -12 6 -2.4522 0.0449
6 -12 7 1.1872 -0.0398
6 -12 8 2.1378 0.0118
6 -12 9 -1.0278 0.0293
6 -12 10 -1.6543 -0.0067
6 -12 11 -0.7966 0.0442
6 -12 12 -1.2108 0.0128
6 -12 13 -0.0667 -0.0178
6 -12 14 0.9149 0.0188
6 -12 15 -0.1017 0.0025
6 -12 16 0.4619 0.0126
6 -11 0 1.1084 0.1840
6 -11 1 0.2397 -0.0714
6 -11 2 -4.3070 -0.0466
6 -11 3 -5.8718 0.0935
6 -11 4 -3.9515 -0.0685
6 -11 5 -4.1797 -0.0208
6 -11 6 -3.3785 0.0728
6 -11 7 1.5648 -0.0455
6 -11 8 2.7189 -0.0084
6 -11 9 -0.5190 0.0220
6 -11 10 -0.9995 -0.0314
6 -11 11 -1.8108 0.0277
6 -11 12 -2.5759 0.0293
6 -11 13 0.8350 0.0124
6 -11 14 1.9428 0.0440
6 -11 15 1.1484 0.0306
6 -11 16 3.1505 0.0673
6 -10 0 2.4260 -0.1167
6 -10 1 0.0285 0.0278
6 -10 2 -4.8897 0.0048
6 -10 3 -6.3753 -0.0335
6 -10 4 -5.5491 -0.0546
6 -10 5 -4.9023 0.0027
6 -10 6 -2.8035 0.0358
6 -10 7 1.9582 -0.0356
6 -10 8 3.4937 -0.0255
6 -10 9 0.7460 -0.0038
6 -10 10 -0.1273 -0.0317
6 -10 11 -0.9726 -0.0016
6 -10 12 -1.9414 0.0017
6 -10 13 0.6305 -0.0030
6 -10 14 1.3808 0.0294
6 -10 15 0.3715 0.0101
6 -10 16 2.1509 0.0231
6 -9 0 2.8890 -0.3925
6 -9 1 0.7106 0.1768
6 -9 2 -3.9748 0.0477
6 -9 3 -5.6963 -0.1349
6 -9 4 -6.2784 0.0423
6 -9 5 -4.5187 0.0238
6 -9 6 -0.8974 -0.0184
6 -9 7 1.8787 0.0163
6 -9 8 2.9189 -0.0155
6 -9 9 1.6099 -0.0076
6 -9 10 0.5197 -0.0006
6 -9 11 0.4607 -0.0103
6 -9 12 -1.4382 -0.0157
6 -9 13 -2.1205 -0.0288
6 -9 14 -0.2623 0.0145
6 -9 15 -0.0022 0.0003
6 -9 16 -0.1304 -0.0683
6 -8 0 2.0757 -0.4339
6 -8 1 -0.1224 0.1843
6 -8 2 -2.0489 0.0150
6 -8 3 -1.8783 -0.1355
6 -8 4 -4.8837 0.1054
6 -8 5 -4.0623 0.0071
6 -8 6 1.1718 -0.0438
6 -8 7 2.3073 0.0624
6 -8 8 1.5594 -0.0067
6 -8 9 1.4054 -0.0057
6 -8 10 0.5783 0.0206
6 -8 11 0.1793 -0.0221
6 -8 12 -2.4850 -0.0062
6 -8 13 -5.5035 -0.0091
6 -8 14 -3.4502 0.0036
6 -8 15 -0.1744 0.0081
6 -8 16 0.5698 -0.0541
6 -7 0 -0.1051 -0.2357
6 -7 1 -1.0970 0.0336
6 -7 2 0.5333 -0.0026
6 -7 3 2.5316 -0.0717
6 -7 4 -1.0970 0.0631
6 -7 5 -2.2061 -0.0001
6 -7 6 2.2740 -0.0479
6 -7 7 3.1780 0.0483
6 -7 8 1.0798 -0.0014
6 -7 9 0.7785 -0.0141
6 -7 10 0.7312 0.0265
6 -7 11 -0.4304 -0.0272
6 -7 12 -2.7908 -0.0157
6 -7 13 -5.2555 0.0176
6 -7 14 -5.5026 -0.0090
6 -7 15 -2.4728 -0.0061
6 -7 16 1.0367 0.0264
6 -6 0 -4.8659 0.0246
6 -6 1 -0.9106 -0.0830
6 -6 2 4.1266 0.0575
6 -6 3 2.9190 0.0043
6 -6 4 -0.3240 0.0008
6 -6 5 -0.3789 0.0332
6 -6 6 1.9646 -0.0361
6 -6 7 1.9240 0.0137
6 -6 8 0.1329 0.0283
6 -6 9 -0.1668 -0.0111
6 -6 10 0.4213 0.0382
6 -6 11 0.4040 0.0085
6 -6 12 -0.7540 -0.0267
6 -6 13 -2.5438 0.0172
6 -6 14 -4.0071 -0.0118
6 -6 15 -3.7591 -0.0136
6 -6 16 -1.2623 0.0639
6 -5 0 -7.8277 0.1625
6 -5 1 1.7537 -0.0983
6 -5 2 9.3145 0.0586
6 -5 3 1.2805 0.0384
6 -5 4 -3.9132 -0.0346
6 -5 5 -0.1051 0.0226
6 -5 6 2.1834 -0.0225
6 -5 7 -0.4250 -0.0015
6 -5 8 -1.1129 0.0397
6 -5 9 0.2158 -0.0127
6 -5 10 0.2200 0.0274
6 -5 11 1.8883 0.0291
6 -5 12 1.9978 -0.0176
6 -5 13 -1.6021 0.0137
6 -5 14 -2.4517 -0.0187
6 -5 15 -1.8706 -0.0140
6 -5 16 -2.2431 0.0452
6 -4 0 -6.9803 0.2141
6 -4 1 5.2315 -0.0736
6 -4 2 11.8201 -0.0316
6 -4 3 -0.6958 0.0365
6 -4 4 -7.3864 -0.0775
6 -4 5 -0.1356 -0.0470
6 -4 6 3.1893 -0.0056
6 -4 7 -1.5734 -0.0219
6 -4 8 -1.6414 -0.0070
6 -4 9 1.2586 -0.0271
6 -4 10 0.7779 -0.0095
6 -4 11 2.6567 0.0013
6 -4 12 3.0239 -0.0088
6 -4 13 -2.0004 0.0173
6 -4 14 -2.9173 -0.0196
6 -4 15 -0.4941 -0.0258
6 -3 0 -7.1075 0.2825
6 -3 1 5.7664 -0.0075
6 -3 2 8.2110 -0.0384
6 -3 3 -3.2586 0.0618
6 -3 4 -6.8353 -0.0893
6 -3 5 1.0301 -0.0439
6 -3 6 3.7097 0.0498
6 -3 7 -0.5224 -0.0434
6 -3 8 -1.5215 -0.0440
6 -3 9 -0.8784 -0.0043
6 -3 10 -0.8294 -0.0202
6 -3 11 1.7174 -0.0009
6 -3 12 2.1421 0.0057
6 -3 13 -1.3735 0.0081
6 -3 14 -2.4976 0.0332
6 -3 15 -0.7433 0.0155
6 -2 0 -8.0931 0.2178
6 -2 1 3.8961 0.0766
6 -2 2 2.3650 0.0288
6 -2 3 -3.3242 0.0713
6 -2 4 -2.2757 -0.0191
6 -2 5 1.2139 0.0422
6 -2 6 2.6465 0.1021
6 -2 7 2.7213 -0.0337
6 -2 8 0.1510 -0.0183
6 -2 9 -4.5596 0.0445
6 -2 10 -5.4905 -0.0178
6 -2 11 -1.7335 0.0256
6 -2 12 0.4492 0.0165
6 -2 13 -0.6438 -0.0301
6 -2 14 -1.2309 0.0964
6 -2 15 -0.6003 0.1066
6 -1 0 -6.9908 -0.1003
6 -1 1 1.0503 0.0925
6 -1 2 -2.0729 -0.0048
6 -1 3 -1.3455 -0.0098
6 -1 4 0.9907 0.0683
6 -1 5 -2.2555 0.0617
6 -1 6 -1.2902 0.0584
6 -1 7 3.9064 -0.0095
6 -1 8 2.4549 0.0108
6 -1 9 -3.9686 0.0420
6 -1 10 -7.3831 -0.0387
6 -1 11 -4.9283 0.0077
6 -1 12 -1.2285 -0.0033
6 -1 13 -1.1324 -0.0670
6 -1 14 -1.2372 0.0729
6 0 0 -3.7348 -0.3947
6 0 1 -1.5011 0.0382
6 0 2 -2.5492 -0.0785
6 0 3 -0.1457 -0.0917
6 0 4 -0.0457 0.0876
6 0 5 -3.8469 -0.0068
6 0 6 -3.4504 -0.0440
6 0 7 0.8032 0.0105
6 0 8 2.7576 -0.0006
6 0 9 0.6692 -0.0069
6 0 10 -2.9539 -0.0261
6 0 11 -2.9618 -0.0241
6 0 12 -1.1945 -0.0114
6 0 13 -1.5703 -0.0359
6 0 14 -1.1482 -0.0088
6 1 0 0.3688 -0.3832
6 1 1 -1.9949 -0.0191
6 1 2 0.8763 -0.0229
6 1 3 -0.2924 -0.0851
6 1 4 -3.4876 0.0433
6 1 5 -0.4895 -0.0422
6 1 6 0.2467 -0.0974
6 1 7 -1.9580 0.0373
6 1 8 0.6129 -0.0097
6 1 9 2.8581 -0.0334
6 1 10 1.9110 0.0410
6 1 11 1.8103 -0.0155
6 1 12 0.6767 0.0202
6 1 13 -0.7746 0.0489
6 2 0 1.9301 -0.1656
6 2 1 -0.9267 -0.0234
6 2 2 2.8131 0.0951
6 2 4 -5.6350 -0.0003
6 2 5 0.8306 -0.0122
6 2 6 3.6819 -0.0829
6 2 7 -0.5676 0.0587
6 2 8 -1.3249 0.0093
6 2 9 0.8671 -0.0211
6 2 10 2.5934 0.0786
6 2 11 3.0047 0.0030
6 2 12 1.6352 0.0424
6 2 13 0.5905 0.0970
6 3 0 -0.1896 0.0697
6 3 1 0.7671 0.0383
6 3 2 2.5540 0.0980
6 3 6 3.4428 -0.0265
6 3 7 3.3197 0.0551
6 3 8 -0.3350 0.0207
6 3 9 0.2653 -0.0049
6 3 10 2.7054 0.0524
6 3 11 1.4626 0.0256
6 3 12 1.0107 0.0535
6 4 0 -3.5728 0.2676
6 4 1 -0.2344 0.0679
6 4 2 1.1577 -0.0256
6 4 3 6.0434 0.0415
6 4 5 2.3269 -0.0170
6 4 6 2.9557 0.0433
6 4 7 4.2727 0.0240
6 4 8 0.9294 0.0037
6 4 10 3.5568 -0.0063
6 4 11 0.6063 0.0581
6 5 0 -5.1695 0.3536
6 5 1 -4.5428 -0.0217
6 5 2 -2.7109 -0.1104
6 5 4 7.0886 -0.0358
6 5 6 1.9189 0.0766
6 5 7 0.4622 -0.0326
6 5 8 -0.6474 -0.0177
6 5 9 2.5785 -0.0361
6 5 10 2.1982 -0.0707
6 6 0 -2.8953 0.2212
6 6 1 -4.4697 -0.1199
6 6 2 -3.5950 -0.0486
6 6 3 0.0107 0.0861
6 6 4 0.7048 -0.0775
6 6 5 -0.0153 0.0131
6 6 6 -0.7525 0.0520
6 6 7 -2.6543 -0.0824
6 6 8 -1.5283 -0.0328
6 6 9 0.7084 -0.0288
6 7 0 -1.3669 -0.0850
6 7 1 -0.6876 -0.0791
6 7 2 0.2252 0.0471
6 7 3 -1.0653 -0.0229
6 7 4 -0.9804 -0.0493
6 7 5 -0.6431 0.0330
6 7 6 -2.9796 -0.0004
6 7 7 -2.3961 -0.0776
6 7 8 0.2719 -0.0526
6 8 0 -4.7886 -0.3292
6 8 1 -1.4355 0.0510
6 8 2 0.7416 0.0477
6 8 3 -0.5150 -0.0904
6 8 4 1.3606 0.0403
6 8 5 1.0707 0.0130
6 8 6 -3.2795 -0.0373
6 8 7 -1.5620 -0.0366
6 8 8 1.3014 -0.0600
6 9 0 -7.6358 -0.3372
6 9 2 -2.3329 0.0021
6 9 3 -2.2968 -0.0587
6 9 5 1.9164 0.0066
6 9 6 -2.0411 -0.0409
6 10 0 -6.2146 -0.1799
6 10 1 -1.2812 0.0069
6 10 2 -3.4431 0.0097
6 10 3 -4.6805 0.0002
6 10 4 0.8241 0.0377
6 10 5 1.2221 0.0267
6 11 0 -2.8475 -0.0065
6 11 1 0.8192 -0.0429
6 11 2 -2.8202 0.0664
6 11 3 -4.6258 0.0372
6 11 4 -0.2237 0.0152
6 12 0 0.7426 0.0945
6 12 1 0.9041 0.0078
6 13 0 2.0819 0.0923
6 13 1 0.3503 0.0357
7 -18 0 -0.9976 0.0825
7 -18 1 -1.4066 0.1533
7 -18 2 -0.3505 -0.0368
7 -18 3 1.0131 -0.0405
7 -18 4 -0.3469 0.0569
7 -18 5 -1.5388 0.0336
7 -18 6 0.0802 0.0128
7 -17 0 -1.7771 0.0497
7 -17 1 -0.4764 0.0692
7 -17 2 0.5411 -0.0200
7 -17 3 -0.9344 -0.0271
7 -17 4 -1.8044 0.0441
7 -17 5 0.0604 0.0341
7 -17 6 1.0230 -0.0097
7 -17 11 2.0070 0.0006
7 -16 0 -2.2429 0.0466
7 -16 1 -0.5049 -0.0277
7 -16 2 0.9736 0.0096
7 -16 3 -1.5945 -0.0095
7 -16 4 -1.7292 0.0057
7 -16 5 2.0001 0.0219
7 -16 6 1.3481 -0.0134
7 -16 7 -0.6274 0.0181
7 -16 8 0.5636 0.0113
7 -16 9 -0.4272 -0.0269
7 -16 10 -1.1599 0.0148
7 -16 11 1.5823 0.0310
7 -16 12 1.5408 0.0279
7 -15 0 -0.5710 0.1287
7 -15 1 -0.2866 -0.0853
7 -15 2 -1.2078 -0.0065
7 -15 3 -1.8639 0.0340
7 -15 4 -0.4375 -0.0379
7 -15 5 1.5432 -0.0218
7 -15 6 0.6300 0.0072
7 -15 7 -0.8697 0.0076
7 -15 8 -0.7854 0.0056
7 -15 9 -1.5155 -0.0141
7 -15 10 -1.1924 -0.0076
7 -15 11 0.1068 0.0189
7 -15 12 -0.3816 0.0325
7 -15 13 0.2564 0.0532
7 -14 0 1.5486 0.2141
7 -14 1 1.8766 -0.1184
7 -14 2 -3.4498 -0.0288
7 -14 3 -2.9428 0.0851
7 -14 4 1.1786 -0.0804
7 -14 5 0.6816 -0.0422
7 -14 6 -0.3951 0.0419
7 -14 7 0.1842 -0.0226
7 -14 8 -1.1004 -0.0025
7 -14 9 -2.0209 0.0017
7 -14 10 -0.5393 -0.0343
7 -14 11 -0.6065 -0.0169
7 -14 12 -0.3963 -0.0062
7 -14 13 2.3093 0.0306
7 -14 14 0.9029 0.0148
7 -13 0 1.4508 0.1860
7 -13 1 2.9490 -0.1011
7 -13 2 -3.5325 0.0028
7 -13 3 -4.1184 0.0927
7 -13 4 1.0050 -0.0938
7 -13 5 0.7340 -0.0073
7 -13 6 -0.9277 0.0705
7 -13 7 -0.2301 -0.0363
7 -13 8 -1.0875 0.0151
7 -13 9 -1.2802 0.0247
7 -13 10 -0.5836 -0.0456
7 -13 11 -1.2075 -0.0271
7 -13 12 1.5811 -0.0244
7 -13 13 4.3121 -0.0064
7 -13 14 -0.1214 -0.0098
7 -12 0 0.7351 0.0194
7 -12 1 1.0006 0.0195
7 -12 2 -3.0987 0.0364
7 -12 3 -3.6206 0.0184
7 -12 4 -0.3951 -0.0497
7 -12 5 0.3956 0.0204
7 -12 6 -0.6070 0.0556
7 -12 7 -1.1698 -0.0194
7 -12 8 -0.9799 0.0178
7 -12 9 0.1642 0.0317
7 -12 10 -0.8209 -0.0432
7 -12 11 -1.7185 -0.0269
7 -12 12 2.7395 -0.0034
7 -12 13 4.7934 -0.0320
7 -12 14 -0.1233 -0.0454
7 -12 15 -2.0727 -0.0667
7 -11 0 1.1103 -0.2068
7 -11 1 -0.8248 0.1618
7 -11 2 -2.6530 0.0086
7 -11 3 -1.5141 -0.0774
7 -11 4 -0.7605 0.0333
7 -11 5 -0.1693 0.0046
7 -11 6 0.2981 0.0040
7 -11 7 -0.5557 0.0045
7 -11 8 0.0081 -0.0075
7 -11 9 1.2677 0.0264
7 -11 10 0.0805 -0.0052
7 -11 11 -0.3536 -0.0065
7 -11 12 2.3829 0.0182
7 -11 13 4.4474 -0.0249
7 -11 14 2.8263 -0.0461
7 -11 15 0.2101 -0.0711
7 -10 0 -0.6032 -0.3764
7 -10 1 -2.1204 0.1537
7 -10 2 -1.6427 -0.0309
7 -10 3 -0.4458 -0.0990
7 -10 4 -1.8946 0.0867
7 -10 5 -1.1468 -0.0115
7 -10 6 0.2876 -0.0385
7 -10 7 -0.9237 0.0085
7 -10 8 -0.4141 -0.0201
7 -10 9 0.6636 0.0251
7 -10 10 0.8069 0.0414
7 -10 11 1.5493 0.0306
7 -10 12 0.9095 0.0293
7 -10 13 2.3716 0.0031
7 -10 14 5.3225 0.0170
7 -10 15 2.5265 -0.0069
7 -9 0 -5.1599 -0.4012
7 -9 1 -3.7651 0.0069
7 -9 2 -0.4727 -0.0024
7 -9 3 -0.7944 -0.0650
7 -9 4 -3.3986 0.0695
7 -9 5 -1.4207 -0.0042
7 -9 6 0.2973 -0.0681
7 -9 7 -2.1547 0.0009
7 -9 8 -1.8121 -0.0098
7 -9 9 0.5568 -0.0013
7 -9 10 1.4942 0.0275
7 -9 11 1.9064 0.0135
7 -9 12 -0.3741 0.0168
7 -9 13 -1.2839 0.0182
7 -9 14 2.4938 0.0341
7 -9 15 3.0792 0.0590
7 -8 0 -9.6879 -0.2475
7 -8 1 -4.0955 -0.0630
7 -8 2 -0.9201 0.0795
7 -8 3 -3.2121 -0.0333
7 -8 4 -3.0701 0.0404
7 -8 5 0.6363 0.0186
7 -8 6 1.0526 -0.0802
7 -8 7 -2.2674 0.0237
7 -8 8 -1.5482 0.0163
7 -8 9 2.2917 -0.0450
7 -8 10 2.5109 -0.0044
7 -8 11 0.8104 -0.0265
7 -8 12 -0.8462 -0.0090
7 -8 13 -2.8494 0.0236
7 -8 14 -1.8104 -0.0200
7 -8 15 1.1231 0.0101
7 -7 0 -12.3904 0.0119
7 -7 1 -2.7393 -0.0006
7 -7 2 -2.8725 0.0974
7 -7 3 -8.3091 -0.0021
7 -7 4 -3.6265 0.0340
7 -7 5 2.6094 0.0288
7 -7 6 0.6953 -0.0492
7 -7 7 -3.0130 0.0563
7 -7 8 -0.8865 0.0351
7 -7 9 2.5366 -0.0567
7 -7 10 1.2291 0.0047
7 -7 11 -0.9177 -0.0105
7 -7 12 -1.4177 -0.0177
7 -7 13 -1.7360 0.0213
7 -7 14 -0.9857 -0.0415
7 -7 15 0.1662 -0.0478
7 -6 0 -9.3989 0.2291
7 -6 1 0.4054 0.0186
7 -6 2 -2.1539 0.0002
7 -6 3 -9.5678 0.0304
7 -6 4 -4.8726 -0.0126
7 -6 5 2.0009 -0.0060
7 -6 6 -0.2600 0.0027
7 -6 7 -3.3285 0.0271
7 -6 8 -0.0152 0.0142
7 -6 9 1.6605 -0.0364
7 -6 10 -0.8346 -0.0012
7 -6 11 -1.0504 0.0076
7 -6 12 -0.8289 -0.0189
7 -6 13 -0.5263 -0.0035
7 -6 14 2.0424 -0.0143
7 -6 15 1.9818 -0.0134
7 -5 0 -0.8701 0.3132
7 -5 1 3.9573 -0.0359
7 -5 2 0.4216 -0.0681
7 -5 3 -4.0420 0.0547
7 -5 4 -2.9733 -0.0772
7 -5 5 -0.8664 -0.0298
7 -5 6 -1.3666 0.0430
7 -5 7 -0.9189 -0.0341
7 -5 8 1.7430 -0.0073
7 -5 9 1.7766 0.0013
7 -5 10 0.0980 -0.0314
7 -5 11 1.0926 0.0026
7 -5 12 1.3275 -0.0065
7 -5 13 0.1162 -0.0114
7 -5 14 1.5409 0.0320
7 -4 0 5.6103 0.2233
7 -4 1 4.5102 -0.0347
7 -4 2 0.2515 -0.0245
7 -4 3 1.6852 0.0550
7 -4 4 0.8866 -0.0612
7 -4 5 -3.5600 0.0127
7 -4 6 -2.3226 0.0676
7 -4 7 2.6791 -0.0446
7 -4 8 2.8042 0.0091
7 -4 9 0.9044 0.0390
7 -4 10 1.4201 -0.0238
7 -4 11 2.2161 0.0382
7 -4 12 1.6391 0.0279
7 -4 13 0.0232 -0.0044
7 -4 14 -0.3838 0.0753
7 -3 0 6.4356 -0.0256
7 -3 1 1.5008 0.0067
7 -3 2 -1.2225 -0.0198
7 -3 3 3.9759 0.0031
7 -3 4 2.0912 0.0017
7 -3 5 -4.5131 0.0317
7 -3 6 -1.0920 0.0535
7 -3 7 5.5382 -0.0217
7 -3 8 3.4259 0.0112
7 -3 9 -0.2454 0.0367
7 -3 10 0.2542 -0.0063
7 -3 11 0.4942 0.0641
7 -3 12 -0.7380 0.0241
7 -3 13 -1.1882 -0.0650
7 -3 14 -0.2090 0.0259
7 -2 0 2.3469 -0.2512
7 -2 1 -3.3689 0.0168
7 -2 2 -1.4562 -0.0850
7 -2 3 3.2096 -0.0563
7 -2 4 -0.9050 0.0314
7 -2 5 -5.0210 -0.0218
7 -2 6 -0.0197 -0.0030
7 -2 7 4.9221 -0.0105
7 -2 8 3.7451 -0.0187
7 -2 9 1.3712 0.0151
7 -2 10 0.1053 -0.0114
7 -2 11 -1.0747 0.0065
7 -2 12 -2.4952 -0.0116
7 -2 13 -1.8730 -0.1249
7 -2 14 0.7390 -0.1008
7 -1 0 -3.8354 -0.2868
7 -1 1 -5.3296 0.0374
7 -1 2 0.5344 -0.0343
7 -1 4 -3.2263 0.0504
7 -1 5 -2.8612 -0.0413
7 -1 6 -0.7629 -0.0514
7 -1 7 -0.0318 0.0099
7 -1 8 1.3587 -0.0258
7 -1 9 3.1458 0.0183
7 -1 10 2.9019 0.0072
7 -1 11 0.2274 -0.0560
7 -1 12 -2.0349 0.0163
7 -1 13 -0.9519 -0.0210
7 0 0 -5.7912 -0.1989
7 0 1 -0.5660 0.0773
7 0 2 3.9059 0.1096
7 0 5 2.4526 -0.0028
7 0 6 0.0899 -0.0714
7 0 7 -4.4064 0.0466
7 0 8 -3.9291 -0.0083
7 0 9 0.6069 0.0044
7 0 10 3.8535 0.0352
7 0 11 1.6131 -0.0579
7 0 12 -0.9809 0.0723
7 0 13 -0.1436 0.1593
7 1 0 -2.1709 -0.0546
7 1 1 5.9290 0.0739
7 1 2 4.1581 0.1219
7 1 6 2.1284 -0.0615
7 1 7 -3.7244 0.0623
7 1 8 -7.3192 0.0006
7 1 9 -3.2893 -0.0403
7 1 10 1.1571 0.0262
7 1 11 0.1824 -0.0386
7 1 12 -0.5681 0.0509
7 2 0 1.6073 0.1779
7 2 1 8.0150 0.0057
7 2 2 2.3231 -0.0075
7 2 6 2.8490 0.0063
7 2 7 0.4680 0.0404
7 2 8 -4.2248 -0.0049
7 2 9 -2.2574 -0.0499
7 2 10 -0.2108 0.0099
7 2 11 -1.0220 -0.0159
7 3 0 1.3774 0.3567
7 3 1 4.6878 -0.1000
7 3 2 1.7332 -0.1002
7 3 5 3.0688 -0.0182
7 3 6 2.2106 0.0838
7 3 7 2.5183 -0.0058
7 3 8 1.5032 -0.0249
7 3 9 1.6673 -0.0322
7 3 10 0.8326 -0.0140
7 3 11 0.0241 0.0010
7 4 0 0.1718 0.2780
7 4 1 0.5427 -0.1447
7 4 2 0.5889 -0.0808
7 4 3 4.3084 0.0675
7 4 5 3.8303 0.0051
7 4 6 0.2032 0.0721
7 4 7 1.1656 -0.0503
7 4 8 3.4456 -0.0305
7 4 9 2.5122 -0.0180
7 4 10 1.0125 -0.0730
7 5 0 4.1854 0.0228
7 5 1 3.5970 -0.0459
7 5 2 0.7955 -0.0212
7 5 3 0.7465 -0.0218
7 5 4 3.2302 -0.0264
7 5 6 -1.6614 0.0031
7 5 7 1.4129 -0.0563
7 5 8 3.1201 0.0125
7 5 9 1.0409 0.0301
7 6 0 9.2840 -0.1736
7 6 1 9.4919 0.0792
7 6 2 2.8897 -0.0049
7 6 3 0.5189 -0.0425
7 6 4 2.6095 0.0491
7 6 5 -0.4869 -0.0034
7 6 6 -1.5985 -0.0201
7 6 7 3.2837 -0.0033
7 6 8 3.0566 0.0730
7 7 0 8.3225 -0.2197
7 7 1 7.5975 0.0799
7 7 2 1.4256 0.0019
7 7 3 0.4040 0.0032
7 7 4 2.8450 0.0672
7 7 5 0.7806 -0.0099
7 7 6 0.1593 -0.0075
7 7 7 2.8941 0.0728
7 8 0 5.7133 -0.1910
7 8 1 2.9554 0.0084
7 8 2 -1.6537 0.0610
7 8 3 -0.5844 0.0069
7 8 4 2.3490 0.0382
7 8 5 2.3546 0.0150
7 8 6 2.2562 -0.0289
7 9 0 4.7957 -0.1599
7 9 1 2.3708 -0.0100
7 9 2 -1.5867 0.1011
7 9 3 -0.4723 -0.0517
7 9 4 1.8699 0.0051
7 9 5 1.7602 0.0204
7 10 0 2.8143 -0.0658
7 10 1 1.2271 0.0402
7 10 2 -0.7514 0.0402
7 10 3 -0.0349 -0.0700
7 10 4 0.9694 -0.0086
7 11 0 1.0108 0.1132
7 11 1 -1.8237 0.0609
7 11 2 -1.2231 -0.0656
7 12 0 0.1847 0.2175
7 12 1 -3.1223 -0.0032
8 -18 0 0.2260 -0.0127
8 -18 1 -0.3016 -0.0148
8 -18 2 -0.2232 -0.0658
8 -18 3 -0.2975 -0.0145
8 -18 4 -0.4307 0.0502
8 -18 5 0.2271 -0.0097
8 -18 6 0.1028 -0.0309
8 -18 7 -0.5327 0.0122
8 -17 0 0.0232 0.0399
8 -17 1 0.0567 -0.0888
8 -17 2 -0.3730 -0.0545
8 -17 3 -1.4932 0.0243
8 -17 4 -1.1139 0.0044
8 -17 5 0.6227 -0.0109
8 -17 6 0.3893 -0.0064
8 -17 7 -0.2754 -0.0133
8 -17 8 -1.0415 0.0018
8 -17 9 -2.9850 0.0301
8 -17 10 -1.9254 0.0503
8 -16 0 2.2869 0.1645
8 -16 1 0.5766 -0.1329
8 -16 2 -1.4709 -0.0041
8 -16 3 -0.9740 0.0946
8 -16 4 -0.7821 -0.0575
8 -16 5 -0.5430 -0.0185
8 -16 6 0.3337 0.0141
8 -16 7 0.3658 -0.0510
8 -16 8 -0.8610 0.0166
8 -16 9 -2.0566 0.0334
8 -16 10 -1.5252 -0.0062
8 -16 11 -0.2810 0.0563
8 -15 0 4.2956 0.1958
8 -15 1 2.0187 -0.0986
8 -15 2 -2.2620 0.0389
8 -15 3 0.0686 0.0903
8 -15 4 0.8853 -0.0760
8 -15 5 -1.4409 -0.0026
8 -15 6 -0.0148 0.0177
8 -15 7 1.6837 -0.0498
8 -15 8 0.3922 0.0259
8 -15 9 -0.2565 0.0150
8 -15 10 -0.3540 -0.0278
8 -15 11 -0.6386 0.0473
8 -15 12 0.1379 0.1057
8 -14 0 3.0393 0.0779
8 -14 1 2.3681 0.0026
8 -14 2 -1.6692 0.0323
8 -14 3 -0.5111 0.0172
8 -14 4 0.6754 -0.0274
8 -14 5 -1.0882 0.0327
8 -14 6 -0.3334 0.0273
8 -14 7 1.3949 -0.0173
8 -14 8 1.6747 0.0188
8 -14 9 1.5055 0.0008
8 -14 10 0.1383 -0.0147
8 -14 11 -0.1619 0.0514
8 -14 12 1.0081 0.0729
8 -14 13 0.1359 0.0776
8 -13 0 0.8710 -0.0759
8 -13 1 0.3937 0.1021
8 -13 2 -0.6346 -0.0192
8 -13 3 -1.4905 -0.0409
8 -13 4 -2.4098 0.0283
8 -13 5 -1.3659 0.0283
8 -13 6 -0.1508 0.0315
8 -13 7 -0.7420 -0.0115
8 -13 8 1.1208 -0.0244
8 -13 9 3.6042 -0.0063
8 -13 10 1.7867 -0.0238
8 -13 11 0.2145 0.0166
8 -13 12 1.1841 0.0320
8 -13 13 1.1196 0.0101
8 -12 0 0.5088 -0.2151
8 -12 1 -0.8312 0.1158
8 -12 2 0.4374 -0.0490
8 -12 3 -0.9368 -0.0675
8 -12 4 -4.5650 0.0391
8 -12 5 -2.5932 0.0017
8 -12 6 -0.2526 0.0081
8 -12 7 -2.6275 -0.0235
8 -12 8 -0.7744 -0.0486
8 -12 9 4.6640 0.0000
8 -12 10 4.2593 -0.0193
8 -12 11 0.2338 -0.0248
8 -12 12 -0.2330 0.0032
8 -12 13 2.3503 -0.0028
8 -12 14 2.1824 -0.0173
8 -11 0 -0.0609 -0.3380
8 -11 1 0.1656 0.0579
8 -11 2 1.6007 0.0007
8 -11 3 -0.6482 -0.0891
8 -11 4 -4.8382 0.0382
8 -11 5 -3.6785 0.0189
8 -11 6 -2.2582 -0.0316
8 -11 7 -4.7286 -0.0049
8 -11 8 -2.8318 -0.0104
8 -11 9 2.3932 0.0121
8 -11 10 2.5996 0.0248
8 -11 11 -0.7508 -0.0181
8 -11 12 -1.6010 -0.0162
8 -11 13 1.4616 0.0126
8 -11 14 3.1659 -0.0017
8 -10 0 -1.3258 -0.3345
8 -10 1 2.0734 0.0323
8 -10 2 2.4961 0.0730
8 -10 3 -0.9854 -0.0904
8 -10 4 -3.5637 0.0575
8 -10 5 -2.9794 0.0349
8 -10 6 -3.6873 -0.0655
8 -10 7 -5.3555 0.0371
8 -10 8 -2.2895 0.0246
8 -10 9 0.2272 -0.0007
8 -10 10 -1.6766 0.0421
8 -10 11 -1.0828 -0.0199
8 -10 12 0.3549 -0.0420
8 -10 13 -0.4482 -0.0183
8 -10 14 0.9779 -0.0097
8 -9 0 -1.7183 -0.1093
8 -9 1 2.9663 0.0519
8 -9 2 0.8135 0.0654
8 -9 3 -2.0562 -0.0336
8 -9 4 -1.1677 0.0626
8 -9 5 -1.2952 -0.0103
8 -9 6 -3.4075 -0.0602
8 -9 7 -2.9594 0.0692
8 -9 8 0.9414 0.0157
8 -9 9 0.6401 -0.0204
8 -9 10 -3.1395 0.0308
8 -9 11 -0.1209 -0.0340
8 -9 12 3.5624 -0.0314
8 -9 13 -0.0431 -0.0113
8 -9 14 -1.7662 -0.0435
8 -8 0 -2.1722 0.2050
8 -8 1 0.3552 0.0088
8 -8 2 -4.6854 -0.0200
8 -8 3 -5.8135 0.0458
8 -8 4 -1.3571 0.0035
8 -8 5 -2.1261 -0.0562
8 -8 6 -4.6325 -0.0095
8 -8 7 -1.3046 0.0511
8 -8 8 2.1255 -0.0065
8 -8 9 -0.3646 -0.0260
8 -8 10 -3.1852 0.0225
8 -8 11 -0.8298 -0.0046
8 -8 12 2.1138 0.0172
8 -8 13 1.1962 0.0590
8 -8 14 -1.1083 -0.0113
8 -7 0 -1.3515 0.3669
8 -7 1 -4.1977 -0.0958
8 -7 2 -8.7339 -0.0768
8 -7 3 -7.3903 0.0701
8 -7 4 -3.2643 -0.0843
8 -7 5 -4.6088 -0.0336
8 -7 6 -5.3099 0.0393
8 -7 7 -0.4481 -0.0184
8 -7 8 1.1116 -0.0154
8 -7 9 -2.1052 -0.0266
8 -7 10 -2.9736 -0.0062
8 -7 11 -2.0815 0.0297
8 -7 12 -1.0997 0.0198
8 -7 13 1.1660 0.0469
8 -7 14 1.6968 0.0267
8 -6 0 1.0024 0.3084
8 -6 1 -7.2241 -0.1037
8 -6 2 -8.1709 -0.0427
8 -6 4 -2.1773 -0.0831
8 -6 5 -5.6161 0.0285
8 -6 6 -2.7508 0.0594
8 -6 7 1.7956 -0.0506
8 -6 8 0.3536 0.0103
8 -6 9 -1.2111 0.0020
8 -6 10 -0.5707 -0.0290
8 -6 11 -0.6930 0.0338
8 -6 12 0.0233 -0.0145
8 -6 13 1.5664 -0.0360
8 -6 14 2.4032 0.0250
8 -5 0 0.4794 0.1233
8 -5 1 -7.6211 -0.0001
8 -5 3 2.2323 0.0333
8 -5 4 0.4422 0.0014
8 -5 5 -3.9168 0.0431
8 -5 6 0.3107 0.0499
8 -5 7 2.6372 -0.0227
8 -5 8 -0.9392 0.0338
8 -5 9 -0.1102 0.0397
8 -5 10 1.8590 -0.0213
8 -5 11 1.1996 0.0273
8 -5 12 2.1683 -0.0165
8 -5 13 2.3589 -0.0612
8 -4 0 -2.3330 -0.0836
8 -4 1 -4.6192 0.0571
8 -4 2 -0.9154 -0.0321
8 -4 4 -0.0624 0.0309
8 -4 5 0.0736 -0.0131
8 -4 6 2.5311 0.0066
8 -4 7 0.9645 -0.0197
8 -4 8 -1.4856 -0.0038
8 -4 9 0.5734 0.0233
8 -4 10 2.1675 -0.0313
8 -4 11 1.0462 0.0033
8 -4 12 1.0566 0.0029
8 -4 13 1.6414 -0.0547
8 -3 0 -4.0303 -0.2271
8 -3 1 -0.4848 0.0527
8 -3 2 2.5659 -0.0231
8 -3 4 -3.2184 0.0141
8 -3 5 2.2747 -0.0404
8 -3 6 2.3544 -0.0379
8 -3 7 -1.4300 -0.0327
8 -3 8 -0.2118 -0.0390
8 -3 9 2.8442 0.0006
8 -3 10 2.2979 -0.0355
8 -3 11 -0.1387 -0.0197
8 -3 12 -0.7557 0.0424
8 -3 13 0.4943 -0.0269
8 -2 0 -4.0046 -0.2872
8 -2 1 1.9778 0.0719
8 -2 2 1.3347 0.0616
8 -2 5 2.3902 0.0108
8 -2 6 -0.6173 -0.0534
8 -2 7 -3.4768 0.0090
8 -2 8 -0.0086 -0.0084
8 -2 9 4.2197 0.0158
8 -2 10 2.9962 0.0100
8 -2 11 -0.8343 -0.0193
8 -2 12 -0.9751 0.0934
8 -2 13 0.3878 0.0874
8 -1 0 -1.0444 -0.2587
8 -1 1 3.2753 0.0630
8 -1 2 -1.9118 0.0788
8 -1 6 -1.1602 -0.0574
8 -1 7 -3.6119 0.0658
8 -1 8 -1.8691 0.0182
8 -1 9 2.2202 -0.0107
8 -1 10 2.4647 0.0337
8 -1 11 -0.6328 -0.0374
8 -1 12 -0.4930 0.0632
8 0 0 3.5685 -0.0580
8 0 1 2.9646 -0.0286
8 0 2 -4.1859 0.0053
8 0 3 1.1529 -0.0261
8 0 6 1.8356 -0.0427
8 0 7 -1.2766 0.0691
8 0 8 -2.9576 0.0130
8 0 9 -0.5356 -0.0611
8 0 10 0.9143 0.0159
8 0 11 0.2155 -0.0574
8 0 12 0.1397 -0.0367
8 1 0 5.7566 0.2545
8 1 1 2.0376 -0.1189
8 1 2 -4.0737 -0.0322
8 1 3 2.8413 0.0505
8 1 6 3.2085 0.0133
8 1 7 1.8222 0.0230
8 1 8 -1.1113 0.0144
8 1 9 -1.2902 -0.0239
8 1 10 0.3967 0.0313
8 1 11 1.2883 -0.0173
8 2 0 3.6561 0.3918
8 2 1 1.2368 -0.1170
8 2 2 -2.8384 -0.0335
8 2 3 2.1559 0.0751
8 2 5 3.1344 -0.0042
8 2 6 0.8936 0.0661
8 2 7 2.8050 -0.0331
8 2 8 1.2202 -0.0020
8 2 9 -1.4052 0.0489
8 2 10 0.3214 0.0492
8 3 0 0.3176 0.2574
8 3 1 -1.2570 -0.0167
8 3 2 -4.3863 -0.0561
8 3 3 -0.6300 0.0416
8 3 5 1.2340 0.0002
8 3 6 -2.2372 0.0638
8 3 7 1.3920 -0.0591
8 3 8 0.9506 -0.0241
8 3 9 -1.8138 0.0671
8 3 10 -0.2894 0.0138
8 4 0 1.4846 0.0453
8 4 1 -2.0127 0.0807
8 4 2 -5.2991 -0.0507
8 4 3 -0.5536 0.0372
8 4 5 -2.2234 -0.0038
8 4 6 -2.9513 0.0248
8 4 7 1.0620 -0.0506
8 4 8 0.2568 0.0085
8 4 9 -0.8471 0.0784
8 5 0 4.2359 -0.1303
8 5 1 -0.3338 0.0567
8 5 2 -2.3372 0.0162
8 5 3 2.5313 0.0313
8 5 4 2.0452 0.0423
8 5 6 -1.7966 -0.0062
8 5 7 1.7866 -0.0133
8 5 8 1.0734 0.0583
8 6 0 2.1640 -0.2544
8 6 1 -2.0487 -0.0083
8 6 2 -1.0027 0.0883
8 6 3 1.8046 -0.0443
8 6 5 -1.1320 0.0293
8 6 6 -0.2530 -0.0135
8 6 7 1.1478 0.0734
8 7 0 -0.2658 -0.2510
8 7 1 -4.4779 0.0265
8 7 2 -1.8583 0.0894
8 7 3 -0.7940 -0.1209
8 7 4 -1.0472 0.0026
8 7 5 0.9172 0.0185
8 7 6 1.5987 -0.0068
8 8 0 -0.0472 -0.0990
8 8 1 -3.0466 0.0697
8 8 2 -0.3908 -0.0011
8 8 3 0.5043 -0.0953
8 8 4 -0.3667 0.0217
8 8 5 0.3462 -0.0147
8 9 0 -1.1794 0.0988
8 9 1 -1.1780 -0.0015
8 9 2 2.5669 -0.0860
8 9 3 3.4006 0.0127
8 10 0 -1.9763 0.1994
8 10 1 -0.1821 -0.1019
8 10 2 4.1045 -0.0746
8 11 0 -0.5101 0.1356
8 11 1 0.8235 -0.1168
9 -18 2 -0.4272 0.0054
9 -18 3 0.4912 -0.0073
9 -18 4 0.8275 -0.0631
9 -18 5 0.6656 0.0461
9 -17 0 1.5938 0.0936
9 -17 1 -0.7250 -0.1039
9 -17 2 -0.3053 0.0361
9 -17 3 1.1614 0.0212
9 -17 4 -0.1384 -0.0713
9 -17 5 -0.2534 0.0412
9 -17 6 1.0139 0.0510
9 -17 7 0.1047 0.0122
9 -17 8 -0.6371 0.0511
9 -16 0 1.7477 0.0638
9 -16 1 -0.2989 -0.0589
9 -16 2 0.2443 0.0203
9 -16 3 1.9439 0.0336
9 -16 4 0.1548 -0.0437
9 -16 5 -0.5663 -0.0202
9 -16 6 0.6074 0.0258
9 -16 7 -0.0227 0.0333
9 -16 8 -0.2931 0.0152
9 -16 9 -0.1269 -0.0232
9 -16 10 -0.4974 -0.0129
9 -15 0 -0.3214 -0.0487
9 -15 1 0.8565 0.0084
9 -15 2 1.5010 -0.0002
9 -15 3 0.8086 0.0267
9 -15 4 0.0832 -0.0159
9 -15 5 -0.0408 -0.0511
9 -15 6 -0.3863 0.0207
9 -15 7 0.0826 0.0303
9 -15 8 0.9722 -0.0109
9 -15 9 -0.4655 0.0069
9 -15 10 -1.5875 0.0374
9 -15 11 -0.3168 0.0171
9 -14 0 -2.8392 -0.1508
9 -14 1 1.2406 0.0567
9 -14 2 3.0631 0.0216
9 -14 3 -0.6150 0.0031
9 -14 4 -1.5341 -0.0087
9 -14 5 0.0599 -0.0210
9 -14 6 -0.8085 0.0144
9 -14 7 -0.5090 -0.0209
9 -14 8 1.5997 -0.0284
9 -14 9 0.4955 0.0228
9 -14 10 -1.9346 0.0155
9 -14 11 -1.8413 0.0036
9 -14 12 -0.4156 0.0237
9 -13 0 -3.2041 -0.2366
9 -13 1 1.2113 0.0814
9 -13 2 3.9019 0.0471
9 -13 3 0.9250 -0.0549
9 -13 4 -0.8471 0.0146
9 -13 5 0.4021 0.0210
9 -13 6 0.1339 -0.0204
9 -13 7 -0.7043 -0.0354
9 -13 8 0.8590 -0.0191
9 -13 9 1.6889 0.0245
9 -13 10 -0.8048 -0.0080
9 -13 11 -2.2693 -0.0268
9 -13 12 -0.0419 0.0848
9 -12 0 -2.1710 -0.2743
9 -12 1 1.1075 0.0936
9 -12 2 2.7808 0.0295
9 -12 3 3.0534 -0.1034
9 -12 4 2.5587 0.0697
9 -12 5 1.5115 0.0308
9 -12 6 0.3527 -0.0503
9 -12 7 -0.4883 0.0236
9 -12 8 0.1283 0.0100
9 -12 9 0.0787 0.0204
9 -12 10 -1.6384 0.0173
9 -12 11 -1.4034 -0.0289
9 -12 12 -0.1820 0.0945
9 -12 13 -0.1983 0.1748
9 -11 0 -0.7087 -0.1458
9 -11 1 0.8916 0.0678
9 -11 2 0.9448 -0.0165
9 -11 3 3.2941 -0.0720
9 -11 4 4.7903 0.0797
9 -11 5 2.5321 -0.0030
9 -11 6 0.0057 -0.0426
9 -11 7 0.4560 0.0551
9 -11 8 1.4846 0.0030
9 -11 9 -1.7206 -0.0032
9 -11 10 -3.6942 0.0157
9 -11 11 0.5606 -0.0391
9 -11 12 1.5082 0.0191
9 -11 13 -1.4568 0.0562
9 -10 0 0.6666 0.1195
9 -10 1 0.6782 -0.0284
9 -10 2 -0.1253 -0.0336
9 -10 3 2.3973 0.0209
9 -10 4 3.8646 0.0049
9 -10 5 1.3617 -0.0338
9 -10 6 -0.1428 -0.0059
9 -10 7 1.9449 0.0217
9 -10 8 2.6810 -0.0143
9 -10 9 -1.3888 -0.0106
9 -10 10 -3.1521 -0.0074
9 -10 11 1.9678 -0.0489
9 -10 12 4.7955 -0.0270
9 -10 13 1.5950 -0.0379
9 -9 0 -0.0166 0.3162
9 -9 1 -0.6390 -0.1260
9 -9 2 -1.5320 0.0020
9 -9 3 -0.3331 0.0836
9 -9 4 -0.2798 -0.0675
9 -9 5 -2.8867 -0.0084
9 -9 6 -1.9004 0.0241
9 -9 7 1.2841 -0.0108
9 -9 8 -0.0413 0.0082
9 -9 9 -2.1323 0.0034
9 -9 10 -1.5211 -0.0031
9 -9 11 0.5790 -0.0160
9 -9 12 4.2896 0.0083
9 -9 13 4.4567 0.0318
9 -8 0 -0.6952 0.3182
9 -8 1 -1.9986 -0.1110
9 -8 2 -2.1976 0.0331
9 -8 3 -2.7002 0.0739
9 -8 4 -4.3122 -0.0648
9 -8 5 -5.6251 0.0327
9 -8 6 -2.4151 0.0293
9 -8 7 0.0145 -0.0242
9 -8 8 -2.6715 0.0231
9 -8 9 -2.3411 -0.0052
9 -8 10 0.0058 -0.0052
9 -8 11 -0.5741 0.0259
9 -8 12 1.0480 0.0212
9 -8 13 2.8508 0.0695
9 -7 0 0.5061 0.1796
9 -7 1 -2.2849 -0.0112
9 -7 2 -2.2448 0.0049
9 -7 3 -2.5984 0.0431
9 -7 4 -5.0420 -0.0254
9 -7 5 -4.4446 0.0214
9 -7 6 0.0464 0.0339
9 -7 7 0.1801 -0.0371
9 -7 8 -1.9986 -0.0005
9 -7 9 0.4854 -0.0036
9 -7 10 2.2219 -0.0168
9 -7 11 0.9155 0.0415
9 -7 12 0.3864 -0.0093
9 -7 13 0.2017 -0.0237
9 -6 0 -0.6126 -0.0031
9 -6 1 -3.2086 0.0346
9 -6 2 -4.5577 -0.0481
9 -6 3 -4.0316 0.0158
9 -6 4 -3.8899 -0.0164
9 -6 5 -2.0333 -0.0217
9 -6 6 0.4145 0.0320
9 -6 7 -1.3851 -0.0550
9 -6 8 -2.0557 -0.0280
9 -6 9 1.7035 0.0284
9 -6 10 2.9994 -0.0193
9 -6 11 1.7344 0.0188
9 -5 0 -3.8430 -0.1718
9 -5 1 -4.1837 0.0252
9 -5 3 -7.6224 -0.0395
9 -5 4 -2.6174 -0.0176
9 -5 5 1.0444 -0.0197
9 -5 6 -1.4675 0.0009
9 -5 7 -4.1030 -0.0518
9 -5 8 -2.5245 -0.0284
9 -5 9 0.7273 0.0354
9 -5 10 2.0873 -0.0247
9 -5 11 1.2139 -0.0282
9 -5 12 0.6286 -0.0064
9 -4 0 -4.2706 -0.2712
9 -4 1 -4.5858 0.0743
9 -4 4 -1.8842 0.0436
9 -4 5 2.2493 0.0356
9 -4 6 -2.4885 -0.0256
9 -4 7 -4.2221 0.0182
9 -4 8 -0.5891 0.0104
9 -4 9 1.5440 0.0232
9 -4 10 1.5037 0.0059
9 -4 11 1.0215 -0.0261
9 -4 12 0.7942 0.0446
9 -3 0 -1.4986 -0.2569
9 -3 1 -5.2923 0.1226
9 -3 3 -5.9764 -0.0916
9 -3 4 -0.1594 0.1162
9 -3 5 -0.1764 0.0500
9 -3 6 -3.1190 -0.0350
9 -3 7 -2.0953 0.0984
9 -3 8 1.4467 0.0350
9 -3 9 2.5758 0.0071
9 -3 10 0.6902 0.0658
9 -3 11 0.0975 0.0041
9 -3 12 0.7654 0.0617
9 -2 0 1.3132 -0.1071
9 -2 1 -6.0554 0.0358
9 -2 2 -9.6156 -0.0088
9 -2 3 -1.3529 -0.0518
9 -2 4 3.5132 0.0752
9 -2 6 -2.2017 -0.0527
9 -2 7 0.4699 0.0846
9 -2 8 2.0798 -0.0084
9 -2 9 1.5030 -0.0491
9 -2 10 -0.6361 0.0617
9 -2 11 -1.0055 -0.0350
9 -1 0 0.9963 0.1463
9 -1 1 -7.4346 -0.0953
9 -1 2 -8.7162 -0.0247
9 -1 3 0.2967 0.0128
9 -1 4 4.6276 -0.0378
9 -1 6 0.6573 -0.0498
9 -1 7 2.5021 0.0153
9 -1 8 2.3077 -0.0406
9 -1 9 0.1059 -0.0843
9 -1 10 -0.9069 0.0208
9 -1 11 -0.3214 -0.0636
9 0 0 -0.8244 0.3491
9 0 1 -6.7129 -0.1119
9 0 2 -6.0622 0.0245
9 0 3 0.0333 0.0796
9 0 5 2.1551 -0.0185
9 0 6 2.1948 0.0022
9 0 7 3.9678 -0.0255
9 0 8 2.5518 -0.0086
9 0 9 -0.4443 -0.0212
9 0 10 -0.1269 0.0351
9 1 0 -0.7332 0.3567
9 1 1 -2.2637 -0.0385
9 1 2 -1.9827 -0.0039
9 1 3 1.1075 0.1027
9 1 5 0.9283 0.0037
9 1 6 1.0795 0.0738
9 1 7 4.4648 -0.0351
9 1 8 2.6319 0.0020
9 1 9 -0.7699 0.0512
9 1 10 0.0250 0.0590
9 2 0 -0.5425 0.1987
9 2 1 -0.8380 0.0235
9 2 2 -0.4191 -0.0746
9 2 3 1.1576 0.0835
9 2 5 -1.3362 -0.0015
9 2 6 -0.7297 0.1138
9 2 7 2.7036 -0.0225
9 2 8 1.6856 -0.0256
9 2 9 -0.6646 0.0442
9 3 0 -1.2450 -0.0500
9 3 1 -3.1250 0.0225
9 3 2 -0.5218 -0.0474
9 3 3 0.7397 0.0225
9 3 5 -3.5471 0.0118
9 3 6 -1.1656 0.0590
9 3 7 0.3233 -0.0260
9 3 8 0.0328 -0.0374
9 4 0 -2.5071 -0.3168
9 4 1 -2.9402 -0.0159
9 4 2 1.2552 0.0309
9 4 3 1.8061 -0.0858
9 4 4 -2.0384 0.0096
9 4 5 -2.7576 0.0268
9 4 6 -0.6279 -0.0694
9 4 7 -0.3321 -0.0761
9 4 8 -0.6037 -0.0579
9 5 0 -4.4289 -0.4081
9 5 1 -1.3138 -0.0029
9 5 2 1.8112 0.0492
9 5 3 0.6545 -0.1411
9 5 4 -0.1170 0.0281
9 5 5 0.4144 0.0037
9 5 6 0.2588 -0.1325
9 6 0 -2.5016 -0.2168
9 6 1 -0.3173 0.0461
9 6 2 -0.2014 0.0227
9 6 3 -2.1358 -0.0643
9 6 4 -0.5039 0.0323
9 6 5 2.2048 -0.0423
9 6 6 1.9411 -0.0930
9 7 0 2.4313 0.0582
9 7 1 0.2406 0.0192
9 7 2 -1.9537 0.0176
9 7 3 -2.2732 0.0468
9 7 4 -0.9929 -0.0144
9 7 5 1.2465 -0.0600
9 8 0 2.9440 0.1913
9 8 1 -0.8396 -0.0338
9 8 2 -2.7923 0.0499
9 8 3 -0.9805 0.0783
9 9 0 0.8493 0.1767
9 9 1 -1.5162 0.0116
9 9 2 -2.3556 0.0620
9 10 0 0.9158 0.1196
9 10 1 -0.4020 0.0878
10 -17 0 -0.5563 0.1365
10 -17 1 -0.0277 0.0612
10 -17 2 1.3740 -0.0058
10 -17 3 0.6517 -0.0362
10 -17 4 -0.3364 -0.0828
10 -17 5 0.7482 -0.0032
10 -17 6 1.1316 0.1205
10 -16 0 -0.7036 -0.0015
10 -16 1 1.9973 0.0588
10 -16 2 1.5874 0.0161
10 -16 3 -0.1764 -0.0348
10 -16 4 0.9122 -0.0534
10 -16 5 1.3510 0.0175
10 -16 6 0.6708 0.0840
10 -16 7 1.0672 0.0281
10 -16 8 0.5115 -0.0098
10 -15 0 -0.8466 -0.1698
10 -15 1 2.6950 0.0761
10 -15 2 1.0320 0.0508
10 -15 3 -1.5216 -0.0706
10 -15 4 -0.0458 -0.0078
10 -15 5 -0.4012 0.0411
10 -15 6 -1.1266 0.0032
10 -15 7 0.5155 -0.0098
10 -15 8 0.2934 0.0080
10 -15 9 -0.8716 -0.0109
10 -14 0 -0.2090 -0.2423
10 -14 1 1.3522 0.0960
10 -14 2 0.2804 0.0188
10 -14 3 -0.3703 -0.0926
10 -14 4 -0.6535 0.0442
10 -14 5 -2.2989 0.0152
10 -14 6 -1.5428 -0.0403
10 -14 7 0.1564 0.0100
10 -14 8 -0.5885 0.0106
10 -14 9 -1.1821 -0.0034
10 -14 10 -0.2042 -0.0530
10 -13 0 0.7957 -0.1868
10 -13 1 -0.9685 0.0621
10 -13 2 -1.5598 -0.0343
10 -13 3 1.4225 -0.0410
10 -13 4 1.1183 0.0755
10 -13 5 -1.7996 -0.0261
10 -13 6 -0.3576 -0.0280
10 -13 7 1.3294 0.0520
10 -13 8 -0.9114 0.0090
10 -13 9 -2.1648 0.0262
10 -13 10 -0.3338 0.0205
10 -13 11 0.6922 -0.0234
10 -12 0 1.6222 -0.0341
10 -12 1 -2.4966 -0.0271
10 -12 2 -3.4267 -0.0164
10 -12 3 1.0124 0.0421
10 -12 4 2.6677 0.0458
10 -12 5 0.3352 -0.0319
10 -12 6 0.6813 -0.0203
10 -12 7 2.3065 0.0252
10 -12 8 0.6443 -0.0121
10 -12 9 -1.2967 0.0007
10 -12 10 -0.5479 0.0396
10 -12 11 -0.1044 0.0260
10 -11 0 2.0444 0.1131
10 -11 1 -2.0321 -0.1011
10 -11 2 -2.8312 0.0335
10 -11 3 0.2463 0.0622
10 -11 4 2.1455 -0.0152
10 -11 5 1.0663 -0.0076
10 -11 6 0.4260 -0.0242
10 -11 7 0.9427 -0.0177
10 -11 8 1.5914 -0.0195
10 -11 9 1.5487 -0.0352
10 -11 10 -1.1678 0.0130
10 -11 11 -2.8102 0.0480
10 -11 12 -0.3936 0.0414
10 -10 0 0.3694 0.1922
10 -10 1 -1.5187 -0.0969
10 -10 2 -1.4255 0.0233
10 -10 3 -0.5547 0.0372
10 -10 4 -0.2584 -0.0366
10 -10 5 -1.3171 0.0036
10 -10 6 -2.1192 0.0007
10 -10 7 -2.3714 0.0040
10 -10 8 -0.4832 0.0058
10 -10 9 1.5028 -0.0244
10 -10 10 -3.1222 0.0023
10 -10 11 -6.5533 0.0358
10 -10 12 -1.6059 0.0332
10 -9 0 -1.3576 0.2221
10 -9 1 -1.2276 -0.0456
10 -9 2 -0.2643 -0.0471
10 -9 3 -1.4226 0.0376
10 -9 4 -2.1858 -0.0372
10 -9 5 -2.7261 -0.0197
10 -9 6 -3.3665 0.0441
10 -9 7 -2.9030 0.0206
10 -9 8 -0.6981 0.0098
10 -9 9 0.0395 -0.0154
10 -9 10 -3.8988 -0.0303
10 -9 11 -6.4171 -0.0094
10 -9 12 -3.1630 -0.0230
10 -8 0 0.1452 0.1709
10 -8 1 0.6642 -0.0104
10 -8 2 1.2217 -0.0800
10 -8 3 -1.0291 0.0457
10 -8 4 -2.0953 -0.0609
10 -8 5 -1.2677 -0.0316
10 -8 6 -1.0594 0.0706
10 -8 7 0.3467 -0.0186
10 -8 8 2.5756 -0.0050
10 -8 9 1.1468 -0.0052
10 -8 10 -2.0252 -0.0602
10 -8 11 -2.8777 -0.0126
10 -8 12 -2.1906 -0.0441
10 -7 0 1.3232 -0.0135
10 -7 1 2.1438 0.0253
10 -7 2 0.8776 -0.0169
10 -7 3 -0.9862 0.0034
10 -7 4 -1.3038 -0.0525
10 -7 5 -0.8896 0.0038
10 -7 6 -0.1982 0.0493
10 -7 7 1.6930 -0.0440
10 -7 8 2.7825 0.0024
10 -7 9 1.0916 0.0347
10 -7 10 -1.4486 -0.0247
10 -7 11 -2.3124 0.0352
10 -6 0 -0.3784 -0.2414
10 -6 1 0.5009 0.1036
10 -6 2 -1.2637 0.0651
10 -6 3 -1.8124 -0.0702
10 -6 4 -0.3228 0.0387
10 -6 5 -1.1048 0.0416
10 -6 6 -1.4199 -0.0159
10 -6 7 0.4396 -0.0073
10 -6 8 0.1317 0.0110
10 -6 9 -1.4525 0.0491
10 -6 10 -2.9659 0.0287
10 -5 0 -1.8875 -0.3451
10 -5 1 -3.8441 0.1531
10 -5 2 -3.4167 0.0684
10 -5 3 -1.8958 -0.0963
10 -5 4 -0.6945 0.1245
10 -5 5 -1.1438 0.0284
10 -5 6 -1.2406 -0.0654
10 -5 7 -0.1175 0.0521
10 -5 8 -0.6071 0.0000
10 -5 9 -2.4592 0.0095
10 -5 10 -3.5664 0.0430
10 -4 0 -1.1841 -0.2636
10 -4 1 -6.2046 0.0595
10 -4 3 -0.8605 -0.0580
10 -4 4 -2.6072 0.0888
10 -4 5 -3.2459 -0.0238
10 -4 6 -0.9645 -0.0772
10 -4 7 -0.0005 0.0571
10 -4 8 -0.4474 -0.0204
10 -4 9 -1.9877 -0.0470
10 -4 10 -2.9319 0.0135
10 -4 11 -1.3381 -0.0529
10 -3 0 0.2112 -0.0377
10 -3 1 -2.7486 -0.0945
10 -3 2 -2.1888 -0.0069
10 -3 3 -0.0632 -0.0036
10 -3 4 -2.5202 -0.0166
10 -3 5 -4.1625 -0.0430
10 -3 6 -1.4256 -0.0662
10 -3 7 0.6825 0.0096
10 -3 8 -0.1481 -0.0234
10 -3 9 -1.6799 -0.0734
10 -3 10 -1.5910 -0.0359
10 -2 0 -1.0245 0.2413
10 -2 1 0.5385 -0.1213
10 -2 2 -0.8471 0.0233
10 -2 3 -2.3070 0.0476
10 -2 4 -1.7160 -0.0575
10 -2 5 -2.0818 -0.0008
10 -2 6 -1.1576 -0.0105
10 -2 7 1.7784 -0.0029
10 -2 8 0.8165 0.0223
10 -2 9 -1.3838 -0.0285
10 -2 10 -0.0440 -0.0413
10 -1 0 -3.2735 0.4239
10 -1 1 -0.4083 -0.0550
10 -1 2 -2.3800 -0.0043
10 -1 3 -4.5366 0.0919
10 -1 4 -1.6520 -0.0431
10 -1 5 -0.5988 0.0236
10 -1 6 -0.1489 0.0689
10 -1 7 2.5948 0.0081
10 -1 8 1.1257 0.0575
10 -1 9 -1.4622 0.0434
10 -1 10 0.3640 -0.0031
10 0 0 -2.5750 0.4055
10 0 1 -0.3614 -0.0360
10 0 2 -1.5431 -0.0936
10 0 3 -1.5322 0.1045
10 0 5 0.0725 -0.0067
10 0 6 0.7748 0.1083
10 0 7 3.1232 -0.0277
10 0 8 1.1675 -0.0001
10 0 9 -1.4784 0.0483
10 1 0 -1.7395 0.1896
10 1 1 0.6713 -0.0329
10 1 2 1.8951 -0.0981
10 1 3 1.8185 0.0606
10 1 5 0.6726 -0.0248
10 1 6 0.8225 0.0891
10 1 7 2.0654 -0.0580
10 1 8 1.3425 -0.0809
10 2 0 -2.1981 -0.1449
10 2 1 0.1736 0.0136
10 2 2 3.6000 -0.0059
10 2 3 1.2862 -0.0349
10 2 4 -1.0618 -0.0183
10 2 5 0.4381 -0.0175
10 2 6 0.7694 0.0035
10 2 7 0.0233 -0.0500
10 2 8 0.3878 -0.0899
10 3 0 -2.2640 -0.3854
10 3 1 -0.2230 0.0508
10 3 2 2.7278 0.0544
10 3 3 0.4352 -0.0957
10 3 4 -1.4495 0.0409
10 3 5 0.4949 -0.0113
10 3 6 1.4151 -0.0995
10 3 7 -0.0730 -0.0668
10 4 0 -3.9917 -0.3285
10 4 1 -1.6073 0.0386
10 4 2 0.0789 0.0681
10 4 3 -0.1843 -0.0427
10 4 4 0.2890 0.0635
10 4 5 1.1804 0.0090
10 4 6 1.6711 -0.1118
10 5 0 -5.0474 -0.0911
10 5 1 -3.3048 -0.0088
10 5 2 -1.1787 0.0795
10 5 3 -0.8244 0.0293
10 5 4 -0.4343 0.0158
10 5 5 0.8951 0.0138
10 6 0 -2.1281 0.0727
10 6 1 -2.4831 -0.0337
10 6 2 0.2445 0.0604
10 6 3 0.3797 0.0099
10 6 4 -1.7334 -0.0459
10 7 0 0.2839 0.1538
10 7 1 -1.3655 0.0236
10 7 2 0.4809 -0.0025
10 7 3 1.6748 -0.0219
10 8 0 0.4645 0.2244
10 8 1 -1.2149 0.0897
10 8 2 -0.8088 -0.0633
10 9 0 0.7759 0.2136
11 -16 0 -0.4906 -0.1179
11 -16 1 0.7738 0.0627
11 -16 2 -0.5963 -0.0346
11 -16 3 -1.2000 -0.0459
11 -16 4 -0.1047 0.0868
11 -16 5 0.5389 0.0141
11 -16 6 0.4023 -0.0766
11 -15 0 0.4598 -0.0539
11 -15 1 0.7579 0.0918
11 -15 2 0.0778 -0.0456
11 -15 3 -0.1446 -0.0356
11 -15 4 0.2902 0.0762
11 -15 5 0.6814 0.0089
11 -15 6 0.1783 -0.0276
11 -15 7 -0.6077 0.0022
11 -15 8 -0.0268 -0.0019
11 -14 0 1.6523 0.0007
11 -14 1 0.9522 0.0452
11 -14 2 0.2740 -0.0425
11 -14 3 0.6999 -0.0298
11 -14 4 0.8039 0.0222
11 -14 5 0.7323 0.0035
11 -14 6 1.0942 0.0133
11 -14 7 0.5785 0.0227
11 -14 8 -0.1509 0.0095
11 -14 9 0.3570 0.0550
11 -13 0 1.9084 0.0464
11 -13 1 1.1220 -0.0267
11 -13 2 -0.7590 -0.0171
11 -13 3 -1.0342 -0.0208
11 -13 4 -0.2370 -0.0085
11 -13 5 0.5901 -0.0013
11 -13 6 2.2009 -0.0100
11 -13 7 2.4290 0.0093
11 -13 8 1.2840 0.0038
11 -13 9 1.1669 0.0211
11 -12 0 1.6084 0.1501
11 -12 1 2.0531 -0.0608
11 -12 2 0.0836 -0.0200
11 -12 3 -1.8499 0.0158
11 -12 4 -1.3138 -0.0103
11 -12 5 1.1933 -0.0169
11 -12 6 3.3455 -0.0142
11 -12 7 3.2653 0.0043
11 -12 8 3.4045 0.0051
11 -12 9 3.0482 0.0104
11 -12 10 -0.0194 0.0536
11 -11 0 0.0491 0.2812
11 -11 1 2.2484 -0.0620
11 -11 2 1.8967 -0.0354
11 -11 3 -0.4764 0.0832
11 -11 4 -0.9834 -0.0304
11 -11 5 1.1854 -0.0278
11 -11 6 2.8415 0.0475
11 -11 7 2.7336 0.0071
11 -11 8 3.2992 0.0177
11 -11 9 2.5311 0.0613
11 -11 10 -0.4448 0.0738
11 -10 0 -1.6662 0.3049
11 -10 1 0.9118 -0.0691
11 -10 2 1.7138 -0.0125
11 -10 3 0.0338 0.1221
11 -10 4 -0.1602 -0.0747
11 -10 5 0.2981 -0.0149
11 -10 6 0.7924 0.0782
11 -10 7 2.6294 -0.0476
11 -10 8 2.6146 -0.0087
11 -10 9 0.2122 0.0562
11 -10 10 -0.2790 0.0239
11 -9 0 -0.3355 0.1196
11 -9 1 0.7430 -0.0503
11 -9 2 0.5968 0.0199
11 -9 3 -0.6843 0.0645
11 -9 4 -0.1803 -0.0698
11 -9 5 -0.3935 0.0201
11 -9 6 -0.2349 0.0391
11 -9 7 3.0142 -0.0967
11 -9 8 2.9959 -0.0354
11 -9 9 -0.1679 0.0069
11 -9 10 0.3337 -0.0461
11 -8 0 1.9557 -0.1936
11 -8 2 0.0678 0.0187
11 -8 3 -1.1092 -0.0435
11 -8 4 -1.2339 0.0196
11 -8 5 -1.7105 0.0341
11 -8 6 -0.5230 -0.0065
11 -8 7 1.7317 -0.0415
11 -8 8 1.3577 -0.0133
11 -8 9 -0.2183 0.0124
11 -8 10 -0.4589 -0.0196
11 -7 0 2.2279 -0.4090
11 -7 1 2.7299 0.1278
11 -7 2 1.0432 0.0004
11 -7 3 -0.0829 -0.0977
11 -7 4 -1.1182 0.1018
11 -7 5 -1.4523 -0.0003
11 -7 6 0.4531 -0.0359
11 -7 7 0.9828 0.0497
11 -7 8 -0.7278 0.0052
11 -7 9 -1.3431 0.0270
11 -6 0 1.8412 -0.3895
11 -6 1 1.0931 0.0921
11 -6 2 2.4851 0.0064
11 -6 3 1.1924 -0.0886
11 -6 4 -0.8175 0.0832
11 -6 5 1.0497 -0.0260
11 -6 6 3.2236 -0.0577
11 -6 7 2.2149 0.0759
11 -6 8 -0.1886 -0.0021
11 -6 9 -1.5004 -0.0222
11 -6 10 -0.8781 0.0342
11 -5 0 1.7035 -0.1889
11 -5 1 -0.6809 -0.0174
11 -5 3 1.3237 -0.0672
11 -5 4 -2.2560 0.0057
11 -5 5 1.1246 -0.0016
11 -5 6 4.1000 -0.0679
11 -5 7 2.0112 0.0434
11 -5 8 -0.2265 0.0010
11 -5 9 -0.9902 -0.0956
11 -5 10 -0.4300 -0.0513
11 -4 0 0.5912 0.0950
11 -4 1 0.7191 -0.0698
11 -4 2 2.8439 0.0428
11 -4 3 1.7881 -0.0189
11 -4 4 -1.7214 -0.0249
11 -4 5 -0.7859 0.0310
11 -4 6 1.7582 -0.0457
11 -4 7 0.4592 0.0077
11 -4 8 -1.5415 0.0256
11 -4 9 -0.7308 -0.1001
11 -3 0 -2.0993 0.3711
11 -3 1 0.6649 -0.0591
11 -3 2 1.6890 -0.0118
11 -3 3 1.3446 0.0756
11 -3 4 0.3207 -0.0169
11 -3 5 -1.5510 0.0256
11 -3 6 -1.0075 0.0267
11 -3 7 -0.3093 0.0005
11 -3 8 -1.5822 0.0660
11 -3 9 -0.6397 0.0030
11 -2 0 -2.1904 0.4860
11 -2 1 -4.1506 -0.0786
11 -2 2 -2.7227 -0.0782
11 -2 3 -0.5789 0.1409
11 -2 4 0.0072 -0.0576
11 -2 5 -1.8015 -0.0142
11 -2 6 -1.8068 0.0884
11 -2 7 -0.4659 -0.0165
11 -2 8 -1.1956 0.0796
11 -2 9 -1.1114 0.1150
11 -1 0 2.2947 0.3468
11 -1 1 -6.9342 -0.0948
11 -1 2 -5.4773 -0.0707
11 -1 3 -0.3446 0.1128
11 -1 4 0.2289 -0.0981
11 -1 5 -0.9640 -0.0321
11 -1 6 -0.5327 0.0692
11 -1 7 0.0692 -0.0792
11 -1 8 -0.8505 0.0190
11 0 0 3.3827 0.0316
11 0 1 -5.9799 -0.0152
11 0 2 -4.6351 -0.0048
11 0 3 0.3158 0.0211
11 0 4 1.3842 -0.0392
11 0 5 0.7325 -0.0022
11 0 6 0.1343 0.0019
11 0 7 0.1015 -0.1272
11 0 8 -0.0186 -0.0641
11 1 0 -0.4878 -0.2859
11 1 1 -4.8980 0.0696
11 1 2 -3.0721 0.0194
11 1 3 -0.9876 -0.0702
11 1 4 0.0717 0.0463
11 1 5 0.5890 0.0163
11 1 6 -0.4788 -0.0640
11 1 7 -0.8359 -0.1173
11 2 0 -1.5734 -0.4022
11 2 1 -2.9953 0.0476
11 2 2 -1.6974 0.0196
11 2 3 -0.9964 -0.0929
11 2 4 -1.2257 0.0639
11 2 5 -0.9235 0.0293
11 2 6 -0.2375 -0.0953
11 3 0 -1.2727 -0.2482
11 3 1 -1.3780 -0.0008
11 3 2 -1.0726 0.0727
11 3 3 -0.1254 -0.0456
11 3 4 -0.6562 0.0484
11 3 5 -1.3848 0.0882
11 4 0 -2.7736 -0.0061
11 4 1 -0.9302 0.0090
11 4 2 0.1747 0.0958
11 4 3 -0.1639 -0.0231
11 4 4 -0.7684 0.0206
11 5 0 -2.2497 0.1482
11 5 1 0.6371 0.0320
11 5 2 3.0474 0.0039
11 5 3 0.8189 -0.0324
11 6 0 0.0711 0.2031
11 6 1 1.8591 0.0021
11 6 2 3.6362 -0.0979
11 7 0 1.3150 0.1408
11 7 1 1.1051 -0.0851
12 -15 0 1.1893 0.0488
12 -15 1 0.4801 0.0357
12 -15 2 -0.9125 -0.0216
12 -15 3 0.2044 -0.0240
12 -15 4 3.4154 0.0505
12 -15 5 3.3085 0.0424
12 -14 0 0.7496 0.0617
12 -14 1 -0.1508 0.0115
12 -14 2 -1.4246 -0.0032
12 -14 3 -0.1674 0.0008
12 -14 4 1.7863 0.0366
12 -14 5 1.1849 0.0118
12 -14 6 -0.3157 -0.0453
12 -13 0 -0.1951 0.1426
12 -13 1 -0.5230 -0.0573
12 -13 2 -0.8013 0.0001
12 -13 3 -1.4368 0.0655
12 -13 4 -2.0346 0.0029
12 -13 5 -1.5570 -0.0088
12 -13 6 -1.1179 -0.0200
12 -13 7 -1.5512 -0.0120
12 -12 0 -1.1434 0.1795
12 -12 1 -0.5179 -0.1150
12 -12 2 0.6247 0.0071
12 -12 3 -1.2301 0.0730
12 -12 4 -3.7592 -0.0627
12 -12 5 -2.6130 0.0015
12 -12 6 -0.6733 0.0175
12 -12 7 -0.9160 -0.0146
12 -12 8 -1.4001 0.1137
12 -11 0 -1.2718 0.0919
12 -11 1 -0.7938 -0.0803
12 -11 2 0.8627 0.0334
12 -11 3 -0.0483 0.0093
12 -11 4 -2.1081 -0.0918
12 -11 5 -1.9818 0.0255
12 -11 6 -0.3579 0.0156
12 -11 7 0.0885 -0.0346
12 -11 8 -1.0245 0.1169
12 -10 0 1.2120 -0.0461
12 -10 1 -0.1748 0.0327
12 -10 2 0.7741 0.0117
12 -10 3 1.1121 -0.0547
12 -10 4 0.4822 -0.0260
12 -10 5 -0.3398 0.0431
12 -10 6 -0.5673 0.0112
12 -10 7 0.4185 -0.0195
12 -10 8 0.9371 0.0815
12 -10 9 0.9905 0.1204
12 -9 0 3.1305 -0.1550
12 -9 1 0.4942 0.1432
12 -9 2 0.6041 -0.0434
12 -9 3 1.0923 -0.0833
12 -9 4 0.5588 0.0643
12 -9 5 -0.3932 0.0329
12 -9 6 -1.5806 0.0093
12 -9 7 -1.0325 0.0252
12 -9 8 1.1672 0.0493
12 -9 9 1.4175 0.0808
12 -8 1 -0.0508 0.1622
12 -8 2 0.7312 -0.0227
12 -8 3 0.6028 -0.0955
12 -8 4 -0.3926 0.0853
12 -8 5 -1.2270 -0.0023
12 -8 6 -1.9316 -0.0561
12 -8 7 -1.8227 0.0213
12 -8 8 -0.7478 -0.0088
12 -7 0 -1.8636 -0.2491
12 -7 1 -1.2357 0.0819
12 -7 2 1.6888 0.0550
12 -7 3 0.6073 -0.0984
12 -7 4 -0.5633 0.0630
12 -7 5 -0.0662 -0.0090
12 -7 6 -0.2063 -0.1312
12 -7 7 -0.6918 0.0034
12 -7 8 -1.3469 -0.0468
12 -6 0 -2.9957 -0.0838
12 -6 1 -2.3816 -0.0113
12 -6 2 1.8681 0.0641
12 -6 3 0.4217 -0.0563
12 -6 4 -1.6116 0.0442
12 -6 5 0.7256 0.0162
12 -6 6 1.2279 -0.0963
12 -6 7 -0.7861 0.0341
12 -6 8 -1.2823 -0.0074
12 -5 0 -5.3894 0.2320
12 -5 1 -3.0653 -0.0777
12 -5 2 1.5783 -0.0100
12 -5 3 1.0837 0.0575
12 -5 4 -1.5199 0.0063
12 -5 5 0.2586 0.0194
12 -5 6 1.0418 0.0254
12 -5 7 -1.5745 0.0468
12 -5 8 -1.4169 0.0415
12 -4 0 -11.5073 0.4730
12 -4 1 -5.5833 -0.1414
12 -4 2 1.2950 -0.0707
12 -4 3 1.7799 0.1619
12 -4 4 0.2013 -0.0621
12 -4 5 0.3110 0.0012
12 -4 6 0.0503 0.1124
12 -4 7 -1.0951 -0.0083
12 -4 8 -0.6566 0.0379
12 -3 0 -13.7120 0.4283
12 -3 1 -8.7119 -0.1555
12 -3 2 0.6989 -0.0659
12 -3 3 0.8712 0.1356
12 -3 4 -0.2994 -0.1141
12 -3 5 0.1684 -0.0179
12 -3 6 -0.8297 0.0894
12 -3 7 -0.8876 -0.0757
12 -2 0 -4.7104 0.1567
12 -2 1 -5.4573 -0.0417
12 -2 2 1.5371 -0.0225
12 -2 3 0.8499 0.0219
12 -2 4 -1.1889 -0.0802
12 -2 5 0.1392 -0.0294
12 -2 6 -0.1999 -0.0030
12 -2 7 -0.7649 -0.1052
12 -1 0 4.9429 -0.1208
12 -1 1 1.0124 0.1073
12 -1 2 2.2261 0.0056
12 -1 3 1.2123 -0.0491
12 -1 4 -0.2150 0.0210
12 -1 5 0.8195 -0.0084
12 -1 6 0.8381 -0.0578
12 -1 7 -0.1317 -0.0919
12 0 0 5.0077 -0.2938
12 0 1 1.7534 0.1084
12 0 2 0.5243 0.0081
12 0 3 0.0528 -0.0727
12 0 4 -0.2932 0.0696
12 0 5 0.4879 0.0330
12 0 6 0.6635 -0.0593
12 1 0 2.3477 -0.3288
12 1 1 -1.0029 0.0059
12 1 2 -1.0662 0.0427
12 1 3 0.0294 -0.0784
12 1 4 -1.2477 0.0551
12 1 5 -1.0180 0.0668
12 2 0 1.6729 -0.2009
12 2 1 -2.4993 -0.0176
12 2 2 -2.0460 0.0932
12 2 3 0.5730 -0.0396
12 2 4 -0.8627 0.0702
12 3 0 0.4666 0.0080
12 3 1 -3.0761 0.0148
12 3 2 -2.9565 0.0518
12 3 3 -0.6303 0.0279
12 4 0 -0.2329 0.1624
12 4 1 -2.8080 -0.0209
12 4 2 -2.0657 -0.0444
12 5 0 0.0331 0.1728
12 5 1 -1.9758 -0.1003
12 6 0 0.1034 0.0355
13 -14 0 -0.3918 0.0176
13 -14 1 0.0622 -0.0607
13 -14 2 0.8255 0.0521
13 -14 3 0.0850 0.0708
13 -14 4 -0.2281 -0.0028
13 -13 0 -0.1595 0.0447
13 -13 1 0.3536 -0.0783
13 -13 2 1.5907 0.0148
13 -13 3 0.0927 0.0581
13 -13 4 -1.3919 -0.0053
13 -13 5 -0.8012 -0.0374
13 -12 0 -1.0056 0.0208
13 -12 1 -0.6622 0.0002
13 -12 2 0.6426 0.0069
13 -12 3 -0.6786 0.0363
13 -12 4 -2.1200 0.0058
13 -12 5 -1.1167 -0.0454
13 -12 6 0.2245 -0.0409
13 -11 0 -1.5543 -0.0523
13 -11 1 -1.0924 0.0721
13 -11 2 0.3750 0.0160
13 -11 3 -0.7626 0.0238
13 -11 4 -1.1096 0.0190
13 -11 5 0.1564 -0.0249
13 -11 6 0.3973 0.0262
13 -10 0 -1.5729 -0.1669
13 -10 1 -0.3701 0.0980
13 -10 2 1.2633 0.0007
13 -10 3 -0.1923 -0.0419
13 -10 4 -0.4536 0.0319
13 -10 5 0.4928 0.0038
13 -10 6 0.1892 0.0575
13 -10 7 1.1071 0.1477
13 -9 0 -2.5356 -0.2928
13 -9 1 -0.0643 0.1169
13 -9 2 1.8735 0.0033
13 -9 3 0.7574 -0.1326
13 -9 4 -0.4257 0.0595
13 -9 5 -0.7813 0.0038
13 -9 6 0.0076 -0.0214
13 -9 7 1.1892 0.1259
13 -8 0 -3.2395 -0.2877
13 -8 1 -0.7245 0.0726
13 -8 2 2.0017 0.0198
13 -8 3 2.0984 -0.1204
13 -8 4 0.7082 0.0850
13 -8 5 -0.5164 -0.0040
13 -7 0 -1.8170 -0.0305
13 -7 1 -1.6589 -0.0570
13 -7 2 0.7964 0.0078
13 -7 3 1.8454 0.0084
13 -7 4 0.9227 0.0330
13 -7 5 0.2612 -0.0069
13 -7 6 0.1397 -0.0305
13 -6 0 0.5843 0.3198
13 -6 1 -0.6368 -0.1532
13 -6 2 -0.8311 0.0029
13 -6 3 0.3846 0.1326
13 -6 4 0.4894 -0.0854
13 -6 5 0.0450 -0.0184
13 -6 6 -0.9656 0.0594
13 -5 0 -0.0849 0.4613
13 -5 1 1.0165 -0.1327
13 -5 2 -1.4474 0.0047
13 -5 3 -0.9683 0.1506
13 -5 4 1.4234 -0.1278
13 -5 5 0.5987 -0.0186
13 -5 6 -0.9768 0.0946
13 -4 0 -2.5245 0.3214
13 -4 1 0.5380 -0.0377
13 -4 2 -1.2459 -0.0506
13 -4 3 -2.1974 0.0652
13 -4 4 1.5736 -0.0569
13 -4 5 1.7050 -0.0134
13 -4 6 -0.5716 0.0744
13 -3 0 0.0956 0.0724
13 -3 1 1.3988 0.0557
13 -3 2 0.5628 -0.0950
13 -3 3 -1.1948 -0.0169
13 -3 4 0.8700 0.0160
13 -3 5 2.1648 -0.0228
13 -2 0 4.3842 -0.1634
13 -2 1 3.7825 0.0831
13 -2 2 2.1435 -0.0214
13 -2 3 0.8644 -0.0375
13 -2 4 0.9416 0.0309
13 -2 5 1.8916 -0.0063
13 -1 0 2.6435 -0.3654
13 -1 1 2.3179 0.0369
13 -1 2 1.0736 0.0870
13 -1 3 0.4481 -0.0706
13 -1 4 0.3273 0.0140
13 0 0 -0.5542 -0.4129
13 0 1 -0.9989 0.0100
13 0 2 0.1640 0.1033
13 0 3 -0.1127 -0.1087
13 0 4 -0.6516 0.0143
13 1 0 0.0160 -0.2054
13 1 1 -1.2711 0.0318
13 1 2 0.6570 0.0324
13 1 3 0.8149 -0.0491
13 2 0 1.5252 0.0786
13 2 1 0.3046 -0.0139
13 2 2 0.5721 -0.0655
13 3 0 1.9940 0.2021
13 3 1 0.9363 -0.1331
13 4 0 1.4093 0.1574
14 -13 0 0.5720 -0.0212
14 -13 1 0.1615 -0.0664
14 -12 0 -0.8902 -0.1170
14 -12 1 -0.0600 -0.0176
14 -12 2 0.1619 0.0242
14 -12 3 -1.5118 0.0757
14 -11 0 -2.2009 -0.2151
14 -11 1 -0.3407 0.0272
14 -11 2 -0.4777 0.0177
14 -11 3 -3.0726 0.0141
14 -11 4 -2.7155 0.0683
14 -10 0 -2.3646 -0.2186
14 -10 1 -0.7655 0.0823
14 -10 2 -0.8869 -0.0191
14 -10 3 -2.8986 -0.0466
14 -10 4 -3.2197 0.0723
14 -9 0 -1.6314 -0.1048
14 -9 1 -1.5085 0.0364
14 -9 2 -0.6822 -0.0145
14 -9 3 -0.7612 -0.0348
14 -9 4 -1.4804 0.0460
14 -8 0 -1.2696 0.1298
14 -8 1 -3.4916 -0.1054
14 -8 2 -1.7470 0.0047
14 -8 3 0.3255 0.0269
14 -7 0 -0.4649 0.3735
14 -7 1 -4.0919 -0.1400
14 -7 2 -3.1635 0.0045
14 -7 3 0.1957 0.0938
14 -6 0 0.6554 0.4178
14 -6 1 -1.6512 -0.0562
14 -6 2 -2.4524 -0.0388
14 -6 3 0.2606 0.1393
14 -6 4 -0.5457 -0.0613
14 -5 0 0.1360 0.2339
14 -5 1 -0.3108 -0.0233
14 -5 2 -0.9438 -0.1091
14 -5 3 -0.7358 0.1094
14 -5 4 -0.9554 -0.0203
14 -4 0 0.1599 -0.0235
14 -4 1 -0.5796 -0.0255
14 -4 2 0.5692 -0.0717
14 -4 3 -1.0480 0.0197
14 -4 4 -1.5799 -0.0171
14 -3 0 1.3227 -0.2554
14 -3 1 0.2793 0.0324
14 -3 2 1.7818 0.0903
14 -3 3 0.7347 -0.0340
14 -2 0 0.2635 -0.3920
14 -2 1 0.7798 0.0713
14 -2 2 1.0493 0.1401
14 -2 3 1.0826 -0.0408
14 -1 0 -1.0904 -0.2961
14 -1 1 0.0046 0.0113
14 -1 2 -0.4102 -0.0083
14 0 0 0.0752 -0.0044
14 0 1 -0.3862 -0.0866
14 0 2 -0.9827 -0.1448
14 1 0 1.4532 0.1967
14 1 1 -0.0076 -0.1502
14 2 0 1.5490 0.1916
15 -10 0 1.7065 -0.0502
15 -10 1 0.6276 -0.0312
15 -9 0 2.3096 0.0417
15 -9 1 0.6831 -0.0572
15 -8 0 1.9796 0.2507
15 -8 1 0.4221 -0.0301
15 -8 2 -0.1129 0.1106
15 -7 0 1.3413 0.3017
15 -7 1 1.8600 -0.0107
15 -7 2 1.4330 0.0370
15 -6 0 -0.6243 0.0728
15 -6 1 2.7300 -0.0486
15 -6 2 2.3123 -0.0125
15 -5 0 -1.9126 -0.1837
15 -5 1 1.3855 -0.0056
15 -5 2 1.3273 0.0257
15 -4 0 -0.4567 -0.2758
15 -4 1 0.2097 0.1160
15 -3 0 0.5518 -0.2391
15 -3 1 -0.0138 0.0938
15 -2 0 -0.1138 -0.1109
0 0 0 0.0 0.0
;
_shelx_fab_checksum              89263
_olex2_date_sample_data_collection 2019-09-16
_olex2_date_sample_submission    2019-09-15
_olex2_diffrn_ambient_temperature_device 'Oxford Cryosystems'
_olex2_exptl_crystal_mounting_method
'The crystal was mounted on a MITIGEN holder with Paratone oil'
_olex2_submission_original_sample_id cx1631
_olex2_submission_special_instructions 'No special instructions were received'
loop_
_space_group_symop_operation_xyz
'x, y, z'
'-x, -y, -z'
loop_
_atom_site_label
_atom_site_type_symbol
_atom_site_fract_x
_atom_site_fract_y
_atom_site_fract_z
_atom_site_U_iso_or_equiv
_atom_site_adp_type
_atom_site_occupancy
_atom_site_site_symmetry_order
_atom_site_calc_flag
_atom_site_refinement_flags_posn
_atom_site_refinement_flags_adp
_atom_site_refinement_flags_occupancy
_atom_site_disorder_assembly
_atom_site_disorder_group
N1 N 0.4708(4) 0.4231(4) 0.7601(3) 0.0413(12) Uani 1 1 d . . . . .
N2 N 0.5047(3) 0.7630(3) 0.4459(3) 0.0376(11) Uani 1 1 d . . . . .
N3 N -0.1842(4) 0.4236(4) 0.0684(3) 0.0399(12) Uani 1 1 d . . . . .
N4 N -0.2457(4) 0.0664(3) 0.3603(3) 0.0438(12) Uani 1 1 d . . . . .
C1 C 0.3508(4) 0.4550(4) 0.5454(3) 0.0333(12) Uani 1 1 d . . . . .
C2 C 0.4065(4) 0.5188(4) 0.5309(3) 0.0340(13) Uani 1 1 d . . . . .
H2 H 0.473588 0.549327 0.565220 0.041 Uiso 1 1 calc R . . . .
C3 C 0.3643(4) 0.5377(4) 0.4665(3) 0.0350(13) Uani 1 1 d . . . . .
C4 C 0.2634(4) 0.4904(4) 0.4159(3) 0.0360(13) Uani 1 1 d . . . . .
H4 H 0.234242 0.502396 0.372254 0.043 Uiso 1 1 calc R . . . .
C5 C 0.2048(4) 0.4264(4) 0.4280(3) 0.0358(13) Uani 1 1 d . . . . .
C6 C 0.2502(4) 0.4083(4) 0.4928(3) 0.0346(12) Uani 1 1 d . . . . .
H6 H 0.213210 0.364590 0.501275 0.042 Uiso 1 1 calc R . . . .
C7 C 0.3957(4) 0.4428(4) 0.6199(3) 0.0357(13) Uani 1 1 d . . . . .
C8 C 0.3594(4) 0.3642(4) 0.6233(3) 0.0377(13) Uani 1 1 d . . . . .
H8 H 0.309794 0.318134 0.578134 0.045 Uiso 1 1 calc R . . . .
C9 C 0.3983(5) 0.3558(4) 0.6951(4) 0.0434(14) Uani 1 1 d . . . . .
H9 H 0.374625 0.304062 0.698424 0.052 Uiso 1 1 calc R . . . .
C10 C 0.5086(4) 0.4981(5) 0.7577(4) 0.0417(15) Uani 1 1 d . . . . .
H10 H 0.559754 0.542674 0.803120 0.050 Uiso 1 1 calc R . . . .
C11 C 0.4716(4) 0.5093(4) 0.6877(3) 0.0400(14) Uani 1 1 d . . . . .
H11 H 0.497663 0.561587 0.686055 0.048 Uiso 1 1 calc R . . . .
C12 C 0.5030(4) 0.4167(5) 0.8397(3) 0.0429(15) Uani 1 1 d . . . . .
H12A H 0.573840 0.450052 0.871120 0.052 Uiso 1 1 calc R . . . .
H12B H 0.493758 0.357641 0.831582 0.052 Uiso 1 1 calc R . . . .
C13 C 0.4386(4) 0.4508(5) 0.8837(3) 0.0430(16) Uani 1 1 d . . . . .
C14 C 0.3541(5) 0.3942(5) 0.8796(4) 0.0453(15) Uani 1 1 d . . . . .
H14 H 0.338781 0.335613 0.852747 0.054 Uiso 1 1 calc R . . . .
C15 C 0.2917(5) 0.4256(5) 0.9160(4) 0.0505(17) Uani 1 1 d . . . . .
H15 H 0.234363 0.387902 0.913153 0.061 Uiso 1 1 calc R . . . .
C16 C 0.3149(4) 0.5116(5) 0.9558(3) 0.0405(14) Uani 1 1 d . . . . .
C17 C 0.4013(5) 0.5692(4) 0.9623(3) 0.0411(14) Uani 1 1 d . . . . .
H17 H 0.417730 0.627811 0.990115 0.049 Uiso 1 1 calc R . . . .
C18 C 0.4631(4) 0.5359(5) 0.9254(3) 0.0443(15) Uani 1 1 d . . . . .
H18 H 0.521892 0.573020 0.929693 0.053 Uiso 1 1 calc R . . . .
C19 C 0.4200(4) 0.6116(4) 0.4563(3) 0.0369(13) Uani 1 1 d . . . . .
C20 C 0.5038(4) 0.6757(4) 0.5186(3) 0.0402(14) Uani 1 1 d . . . . .
H20 H 0.533421 0.668512 0.565161 0.048 Uiso 1 1 calc R . . . .
C21 C 0.5435(4) 0.7499(4) 0.5122(4) 0.0430(15) Uani 1 1 d . . . . .
H21 H 0.599367 0.792742 0.555241 0.052 Uiso 1 1 calc R . . . .
C22 C 0.4279(4) 0.6979(4) 0.3816(3) 0.0386(14) Uani 1 1 d . . . . .
H22 H 0.403622 0.705027 0.334168 0.046 Uiso 1 1 calc R . . . .
C23 C 0.3844(4) 0.6217(4) 0.3838(3) 0.0357(13) Uani 1 1 d . . . . .
H23 H 0.332609 0.577620 0.338499 0.043 Uiso 1 1 calc R . . . .
C24 C 0.5314(5) 0.8505(4) 0.4492(4) 0.0397(13) Uani 1 1 d . . . . .
H24A H 0.511035 0.848569 0.395295 0.048 Uiso 1 1 calc R . . . .
H24B H 0.603728 0.879534 0.476676 0.048 Uiso 1 1 calc R . . . .
C25 C 0.4767(4) 0.8963(4) 0.4940(3) 0.0354(12) Uani 1 1 d . . . . .
C26 C 0.5212(4) 0.9389(4) 0.5759(3) 0.0399(13) Uani 1 1 d . . . . .
H26 H 0.587420 0.943844 0.602880 0.048 Uiso 1 1 calc R . . . .
C27 C 0.4668(5) 0.9752(4) 0.6192(4) 0.0438(14) Uani 1 1 d . . . . .
H27 H 0.497134 1.004886 0.674823 0.053 Uiso 1 1 calc R . . . .
C28 C 0.3684(4) 0.9667(4) 0.5791(4) 0.0401(13) Uani 1 1 d . . . . .
C29 C 0.3245(5) 0.9266(4) 0.4971(4) 0.0447(14) Uani 1 1 d . . . . .
H29 H 0.259379 0.924339 0.470212 0.054 Uiso 1 1 calc R . . . .
C30 C -0.0478(4) 0.3524(4) 0.2542(3) 0.0362(13) Uani 1 1 d . . . . .
C31 C -0.0669(4) 0.2691(4) 0.3307(3) 0.0351(13) Uani 1 1 d . . . . .
C32 C -0.1058(4) 0.2898(4) 0.2664(3) 0.0382(14) Uani 1 1 d . . . . .
H32 H -0.172593 0.260470 0.230898 0.046 Uiso 1 1 calc R . . . .
C33 C 0.0957(4) 0.3783(4) 0.3724(3) 0.0362(13) Uani 1 1 d . . . . .
C34 C -0.0916(4) 0.3765(4) 0.1869(3) 0.0371(13) Uani 1 1 d . . . . .
C35 C -0.1295(4) 0.1989(4) 0.3416(3) 0.0390(14) Uani 1 1 d . . . . .
C36 C -0.0560(4) 0.4584(4) 0.1937(3) 0.0400(14) Uani 1 1 d . . . . .
H36 H -0.000057 0.498227 0.238745 0.048 Uiso 1 1 calc R . . . .
C37 C 0.3778(5) 0.8888(4) 0.4534(4) 0.0410(13) Uani 1 1 d . . . . .
H37 H 0.347089 0.859016 0.397805 0.049 Uiso 1 1 calc R . . . .
C38 C 0.0524(4) 0.3963(4) 0.3068(3) 0.0361(13) Uani 1 1 d . . . . .
H38 H 0.091515 0.438614 0.297963 0.043 Uiso 1 1 calc R . . . .
C39 C 0.0341(4) 0.3140(4) 0.3831(3) 0.0366(13) Uani 1 1 d . . . . .
H39 H 0.060913 0.300666 0.426384 0.044 Uiso 1 1 calc R . . . .
C40 C -0.2169(5) 0.3441(5) 0.0589(3) 0.0443(15) Uani 1 1 d . . . . .
H40 H -0.271634 0.305093 0.012477 0.053 Uiso 1 1 calc R . . . .
C41 C 0.3107(5) 1.0047(4) 0.6287(4) 0.0467(15) Uani 1 1 d . . . . .
H41A H 0.357801 1.048667 0.680697 0.056 Uiso 1 1 calc R . . . .
H41B H 0.268649 1.030357 0.601270 0.056 Uiso 1 1 calc R . . . .
C42 C -0.1023(4) 0.4826(5) 0.1343(4) 0.0428(14) Uani 1 1 d . . . . .
H42 H -0.077959 0.538272 0.139190 0.051 Uiso 1 1 calc R . . . .
C43 C -0.1725(4) 0.3165(5) 0.1161(4) 0.0455(15) Uani 1 1 d . . . . .
H43 H -0.195655 0.259472 0.107923 0.055 Uiso 1 1 calc R . . . .
C44 C -0.2411(4) 0.4544(4) 0.0110(3) 0.0391(13) Uani 1 1 d . . . . .
H44A H -0.277628 0.407824 -0.041825 0.047 Uiso 1 1 calc R . . . .
H44B H -0.194947 0.499352 0.006470 0.047 Uiso 1 1 calc R . . . .
C45 C -0.2891(5) 0.0959(5) 0.3073(4) 0.063(2) Uani 1 1 d . . . . .
H45 H -0.358014 0.070949 0.276533 0.075 Uiso 1 1 calc R . . . .
C46 C -0.2338(5) 0.1620(5) 0.2978(4) 0.0569(18) Uani 1 1 d . . . . .
H46 H -0.265606 0.182657 0.261983 0.068 Uiso 1 1 calc R . . . .
C47 C -0.1472(5) 0.1013(5) 0.4045(5) 0.0563(18) Uani 1 1 d . . . . .
H47 H -0.117640 0.080669 0.441282 0.068 Uiso 1 1 calc R . . . .
C48 C -0.0893(5) 0.1670(5) 0.3962(4) 0.0539(18) Uani 1 1 d . . . . .
H48 H -0.020792 0.191126 0.428309 0.065 Uiso 1 1 calc R . . . .
Zn1 Zn 0.000000 0.500000 0.500000 0.0561(4) Uani 1 2 d S T P . .
N5 N 0.1248(4) 0.5975(4) 0.5190(4) 0.0572(16) Uani 1 1 d . . . . .
N6 N -0.0829(4) 0.5249(4) 0.4087(4) 0.0619(17) Uani 1 1 d . . . . .
C49 C 0.2162(5) 0.6220(5) 0.5776(4) 0.0551(18) Uani 1 1 d . . . . .
C50 C 0.2845(6) 0.6919(6) 0.5733(5) 0.066(2) Uani 1 1 d . . . . .
H50 H 0.351970 0.721183 0.607135 0.080 Uiso 1 1 calc R . . . .
C51 C 0.2317(6) 0.7064(5) 0.5109(5) 0.064(2) Uani 1 1 d . . . . .
H51 H 0.255409 0.747138 0.493176 0.076 Uiso 1 1 calc R . . . .
C52 C 0.1282(5) 0.6440(5) 0.4764(4) 0.058(2) Uani 1 1 d . . . . .
C53 C 0.0493(5) 0.6415(5) 0.4131(4) 0.0581(19) Uani 1 1 d . . . . .
C54 C -0.0501(5) 0.5863(5) 0.3822(4) 0.0560(18) Uani 1 1 d . . . . .
C55 C -0.1351(6) 0.5793(6) 0.3156(5) 0.063(2) Uani 1 1 d . . . . .
H55 H -0.134933 0.614283 0.287849 0.076 Uiso 1 1 calc R . . . .
C56 C -0.2141(5) 0.5131(5) 0.3011(5) 0.061(2) Uani 1 1 d . . . . .
H56 H -0.277633 0.493040 0.260382 0.073 Uiso 1 1 calc R . . . .
C57 C -0.1834(5) 0.4789(5) 0.3595(4) 0.0555(19) Uani 1 1 d . . . . .
C58 C -0.2430(5) 0.4113(5) 0.3655(4) 0.059(2) Uani 1 1 d . . . . .
H58 H -0.308679 0.384984 0.327209 0.070 Uiso 1 1 calc R . . . .
C59 C 0.0710(5) 0.7006(6) 0.3738(4) 0.066(2) Uani 1 1 d . . . . .
C60 C 0.1317(6) 0.6888(6) 0.3279(4) 0.070(2) Uani 1 1 d . . . . .
H60 H 0.158442 0.644626 0.323208 0.084 Uiso 1 1 calc R . . . .
C61 C 0.1515(7) 0.7406(7) 0.2909(5) 0.077(3) Uani 1 1 d . . . . .
H61 H 0.192003 0.731724 0.261385 0.092 Uiso 1 1 calc R . . . .
C62 C 0.1121(8) 0.8070(8) 0.2963(6) 0.097(3) Uani 1 1 d . . . . .
H62 H 0.125389 0.841832 0.270104 0.117 Uiso 1 1 calc R . . . .
C63 C 0.0523(8) 0.8207(8) 0.3417(6) 0.093(3) Uani 1 1 d . . . . .
H63 H 0.026655 0.865455 0.346524 0.111 Uiso 1 1 calc R . . . .
C64 C 0.0318(7) 0.7680(6) 0.3789(5) 0.073(2) Uani 1 1 d . . . . .
H64 H -0.008992 0.776880 0.408112 0.087 Uiso 1 1 calc R . . . .
P1 P 0.40291(14) 0.79148(12) 0.19130(9) 0.0518(5) Uani 1 1 d . . . . .
F1 F 0.4325(3) 0.7404(3) 0.1196(2) 0.0602(10) Uani 1 1 d . . . . .
F2 F 0.3751(4) 0.8422(3) 0.2638(2) 0.0676(11) Uani 1 1 d . . . . .
F3 F 0.4702(4) 0.8799(3) 0.1983(2) 0.0683(12) Uani 1 1 d . . . . .
F4 F 0.3065(4) 0.7922(4) 0.1289(3) 0.0878(16) Uani 1 1 d . . . . .
F5 F 0.3403(5) 0.7024(3) 0.1861(3) 0.0945(17) Uani 1 1 d . . . . .
F6 F 0.5012(4) 0.7896(4) 0.2556(2) 0.0810(14) Uani 1 1 d . . . . .
P2 P 0.20189(12) 0.45379(12) 0.15900(9) 0.0460(4) Uani 1 1 d . . . . .
F7 F 0.2366(4) 0.3999(4) 0.0928(3) 0.0799(14) Uani 1 1 d . . . . .
F8 F 0.1684(3) 0.5085(2) 0.22704(19) 0.0458(8) Uani 1 1 d . . . . .
F9 F 0.2950(3) 0.5387(3) 0.1861(3) 0.0596(10) Uani 1 1 d . . . . .
F10 F 0.1327(3) 0.4785(4) 0.0960(2) 0.0749(14) Uani 1 1 d . . . . .
F11 F 0.1106(3) 0.3712(3) 0.1359(2) 0.0656(11) Uani 1 1 d . . . . .
F12 F 0.2716(3) 0.4294(3) 0.2246(2) 0.0576(10) Uani 1 1 d . . . . .
P3 P 0.44336(17) 0.75733(18) 0.87509(14) 0.0781(7) Uani 1 1 d . . . . .
F13 F 0.4496(6) 0.7430(6) 0.7896(4) 0.155(4) Uani 1 1 d . . . . .
F14 F 0.4373(5) 0.7714(5) 0.9586(3) 0.106(2) Uani 1 1 d . . . . .
F15 F 0.5374(4) 0.8415(4) 0.9142(3) 0.0879(15) Uani 1 1 d . . . . .
F16 F 0.3683(5) 0.8078(6) 0.8605(6) 0.134(3) Uani 1 1 d . . . . .
F17 F 0.3498(5) 0.6715(5) 0.8355(4) 0.130(3) Uani 1 1 d . . . . .
F18 F 0.5181(7) 0.7077(5) 0.8917(8) 0.167(4) Uani 1 1 d . . . . .
P4 P 0.1662(4) 0.1125(3) 0.4807(3) 0.072(2) Uani 0.505(10) 1 d D U . A 1
P4A P 0.1548(4) 0.1221(4) 0.4887(4) 0.095(3) Uani 0.495(10) 1 d D U . A 2
F19 F 0.0664(4) 0.0706(5) 0.4012(4) 0.119(2) Uani 1 1 d D . . . .
F20 F 0.2564(3) 0.1618(3) 0.5675(3) 0.0911(17) Uani 1 1 d D . . . .
F21 F 0.0810(7) 0.1284(8) 0.5152(7) 0.091(3) Uani 0.505(10) 1 d D U . A 1
F21A F 0.1393(6) 0.2116(6) 0.5255(7) 0.085(3) Uani 0.495(10) 1 d D U . A 2
F22 F 0.1697(8) 0.1945(6) 0.4596(7) 0.090(3) Uani 0.505(10) 1 d D U . A 1
F22A F 0.2353(7) 0.1681(7) 0.4619(7) 0.089(3) Uani 0.495(10) 1 d D U . A 2
F23 F 0.2283(7) 0.0848(7) 0.4258(7) 0.091(3) Uani 0.505(10) 1 d D U . A 1
F23A F 0.1968(9) 0.0452(7) 0.4741(8) 0.103(4) Uani 0.495(10) 1 d D U . A 2
F24 F 0.1427(8) 0.0208(5) 0.4840(7) 0.079(3) Uani 0.505(10) 1 d D U . A 1
F24A F 0.1007(10) 0.0896(8) 0.5395(10) 0.121(5) Uani 0.495(10) 1 d D U . A 2
O1 O 0.3758(5) 0.3236(5) 0.3108(4) 0.103(2) Uani 1 1 d . . . . .
C65 C 0.2979(8) 0.2714(7) 0.2567(6) 0.087(3) Uani 1 1 d . . . . .
C66 C 0.2838(9) 0.2369(8) 0.1665(7) 0.104(3) Uani 1 1 d . . . . .
H66A H 0.228128 0.248928 0.136462 0.156 Uiso 1 1 calc GR . . . .
H66B H 0.270276 0.176220 0.145954 0.156 Uiso 1 1 calc GR . . . .
H66C H 0.344212 0.264167 0.161639 0.156 Uiso 1 1 calc GR . . . .
C67 C 0.2041(10) 0.2415(10) 0.2673(10) 0.133(5) Uani 1 1 d . . . . .
H67A H 0.217708 0.258271 0.323528 0.199 Uiso 1 1 calc GR . . . .
H67B H 0.176142 0.180317 0.239957 0.199 Uiso 1 1 calc GR . . . .
H67C H 0.156774 0.266216 0.245352 0.199 Uiso 1 1 calc GR . . . .
O2 O -0.0604(4) 0.6618(4) 0.1094(3) 0.0666(14) Uani 1 1 d . . . . .
C68 C -0.0054(6) 0.6892(6) 0.0808(4) 0.065(2) Uani 1 1 d . . . . .
C69 C 0.0653(7) 0.6454(10) 0.0598(7) 0.126(5) Uani 1 1 d . . . . .
H69A H 0.132278 0.676916 0.099889 0.189 Uiso 1 1 calc GR . . . .
H69B H 0.064658 0.642115 0.008388 0.189 Uiso 1 1 calc GR . . . .
H69C H 0.044712 0.588693 0.057713 0.189 Uiso 1 1 calc GR . . . .
C70 C -0.0033(15) 0.7659(9) 0.0652(8) 0.141(6) Uani 1 1 d . . . . .
H70A H -0.053356 0.750508 0.013123 0.212 Uiso 1 1 calc GR . . . .
H70B H 0.062287 0.791855 0.066908 0.212 Uiso 1 1 calc GR . . . .
H70C H -0.017363 0.805751 0.105451 0.212 Uiso 1 1 calc GR . . . .
loop_
_atom_site_aniso_label
_atom_site_aniso_U_11
_atom_site_aniso_U_22
_atom_site_aniso_U_33
_atom_site_aniso_U_23
_atom_site_aniso_U_13
_atom_site_aniso_U_12
N1 0.031(2) 0.072(4) 0.029(2) 0.025(3) 0.012(2) 0.028(3)
N2 0.031(2) 0.057(3) 0.030(2) 0.021(2) 0.013(2) 0.020(2)
N3 0.033(2) 0.068(4) 0.024(2) 0.020(2) 0.011(2) 0.026(2)
N4 0.038(3) 0.056(3) 0.039(3) 0.019(3) 0.019(2) 0.013(2)
C1 0.026(3) 0.057(3) 0.026(3) 0.020(3) 0.010(2) 0.024(3)
C2 0.022(2) 0.056(4) 0.027(3) 0.018(3) 0.008(2) 0.020(2)
C3 0.025(3) 0.056(4) 0.023(3) 0.014(3) 0.007(2) 0.019(3)
C4 0.028(3) 0.058(4) 0.025(3) 0.018(3) 0.006(2) 0.023(3)
C5 0.029(3) 0.061(4) 0.029(3) 0.024(3) 0.013(2) 0.025(3)
C6 0.027(3) 0.054(3) 0.029(3) 0.019(3) 0.011(2) 0.022(3)
C7 0.026(3) 0.058(4) 0.028(3) 0.016(3) 0.014(2) 0.022(3)
C8 0.038(3) 0.054(4) 0.028(3) 0.017(3) 0.013(2) 0.026(3)
C9 0.046(3) 0.063(4) 0.035(3) 0.025(3) 0.019(3) 0.031(3)
C10 0.024(3) 0.070(4) 0.032(3) 0.021(3) 0.010(2) 0.019(3)
C11 0.030(3) 0.067(4) 0.030(3) 0.026(3) 0.012(2) 0.020(3)
C12 0.038(3) 0.080(4) 0.026(3) 0.030(3) 0.010(2) 0.036(3)
C13 0.041(3) 0.088(5) 0.019(3) 0.035(3) 0.010(2) 0.039(3)
C14 0.044(3) 0.069(4) 0.035(3) 0.028(3) 0.013(3) 0.033(3)
C15 0.037(3) 0.090(6) 0.039(3) 0.038(4) 0.014(3) 0.029(3)
C16 0.035(3) 0.074(5) 0.024(3) 0.028(3) 0.008(2) 0.032(3)
C17 0.045(3) 0.069(4) 0.030(3) 0.032(3) 0.018(3) 0.034(3)
C18 0.036(3) 0.081(5) 0.025(3) 0.031(3) 0.008(2) 0.026(3)
C19 0.030(3) 0.057(4) 0.033(3) 0.022(3) 0.014(2) 0.025(3)
C20 0.035(3) 0.059(4) 0.028(3) 0.020(3) 0.008(2) 0.018(3)
C21 0.030(3) 0.064(4) 0.034(3) 0.018(3) 0.010(2) 0.019(3)
C22 0.032(3) 0.066(4) 0.026(3) 0.025(3) 0.011(2) 0.025(3)
C23 0.028(3) 0.054(4) 0.021(3) 0.013(3) 0.005(2) 0.016(3)
C24 0.041(3) 0.053(4) 0.038(3) 0.025(3) 0.021(3) 0.023(3)
C25 0.036(3) 0.035(3) 0.040(3) 0.021(3) 0.015(2) 0.010(2)
C26 0.034(3) 0.047(3) 0.033(3) 0.013(3) 0.007(2) 0.018(3)
C27 0.040(3) 0.055(4) 0.035(3) 0.021(3) 0.014(3) 0.013(3)
C28 0.035(3) 0.043(3) 0.044(3) 0.018(3) 0.019(3) 0.010(3)
C29 0.040(3) 0.059(4) 0.043(3) 0.024(3) 0.022(3) 0.020(3)
C30 0.025(3) 0.060(4) 0.024(3) 0.016(3) 0.008(2) 0.019(3)
C31 0.025(3) 0.051(3) 0.027(3) 0.015(3) 0.008(2) 0.014(2)
C32 0.024(3) 0.065(4) 0.028(3) 0.020(3) 0.009(2) 0.018(3)
C33 0.034(3) 0.060(4) 0.023(3) 0.018(3) 0.012(2) 0.028(3)
C34 0.035(3) 0.064(4) 0.030(3) 0.027(3) 0.017(2) 0.030(3)
C35 0.034(3) 0.059(4) 0.028(3) 0.017(3) 0.016(2) 0.019(3)
C36 0.033(3) 0.065(4) 0.024(3) 0.015(3) 0.009(2) 0.026(3)
C37 0.042(3) 0.049(3) 0.036(3) 0.019(3) 0.016(3) 0.018(3)
C38 0.030(3) 0.053(3) 0.033(3) 0.024(3) 0.012(2) 0.018(3)
C39 0.031(3) 0.056(4) 0.022(2) 0.020(3) 0.006(2) 0.014(3)
C40 0.041(3) 0.063(4) 0.024(3) 0.015(3) 0.007(3) 0.019(3)
C41 0.053(4) 0.044(3) 0.052(4) 0.019(3) 0.030(3) 0.022(3)
C42 0.037(3) 0.070(4) 0.036(3) 0.028(3) 0.018(3) 0.031(3)
C43 0.033(3) 0.072(4) 0.030(3) 0.023(3) 0.006(3) 0.021(3)
C44 0.038(3) 0.061(4) 0.027(3) 0.023(3) 0.012(2) 0.025(3)
C45 0.038(4) 0.087(5) 0.047(4) 0.030(4) 0.008(3) -0.001(4)
C46 0.040(3) 0.087(5) 0.045(4) 0.041(4) 0.010(3) 0.012(3)
C47 0.045(4) 0.088(5) 0.063(4) 0.052(4) 0.026(3) 0.033(4)
C48 0.028(3) 0.088(5) 0.058(4) 0.048(4) 0.013(3) 0.022(3)
Zn1 0.0369(6) 0.0692(8) 0.0497(7) 0.0049(6) 0.0192(5) 0.0213(6)
N5 0.044(3) 0.066(4) 0.049(3) 0.001(3) 0.022(3) 0.024(3)
N6 0.037(3) 0.082(4) 0.060(3) 0.010(3) 0.026(3) 0.025(3)
C49 0.052(4) 0.058(4) 0.050(4) 0.007(3) 0.025(3) 0.025(3)
C50 0.046(4) 0.081(5) 0.054(4) 0.001(4) 0.021(3) 0.027(4)
C51 0.059(4) 0.067(5) 0.052(4) 0.003(4) 0.024(4) 0.026(4)
C52 0.046(4) 0.071(5) 0.047(4) 0.004(4) 0.023(3) 0.028(3)
C53 0.040(4) 0.076(5) 0.049(4) 0.007(4) 0.025(3) 0.023(3)
C54 0.049(4) 0.063(4) 0.054(4) 0.008(4) 0.031(3) 0.025(3)
C55 0.051(4) 0.087(5) 0.055(4) 0.019(4) 0.027(3) 0.036(4)
C56 0.035(3) 0.078(5) 0.053(4) 0.004(4) 0.019(3) 0.018(3)
C57 0.029(3) 0.076(5) 0.046(4) 0.004(4) 0.014(3) 0.023(3)
C58 0.022(3) 0.079(5) 0.053(4) 0.001(4) 0.014(3) 0.016(3)
C59 0.044(4) 0.084(5) 0.049(4) 0.003(4) 0.014(3) 0.024(4)
C60 0.049(4) 0.093(6) 0.042(4) 0.003(4) 0.014(3) 0.019(4)
C61 0.059(5) 0.107(7) 0.052(4) 0.024(5) 0.021(4) 0.018(5)
C62 0.080(6) 0.115(9) 0.056(5) 0.033(6) -0.005(5) -0.002(6)
C63 0.081(6) 0.117(8) 0.070(6) 0.035(6) 0.020(5) 0.033(6)
C64 0.073(5) 0.071(5) 0.062(5) 0.010(4) 0.027(4) 0.025(4)
P1 0.0624(11) 0.0557(10) 0.0295(8) 0.0127(7) 0.0157(8) 0.0152(8)
F1 0.089(3) 0.053(2) 0.0342(18) 0.0096(17) 0.0232(19) 0.028(2)
F2 0.083(3) 0.060(2) 0.046(2) 0.0050(19) 0.031(2) 0.016(2)
F3 0.087(3) 0.059(2) 0.048(2) 0.0118(19) 0.032(2) 0.010(2)
F4 0.078(3) 0.112(4) 0.049(2) 0.010(3) 0.008(2) 0.044(3)
F5 0.126(5) 0.073(3) 0.080(3) 0.022(3) 0.058(3) 0.013(3)
F6 0.095(4) 0.118(4) 0.036(2) 0.034(2) 0.021(2) 0.050(3)
P2 0.0403(8) 0.0731(11) 0.0279(7) 0.0211(8) 0.0143(7) 0.0229(8)
F7 0.080(3) 0.104(4) 0.052(2) 0.012(2) 0.039(2) 0.038(3)
F8 0.0437(18) 0.069(2) 0.0351(17) 0.0252(17) 0.0190(15) 0.0282(17)
F9 0.045(2) 0.088(3) 0.065(2) 0.044(2) 0.0300(19) 0.028(2)
F10 0.058(2) 0.139(4) 0.048(2) 0.055(3) 0.022(2) 0.043(3)
F11 0.051(2) 0.072(3) 0.051(2) 0.011(2) 0.0119(18) 0.010(2)
F12 0.052(2) 0.070(2) 0.055(2) 0.029(2) 0.0146(18) 0.0288(19)
P3 0.0590(12) 0.0996(17) 0.0600(12) 0.0328(12) 0.0121(10) 0.0111(12)
F13 0.107(5) 0.205(8) 0.062(3) 0.020(4) 0.022(3) -0.053(5)
F14 0.085(4) 0.149(6) 0.067(3) 0.054(4) 0.012(3) 0.014(4)
F15 0.068(3) 0.094(4) 0.086(3) 0.046(3) 0.012(3) 0.006(3)
F16 0.077(4) 0.188(8) 0.172(7) 0.131(7) 0.028(4) 0.046(4)
F17 0.108(5) 0.134(5) 0.081(4) 0.004(4) 0.045(4) -0.033(4)
F18 0.159(8) 0.112(5) 0.297(14) 0.105(7) 0.145(9) 0.061(5)
P4 0.035(3) 0.076(3) 0.131(5) 0.058(3) 0.038(3) 0.038(3)
P4A 0.042(4) 0.107(5) 0.177(8) 0.081(5) 0.055(5) 0.052(4)
F19 0.058(3) 0.153(6) 0.167(7) 0.084(5) 0.033(4) 0.057(4)
F20 0.059(3) 0.079(3) 0.151(5) 0.061(4) 0.036(3) 0.038(2)
F21 0.057(6) 0.143(9) 0.104(7) 0.061(7) 0.036(5) 0.072(6)
F21A 0.041(5) 0.104(6) 0.108(7) 0.043(5) 0.014(4) 0.041(5)
F22 0.091(8) 0.074(5) 0.087(7) 0.040(5) 0.006(5) 0.026(5)
F22A 0.053(5) 0.123(8) 0.086(7) 0.044(6) 0.022(4) 0.027(5)
F23 0.051(5) 0.130(8) 0.110(7) 0.055(6) 0.036(5) 0.047(6)
F23A 0.086(9) 0.104(7) 0.113(9) 0.041(7) 0.014(6) 0.061(7)
F24 0.062(6) 0.059(4) 0.100(7) 0.030(5) 0.018(5) 0.016(4)
F24A 0.075(8) 0.114(9) 0.176(12) 0.063(9) 0.061(8) 0.011(6)
O1 0.080(4) 0.121(6) 0.073(4) 0.058(4) -0.015(4) -0.001(4)
C65 0.086(7) 0.087(6) 0.077(6) 0.028(5) 0.014(5) 0.041(6)
C66 0.095(8) 0.118(9) 0.094(7) 0.033(7) 0.037(6) 0.046(7)
C67 0.101(9) 0.143(12) 0.144(11) 0.023(10) 0.072(9) 0.044(8)
O2 0.051(3) 0.088(4) 0.060(3) 0.029(3) 0.025(3) 0.017(3)
C68 0.055(4) 0.077(5) 0.048(4) 0.016(4) 0.021(4) 0.011(4)
C69 0.049(5) 0.180(13) 0.090(7) -0.012(8) 0.033(5) 0.023(6)
C70 0.216(18) 0.100(9) 0.087(8) 0.034(7) 0.057(10) 0.021(10)
loop_
_atom_type_symbol
_atom_type_description
_atom_type_scat_dispersion_real
_atom_type_scat_dispersion_imag
_atom_type_scat_source
C C 0.0181 0.0091 'International Tables Vol C Tables 4.2.6.8 and 6.1.1.4'
H H 0.0000 0.0000 'International Tables Vol C Tables 4.2.6.8 and 6.1.1.4'
F F 0.0727 0.0534 'International Tables Vol C Tables 4.2.6.8 and 6.1.1.4'
N N 0.0311 0.0180 'International Tables Vol C Tables 4.2.6.8 and 6.1.1.4'
O O 0.0492 0.0322 'International Tables Vol C Tables 4.2.6.8 and 6.1.1.4'
P P 0.2955 0.4335 'International Tables Vol C Tables 4.2.6.8 and 6.1.1.4'
Zn Zn -1.5491 0.6778 'International Tables Vol C Tables 4.2.6.8 and 6.1.1.4'
loop_
_geom_angle_atom_site_label_1
_geom_angle_atom_site_label_2
_geom_angle_atom_site_label_3
_geom_angle
_geom_angle_site_symmetry_1
_geom_angle_site_symmetry_3
_geom_angle_publ_flag
C9 N1 C12 119.1(6) . . ?
C10 N1 C9 122.2(5) . . ?
C10 N1 C12 118.4(6) . . ?
C21 N2 C22 118.2(6) . . ?
C21 N2 C24 119.9(5) . . ?
C22 N2 C24 120.7(5) . . ?
C40 N3 C42 121.2(5) . . ?
C40 N3 C44 120.8(5) . . ?
C42 N3 C44 117.7(6) . . ?
C45 N4 C41 119.3(5) . 2_566 ?
C47 N4 C41 120.5(6) . 2_566 ?
C47 N4 C45 120.2(6) . . ?
C2 C1 C6 119.0(5) . . ?
C2 C1 C7 119.7(5) . . ?
C6 C1 C7 121.0(5) . . ?
C1 C2 H2 119.3 . . ?
C3 C2 C1 121.4(5) . . ?
C3 C2 H2 119.3 . . ?
C2 C3 C4 117.8(6) . . ?
C2 C3 C19 121.3(5) . . ?
C4 C3 C19 120.6(5) . . ?
C3 C4 H4 118.6 . . ?
C5 C4 C3 122.9(5) . . ?
C5 C4 H4 118.6 . . ?
C4 C5 C6 117.7(5) . . ?
C4 C5 C33 120.7(5) . . ?
C6 C5 C33 121.6(5) . . ?
C1 C6 H6 119.5 . . ?
C5 C6 C1 121.1(6) . . ?
C5 C6 H6 119.5 . . ?
C8 C7 C1 120.2(5) . . ?
C11 C7 C1 120.9(6) . . ?
C11 C7 C8 118.9(5) . . ?
C7 C8 H8 120.4 . . ?
C9 C8 C7 119.1(6) . . ?
C9 C8 H8 120.4 . . ?
N1 C9 C8 119.7(6) . . ?
N1 C9 H9 120.1 . . ?
C8 C9 H9 120.1 . . ?
N1 C10 H10 120.1 . . ?
N1 C10 C11 119.9(6) . . ?
C11 C10 H10 120.1 . . ?
C7 C11 H11 120.0 . . ?
C10 C11 C7 120.1(6) . . ?
C10 C11 H11 120.0 . . ?
N1 C12 H12A 110.1 . . ?
N1 C12 H12B 110.1 . . ?
N1 C12 C13 108.1(4) . . ?
H12A C12 H12B 108.4 . . ?
C13 C12 H12A 110.1 . . ?
C13 C12 H12B 110.1 . . ?
C14 C13 C12 119.4(7) . . ?
C18 C13 C12 120.3(6) . . ?
C18 C13 C14 120.3(6) . . ?
C13 C14 H14 120.3 . . ?
C13 C14 C15 119.5(7) . . ?
C15 C14 H14 120.3 . . ?
C14 C15 H15 120.0 . . ?
C16 C15 C14 120.1(7) . . ?
C16 C15 H15 120.0 . . ?
C15 C16 C17 121.1(6) . . ?
C15 C16 C44 119.6(6) . 2_566 ?
C17 C16 C44 119.2(6) . 2_566 ?
C16 C17 H17 121.2 . . ?
C16 C17 C18 117.7(7) . . ?
C18 C17 H17 121.2 . . ?
C13 C18 C17 121.3(6) . . ?
C13 C18 H18 119.3 . . ?
C17 C18 H18 119.3 . . ?
C20 C19 C3 121.4(5) . . ?
C20 C19 C23 117.7(6) . . ?
C23 C19 C3 120.7(5) . . ?
C19 C20 H20 119.9 . . ?
C21 C20 C19 120.2(6) . . ?
C21 C20 H20 119.9 . . ?
N2 C21 C20 122.3(6) . . ?
N2 C21 H21 118.9 . . ?
C20 C21 H21 118.9 . . ?
N2 C22 H22 118.8 . . ?
N2 C22 C23 122.4(5) . . ?
C23 C22 H22 118.8 . . ?
C19 C23 H23 120.6 . . ?
C22 C23 C19 118.7(5) . . ?
C22 C23 H23 120.6 . . ?
N2 C24 H24A 110.3 . . ?
N2 C24 H24B 110.3 . . ?
N2 C24 C25 107.0(4) . . ?
H24A C24 H24B 108.6 . . ?
C25 C24 H24A 110.3 . . ?
C25 C24 H24B 110.3 . . ?
C26 C25 C24 119.5(5) . . ?
C26 C25 C37 120.3(5) . . ?
C37 C25 C24 119.9(5) . . ?
C25 C26 H26 120.0 . . ?
C25 C26 C27 120.0(5) . . ?
C27 C26 H26 120.0 . . ?
C26 C27 H27 120.1 . . ?
C28 C27 C26 119.7(6) . . ?
C28 C27 H27 120.1 . . ?
C27 C28 C41 118.1(6) . . ?
C29 C28 C27 120.6(5) . . ?
C29 C28 C41 121.3(6) . . ?
C28 C29 H29 120.0 . . ?
C28 C29 C37 120.0(6) . . ?
C37 C29 H29 120.0 . . ?
C32 C30 C34 120.8(5) . . ?
C32 C30 C38 119.7(5) . . ?
C38 C30 C34 119.4(5) . . ?
C32 C31 C35 120.8(5) . . ?
C32 C31 C39 118.3(5) . . ?
C39 C31 C35 120.9(5) . . ?
C30 C32 C31 121.3(5) . . ?
C30 C32 H32 119.3 . . ?
C31 C32 H32 119.3 . . ?
C38 C33 C5 120.5(5) . . ?
C38 C33 C39 117.2(5) . . ?
C39 C33 C5 122.3(5) . . ?
C36 C34 C30 120.9(6) . . ?
C36 C34 C43 118.4(6) . . ?
C43 C34 C30 120.7(6) . . ?
C46 C35 C31 121.8(6) . . ?
C48 C35 C31 122.4(5) . . ?
C48 C35 C46 115.8(6) . . ?
C34 C36 H36 119.6 . . ?
C34 C36 C42 120.8(6) . . ?
C42 C36 H36 119.6 . . ?
C25 C37 C29 119.4(6) . . ?
C25 C37 H37 120.3 . . ?
C29 C37 H37 120.3 . . ?
C30 C38 C33 121.6(6) . . ?
C30 C38 H38 119.2 . . ?
C33 C38 H38 119.2 . . ?
C31 C39 H39 119.0 . . ?
C33 C39 C31 121.9(5) . . ?
C33 C39 H39 119.0 . . ?
N3 C40 H40 119.1 . . ?
N3 C40 C43 121.9(6) . . ?
C43 C40 H40 119.1 . . ?
N4 C41 C28 108.4(5) 2_566 . ?
N4 C41 H41A 110.0 2_566 . ?
N4 C41 H41B 110.0 2_566 . ?
C28 C41 H41A 110.0 . . ?
C28 C41 H41B 110.0 . . ?
H41A C41 H41B 108.4 . . ?
N3 C42 C36 119.1(6) . . ?
N3 C42 H42 120.5 . . ?
C36 C42 H42 120.5 . . ?
C34 C43 H43 120.8 . . ?
C40 C43 C34 118.5(7) . . ?
C40 C43 H43 120.8 . . ?
N3 C44 C16 107.2(4) . 2_566 ?
N3 C44 H44A 110.3 . . ?
N3 C44 H44B 110.3 . . ?
C16 C44 H44A 110.3 2_566 . ?
C16 C44 H44B 110.3 2_566 . ?
H44A C44 H44B 108.5 . . ?
N4 C45 H45 119.5 . . ?
N4 C45 C46 121.0(6) . . ?
C46 C45 H45 119.5 . . ?
C35 C46 H46 119.7 . . ?
C45 C46 C35 120.6(7) . . ?
C45 C46 H46 119.7 . . ?
N4 C47 H47 119.8 . . ?
N4 C47 C48 120.4(6) . . ?
C48 C47 H47 119.8 . . ?
C35 C48 H48 119.0 . . ?
C47 C48 C35 121.9(6) . . ?
C47 C48 H48 119.0 . . ?
N5 Zn1 N5 180.0(4) 2_566 . ?
N6 Zn1 N5 91.5(3) 2_566 . ?
N6 Zn1 N5 91.5(3) . 2_566 ?
N6 Zn1 N5 88.5(3) . . ?
N6 Zn1 N5 88.5(3) 2_566 2_566 ?
N6 Zn1 N6 180.0(3) . 2_566 ?
C49 N5 Zn1 123.7(6) . . ?
C52 N5 Zn1 126.4(5) . . ?
C52 N5 C49 109.9(6) . . ?
C54 N6 Zn1 127.7(5) . . ?
C54 N6 C57 107.6(7) . . ?
C57 N6 Zn1 124.6(6) . . ?
N5 C49 C50 108.5(7) . . ?
N5 C49 C58 127.2(7) . 2_566 ?
C58 C49 C50 124.3(7) 2_566 . ?
C49 C50 H50 126.4 . . ?
C51 C50 C49 107.2(7) . . ?
C51 C50 H50 126.4 . . ?
C50 C51 H51 127.0 . . ?
C50 C51 C52 106.0(8) . . ?
C52 C51 H51 127.0 . . ?
N5 C52 C51 108.4(7) . . ?
N5 C52 C53 128.1(7) . . ?
C53 C52 C51 123.4(8) . . ?
C52 C53 C54 124.5(8) . . ?
C52 C53 C59 118.7(7) . . ?
C54 C53 C59 116.8(7) . . ?
N6 C54 C53 124.7(7) . . ?
N6 C54 C55 108.0(6) . . ?
C53 C54 C55 127.2(8) . . ?
C54 C55 H55 126.2 . . ?
C56 C55 C54 107.7(8) . . ?
C56 C55 H55 126.2 . . ?
C55 C56 H56 125.9 . . ?
C55 C56 C57 108.1(7) . . ?
C57 C56 H56 125.9 . . ?
N6 C57 C56 108.5(7) . . ?
C58 C57 N6 125.5(8) . . ?
C58 C57 C56 125.9(6) . . ?
C49 C58 H58 116.3 2_566 . ?
C57 C58 C49 127.3(6) . 2_566 ?
C57 C58 H58 116.3 . . ?
C60 C59 C53 120.0(8) . . ?
C64 C59 C53 122.7(7) . . ?
C64 C59 C60 117.3(9) . . ?
C59 C60 H60 119.4 . . ?
C61 C60 C59 121.3(9) . . ?
C61 C60 H60 119.4 . . ?
C60 C61 H61 119.6 . . ?
C60 C61 C62 120.8(9) . . ?
C62 C61 H61 119.6 . . ?
C61 C62 H62 120.3 . . ?
C61 C62 C63 119.4(11) . . ?
C63 C62 H62 120.3 . . ?
C62 C63 H63 120.1 . . ?
C64 C63 C62 119.9(11) . . ?
C64 C63 H63 120.1 . . ?
C59 C64 H64 119.3 . . ?
C63 C64 C59 121.4(9) . . ?
C63 C64 H64 119.3 . . ?
F1 P1 F6 89.8(2) . . ?
F2 P1 F1 179.0(3) . . ?
F2 P1 F3 89.9(2) . . ?
F2 P1 F6 89.2(2) . . ?
F3 P1 F1 90.1(2) . . ?
F3 P1 F6 88.7(3) . . ?
F4 P1 F1 90.3(2) . . ?
F4 P1 F2 90.7(3) . . ?
F4 P1 F3 92.1(3) . . ?
F4 P1 F5 90.4(4) . . ?
F4 P1 F6 179.2(4) . . ?
F5 P1 F1 89.1(3) . . ?
F5 P1 F2 90.8(3) . . ?
F5 P1 F3 177.4(4) . . ?
F5 P1 F6 88.8(3) . . ?
F7 P2 F8 179.1(3) . . ?
F7 P2 F9 91.5(3) . . ?
F7 P2 F12 90.1(3) . . ?
F9 P2 F8 88.1(2) . . ?
F10 P2 F7 91.0(3) . . ?
F10 P2 F8 89.8(2) . . ?
F10 P2 F9 90.9(3) . . ?
F10 P2 F11 90.4(3) . . ?
F10 P2 F12 178.9(2) . . ?
F11 P2 F7 90.3(3) . . ?
F11 P2 F8 90.0(2) . . ?
F11 P2 F9 177.7(2) . . ?
F11 P2 F12 89.4(2) . . ?
F12 P2 F8 89.0(2) . . ?
F12 P2 F9 89.2(2) . . ?
F14 P3 F13 179.9(6) . . ?
F14 P3 F15 91.1(3) . . ?
F14 P3 F16 89.8(4) . . ?
F14 P3 F17 89.1(3) . . ?
F14 P3 F18 88.9(5) . . ?
F15 P3 F13 88.9(3) . . ?
F15 P3 F17 179.0(5) . . ?
F16 P3 F13 90.2(5) . . ?
F16 P3 F15 91.6(4) . . ?
F16 P3 F17 89.4(5) . . ?
F17 P3 F13 90.9(3) . . ?
F18 P3 F13 91.2(6) . . ?
F18 P3 F15 88.2(4) . . ?
F18 P3 F16 178.6(6) . . ?
F18 P3 F17 90.8(5) . . ?
F19 P4 F20 171.0(5) . . ?
F19 P4 F21 77.6(6) . . ?
F19 P4 F22 81.3(5) . . ?
F19 P4 F23 88.5(5) . . ?
F19 P4 F24 86.7(5) . . ?
F20 P4 F22 96.5(5) . . ?
F21 P4 F20 93.7(5) . . ?
F21 P4 F22 89.5(5) . . ?
F23 P4 F20 100.2(6) . . ?
F23 P4 F21 166.1(7) . . ?
F23 P4 F22 89.1(5) . . ?
F24 P4 F20 95.5(5) . . ?
F24 P4 F21 88.9(5) . . ?
F24 P4 F22 167.9(7) . . ?
F24 P4 F23 89.6(5) . . ?
F20 P4A F19 167.5(5) . . ?
F21A P4A F19 105.9(6) . . ?
F21A P4A F20 85.0(5) . . ?
F22A P4A F19 96.9(6) . . ?
F22A P4A F20 77.1(5) . . ?
F22A P4A F21A 87.7(5) . . ?
F23A P4A F19 89.7(6) . . ?
F23A P4A F20 79.3(6) . . ?
F23A P4A F21A 164.3(7) . . ?
F23A P4A F22A 89.0(6) . . ?
F23A P4A F24A 90.1(6) . . ?
F24A P4A F19 99.5(8) . . ?
F24A P4A F20 86.6(7) . . ?
F24A P4A F21A 88.7(6) . . ?
F24A P4A F22A 163.6(8) . . ?
O1 C65 C66 123.3(11) . . ?
O1 C65 C67 124.2(11) . . ?
C67 C65 C66 112.2(10) . . ?
C65 C66 H66A 109.5 . . ?
C65 C66 H66B 109.5 . . ?
C65 C66 H66C 109.5 . . ?
H66A C66 H66B 109.5 . . ?
H66A C66 H66C 109.5 . . ?
H66B C66 H66C 109.5 . . ?
C65 C67 H67A 109.5 . . ?
C65 C67 H67B 109.5 . . ?
C65 C67 H67C 109.5 . . ?
H67A C67 H67B 109.5 . . ?
H67A C67 H67C 109.5 . . ?
H67B C67 H67C 109.5 . . ?
O2 C68 C69 120.0(10) . . ?
O2 C68 C70 123.1(10) . . ?
C70 C68 C69 116.8(11) . . ?
C68 C69 H69A 109.5 . . ?
C68 C69 H69B 109.5 . . ?
C68 C69 H69C 109.5 . . ?
H69A C69 H69B 109.5 . . ?
H69A C69 H69C 109.5 . . ?
H69B C69 H69C 109.5 . . ?
C68 C70 H70A 109.5 . . ?
C68 C70 H70B 109.5 . . ?
C68 C70 H70C 109.5 . . ?
H70A C70 H70B 109.5 . . ?
H70A C70 H70C 109.5 . . ?
H70B C70 H70C 109.5 . . ?
loop_
_geom_bond_atom_site_label_1
_geom_bond_atom_site_label_2
_geom_bond_distance
_geom_bond_site_symmetry_2
_geom_bond_publ_flag
N1 C9 1.352(9) . ?
N1 C10 1.336(9) . ?
N1 C12 1.502(8) . ?
N2 C21 1.341(8) . ?
N2 C22 1.355(8) . ?
N2 C24 1.478(8) . ?
N3 C40 1.310(9) . ?
N3 C42 1.364(8) . ?
N3 C44 1.492(8) . ?
N4 C41 1.513(9) 2_566 ?
N4 C45 1.342(10) . ?
N4 C47 1.329(9) . ?
C1 C2 1.394(9) . ?
C1 C6 1.402(8) . ?
C1 C7 1.486(8) . ?
C2 H2 0.9300 . ?
C2 C3 1.381(9) . ?
C3 C4 1.399(8) . ?
C3 C19 1.482(9) . ?
C4 H4 0.9300 . ?
C4 C5 1.389(9) . ?
C5 C6 1.390(9) . ?
C5 C33 1.509(8) . ?
C6 H6 0.9300 . ?
C7 C8 1.399(9) . ?
C7 C11 1.387(9) . ?
C8 H8 0.9300 . ?
C8 C9 1.392(9) . ?
C9 H9 0.9300 . ?
C10 H10 0.9300 . ?
C10 C11 1.383(9) . ?
C11 H11 0.9300 . ?
C12 H12A 0.9700 . ?
C12 H12B 0.9700 . ?
C12 C13 1.523(8) . ?
C13 C14 1.379(10) . ?
C13 C18 1.353(10) . ?
C14 H14 0.9300 . ?
C14 C15 1.396(9) . ?
C15 H15 0.9300 . ?
C15 C16 1.364(10) . ?
C16 C17 1.392(10) . ?
C16 C44 1.532(8) 2_566 ?
C17 H17 0.9300 . ?
C17 C18 1.406(9) . ?
C18 H18 0.9300 . ?
C19 C20 1.380(9) . ?
C19 C23 1.410(9) . ?
C20 H20 0.9300 . ?
C20 C21 1.369(10) . ?
C21 H21 0.9300 . ?
C22 H22 0.9300 . ?
C22 C23 1.375(9) . ?
C23 H23 0.9300 . ?
C24 H24A 0.9700 . ?
C24 H24B 0.9700 . ?
C24 C25 1.496(8) . ?
C25 C26 1.369(8) . ?
C25 C37 1.389(8) . ?
C26 H26 0.9300 . ?
C26 C27 1.405(9) . ?
C27 H27 0.9300 . ?
C27 C28 1.376(9) . ?
C28 C29 1.367(9) . ?
C28 C41 1.530(8) . ?
C29 H29 0.9300 . ?
C29 C37 1.406(9) . ?
C30 C32 1.366(9) . ?
C30 C34 1.492(9) . ?
C30 C38 1.392(8) . ?
C31 C32 1.390(9) . ?
C31 C35 1.484(9) . ?
C31 C39 1.401(8) . ?
C32 H32 0.9300 . ?
C33 C38 1.395(9) . ?
C33 C39 1.400(9) . ?
C34 C36 1.372(9) . ?
C34 C43 1.404(9) . ?
C35 C46 1.398(9) . ?
C35 C48 1.380(10) . ?
C36 H36 0.9300 . ?
C36 C42 1.382(9) . ?
C37 H37 0.9300 . ?
C38 H38 0.9300 . ?
C39 H39 0.9300 . ?
C40 H40 0.9300 . ?
C40 C43 1.383(10) . ?
C41 H41A 0.9700 . ?
C41 H41B 0.9700 . ?
C42 H42 0.9300 . ?
C43 H43 0.9300 . ?
C44 H44A 0.9700 . ?
C44 H44B 0.9700 . ?
C45 H45 0.9300 . ?
C45 C46 1.362(11) . ?
C46 H46 0.9300 . ?
C47 H47 0.9300 . ?
C47 C48 1.364(11) . ?
C48 H48 0.9300 . ?
Zn1 N5 2.076(6) 2_566 ?
Zn1 N5 2.076(6) . ?
Zn1 N6 2.049(7) . ?
Zn1 N6 2.049(7) 2_566 ?
N5 C49 1.347(10) . ?
N5 C52 1.326(11) . ?
N6 C54 1.384(11) . ?
N6 C57 1.385(9) . ?
C49 C50 1.452(12) . ?
C49 C58 1.390(12) 2_566 ?
C50 H50 0.9300 . ?
C50 C51 1.352(13) . ?
C51 H51 0.9300 . ?
C51 C52 1.483(11) . ?
C52 C53 1.392(11) . ?
C53 C54 1.399(10) . ?
C53 C59 1.494(13) . ?
C54 C55 1.451(11) . ?
C55 H55 0.9300 . ?
C55 C56 1.346(12) . ?
C56 H56 0.9300 . ?
C56 C57 1.434(12) . ?
C57 C58 1.376(12) . ?
C58 H58 0.9300 . ?
C59 C60 1.415(11) . ?
C59 C64 1.408(13) . ?
C60 H60 0.9300 . ?
C60 C61 1.352(14) . ?
C61 H61 0.9300 . ?
C61 C62 1.393(16) . ?
C62 H62 0.9300 . ?
C62 C63 1.400(17) . ?
C63 H63 0.9300 . ?
C63 C64 1.370(15) . ?
C64 H64 0.9300 . ?
P1 F1 1.602(4) . ?
P1 F2 1.595(4) . ?
P1 F3 1.596(5) . ?
P1 F4 1.570(5) . ?
P1 F5 1.594(6) . ?
P1 F6 1.617(5) . ?
P2 F7 1.594(4) . ?
P2 F8 1.612(4) . ?
P2 F9 1.610(5) . ?
P2 F10 1.575(5) . ?
P2 F11 1.588(5) . ?
P2 F12 1.608(4) . ?
P3 F13 1.598(7) . ?
P3 F14 1.559(6) . ?
P3 F15 1.575(6) . ?
P3 F16 1.570(8) . ?
P3 F17 1.588(7) . ?
P3 F18 1.562(10) . ?
P4 F19 1.590(6) . ?
P4 F20 1.603(6) . ?
P4 F21 1.602(7) . ?
P4 F22 1.609(7) . ?
P4 F23 1.601(7) . ?
P4 F24 1.600(7) . ?
P4A F19 1.602(6) . ?
P4A F20 1.601(6) . ?
P4A F21A 1.594(7) . ?
P4A F22A 1.586(8) . ?
P4A F23A 1.574(7) . ?
P4A F24A 1.580(8) . ?
O1 C65 1.216(12) . ?
C65 C66 1.558(16) . ?
C65 C67 1.460(17) . ?
C66 H66A 0.9600 . ?
C66 H66B 0.9600 . ?
C66 H66C 0.9600 . ?
C67 H67A 0.9600 . ?
C67 H67B 0.9600 . ?
C67 H67C 0.9600 . ?
O2 C68 1.199(9) . ?
C68 C69 1.483(14) . ?
C68 C70 1.465(17) . ?
C69 H69A 0.9600 . ?
C69 H69B 0.9600 . ?
C69 H69C 0.9600 . ?
C70 H70A 0.9600 . ?
C70 H70B 0.9600 . ?
C70 H70C 0.9600 . ?
loop_
_geom_torsion_atom_site_label_1
_geom_torsion_atom_site_label_2
_geom_torsion_atom_site_label_3
_geom_torsion_atom_site_label_4
_geom_torsion
_geom_torsion_site_symmetry_1
_geom_torsion_site_symmetry_2
_geom_torsion_site_symmetry_3
_geom_torsion_site_symmetry_4
_geom_torsion_publ_flag
N1 C10 C11 C7 -0.3(8) . . . . ?
N1 C12 C13 C14 96.5(7) . . . . ?
N1 C12 C13 C18 -82.4(7) . . . . ?
N2 C22 C23 C19 1.2(8) . . . . ?
N2 C24 C25 C26 88.6(6) . . . . ?
N2 C24 C25 C37 -85.3(6) . . . . ?
N3 C40 C43 C34 1.6(9) . . . . ?
N4 C45 C46 C35 2.0(12) . . . . ?
N4 C47 C48 C35 -1.0(11) . . . . ?
C1 C2 C3 C4 -0.2(8) . . . . ?
C1 C2 C3 C19 173.2(5) . . . . ?
C1 C7 C8 C9 -176.2(5) . . . . ?
C1 C7 C11 C10 176.5(5) . . . . ?
C2 C1 C6 C5 -1.9(8) . . . . ?
C2 C1 C7 C8 -157.5(5) . . . . ?
C2 C1 C7 C11 24.6(8) . . . . ?
C2 C3 C4 C5 0.3(8) . . . . ?
C2 C3 C19 C20 -15.9(8) . . . . ?
C2 C3 C19 C23 168.7(5) . . . . ?
C3 C4 C5 C6 -1.1(8) . . . . ?
C3 C4 C5 C33 179.0(5) . . . . ?
C3 C19 C20 C21 -168.9(5) . . . . ?
C3 C19 C23 C22 168.9(5) . . . . ?
C4 C3 C19 C20 157.3(5) . . . . ?
C4 C3 C19 C23 -18.1(8) . . . . ?
C4 C5 C6 C1 1.9(8) . . . . ?
C4 C5 C33 C38 1.3(8) . . . . ?
C4 C5 C33 C39 -179.4(5) . . . . ?
C5 C33 C38 C30 179.5(5) . . . . ?
C5 C33 C39 C31 -179.3(5) . . . . ?
C6 C1 C2 C3 0.9(8) . . . . ?
C6 C1 C7 C8 27.9(7) . . . . ?
C6 C1 C7 C11 -150.0(5) . . . . ?
C6 C5 C33 C38 -178.6(5) . . . . ?
C6 C5 C33 C39 0.8(8) . . . . ?
C7 C1 C2 C3 -173.8(5) . . . . ?
C7 C1 C6 C5 172.8(5) . . . . ?
C7 C8 C9 N1 -0.4(8) . . . . ?
C8 C7 C11 C10 -1.4(8) . . . . ?
C9 N1 C10 C11 1.7(8) . . . . ?
C9 N1 C12 C13 -91.6(7) . . . . ?
C10 N1 C9 C8 -1.4(8) . . . . ?
C10 N1 C12 C13 82.5(7) . . . . ?
C11 C7 C8 C9 1.8(7) . . . . ?
C12 N1 C9 C8 172.5(5) . . . . ?
C12 N1 C10 C11 -172.1(5) . . . . ?
C12 C13 C14 C15 -176.3(5) . . . . ?
C12 C13 C18 C17 176.0(5) . . . . ?
C13 C14 C15 C16 -0.5(9) . . . . ?
C14 C13 C18 C17 -2.9(8) . . . . ?
C14 C15 C16 C17 -1.3(9) . . . . ?
C14 C15 C16 C44 174.5(5) . . . 2_566 ?
C15 C16 C17 C18 0.9(8) . . . . ?
C16 C17 C18 C13 1.1(8) . . . . ?
C18 C13 C14 C15 2.5(8) . . . . ?
C19 C3 C4 C5 -173.1(5) . . . . ?
C19 C20 C21 N2 -1.1(9) . . . . ?
C20 C19 C23 C22 -6.7(8) . . . . ?
C21 N2 C22 C23 4.4(8) . . . . ?
C21 N2 C24 C25 -73.3(6) . . . . ?
C22 N2 C21 C20 -4.5(8) . . . . ?
C22 N2 C24 C25 94.5(6) . . . . ?
C23 C19 C20 C21 6.7(8) . . . . ?
C24 N2 C21 C20 163.6(5) . . . . ?
C24 N2 C22 C23 -163.6(5) . . . . ?
C24 C25 C26 C27 -173.9(6) . . . . ?
C24 C25 C37 C29 175.0(5) . . . . ?
C25 C26 C27 C28 0.9(9) . . . . ?
C26 C25 C37 C29 1.1(9) . . . . ?
C26 C27 C28 C29 -3.0(10) . . . . ?
C26 C27 C28 C41 178.0(6) . . . . ?
C27 C28 C29 C37 4.1(10) . . . . ?
C27 C28 C41 N4 -98.7(7) . . . 2_566 ?
C28 C29 C37 C25 -3.1(9) . . . . ?
C29 C28 C41 N4 82.3(7) . . . 2_566 ?
C30 C34 C36 C42 -174.3(5) . . . . ?
C30 C34 C43 C40 173.6(5) . . . . ?
C31 C35 C46 C45 178.1(7) . . . . ?
C31 C35 C48 C47 -178.5(7) . . . . ?
C32 C30 C34 C36 149.3(6) . . . . ?
C32 C30 C34 C43 -28.6(8) . . . . ?
C32 C30 C38 C33 -0.4(8) . . . . ?
C32 C31 C35 C46 -12.2(9) . . . . ?
C32 C31 C35 C48 169.0(6) . . . . ?
C32 C31 C39 C33 0.0(8) . . . . ?
C33 C5 C6 C1 -178.2(5) . . . . ?
C34 C30 C32 C31 -177.5(5) . . . . ?
C34 C30 C38 C33 177.6(5) . . . . ?
C34 C36 C42 N3 -0.2(8) . . . . ?
C35 C31 C32 C30 -177.8(5) . . . . ?
C35 C31 C39 C33 177.6(5) . . . . ?
C36 C34 C43 C40 -4.4(8) . . . . ?
C37 C25 C26 C27 0.0(9) . . . . ?
C38 C30 C32 C31 0.4(9) . . . . ?
C38 C30 C34 C36 -28.6(8) . . . . ?
C38 C30 C34 C43 153.5(5) . . . . ?
C38 C33 C39 C31 0.0(8) . . . . ?
C39 C31 C32 C30 -0.2(8) . . . . ?
C39 C31 C35 C46 170.2(6) . . . . ?
C39 C31 C35 C48 -8.6(9) . . . . ?
C39 C33 C38 C30 0.1(8) . . . . ?
C40 N3 C42 C36 -2.8(8) . . . . ?
C40 N3 C44 C16 91.0(6) . . . 2_566 ?
C41 N4 C45 C46 177.6(7) 2_566 . . . ?
C41 N4 C47 C48 -178.0(6) 2_566 . . . ?
C41 C28 C29 C37 -176.9(6) . . . . ?
C42 N3 C40 C43 2.0(8) . . . . ?
C42 N3 C44 C16 -83.5(6) . . . 2_566 ?
C43 C34 C36 C42 3.7(8) . . . . ?
C44 N3 C40 C43 -172.2(5) . . . . ?
C44 N3 C42 C36 171.6(5) . . . . ?
C44 C16 C17 C18 -174.8(5) 2_566 . . . ?
C45 N4 C47 C48 -0.3(11) . . . . ?
C46 C35 C48 C47 2.6(10) . . . . ?
C47 N4 C45 C46 -0.2(11) . . . . ?
C48 C35 C46 C45 -3.0(10) . . . . ?
Zn1 N5 C49 C50 -179.6(4) . . . . ?
Zn1 N5 C49 C58 -0.6(9) . . . 2_566 ?
Zn1 N5 C52 C51 179.8(4) . . . . ?
Zn1 N5 C52 C53 3.8(9) . . . . ?
Zn1 N6 C54 C53 2.1(9) . . . . ?
Zn1 N6 C54 C55 179.2(4) . . . . ?
Zn1 N6 C57 C56 -177.9(4) . . . . ?
Zn1 N6 C57 C58 1.6(9) . . . . ?
N5 C49 C50 C51 -0.9(7) . . . . ?
N5 C52 C53 C54 -1.1(11) . . . . ?
N5 C52 C53 C59 179.8(6) . . . . ?
N6 C54 C55 C56 -2.7(7) . . . . ?
N6 C57 C58 C49 2.2(11) . . . 2_566 ?
C49 N5 C52 C51 -1.0(7) . . . . ?
C49 N5 C52 C53 -176.9(6) . . . . ?
C49 C50 C51 C52 0.3(7) . . . . ?
C50 C51 C52 N5 0.4(7) . . . . ?
C50 C51 C52 C53 176.6(6) . . . . ?
C51 C52 C53 C54 -176.6(6) . . . . ?
C51 C52 C53 C59 4.4(9) . . . . ?
C52 N5 C49 C50 1.1(7) . . . . ?
C52 N5 C49 C58 -179.9(6) . . . 2_566 ?
C52 C53 C54 N6 -2.1(10) . . . . ?
C52 C53 C54 C55 -178.6(6) . . . . ?
C52 C53 C59 C60 68.1(9) . . . . ?
C52 C53 C59 C64 -113.1(8) . . . . ?
C53 C54 C55 C56 174.3(6) . . . . ?
C53 C59 C60 C61 179.2(7) . . . . ?
C53 C59 C64 C63 -179.5(8) . . . . ?
C54 N6 C57 C56 -0.4(7) . . . . ?
C54 N6 C57 C58 179.1(6) . . . . ?
C54 C53 C59 C60 -111.0(7) . . . . ?
C54 C53 C59 C64 67.7(9) . . . . ?
C54 C55 C56 C57 2.4(7) . . . . ?
C55 C56 C57 N6 -1.3(7) . . . . ?
C55 C56 C57 C58 179.2(6) . . . . ?
C56 C57 C58 C49 -178.4(6) . . . 2_566 ?
C57 N6 C54 C53 -175.3(6) . . . . ?
C57 N6 C54 C55 1.9(7) . . . . ?
C58 C49 C50 C51 -179.8(6) 2_566 . . . ?
C59 C53 C54 N6 177.0(6) . . . . ?
C59 C53 C54 C55 0.4(10) . . . . ?
C59 C60 C61 C62 -0.4(12) . . . . ?
C60 C59 C64 C63 -0.7(12) . . . . ?
C60 C61 C62 C63 0.8(14) . . . . ?
C61 C62 C63 C64 -1.2(15) . . . . ?
C62 C63 C64 C59 1.1(14) . . . . ?
C64 C59 C60 C61 0.3(11) . . . . ?
loop_
_smtbx_masks_void_nr
_smtbx_masks_void_average_x
_smtbx_masks_void_average_y
_smtbx_masks_void_average_z
_smtbx_masks_void_volume
_smtbx_masks_void_count_electrons
_smtbx_masks_void_content
1 -0.832 0.000 0.000 1032.2 279.1 ?
